MODEL 1
REMARK VINA RESULT:      -5.9      0.000      0.000
REMARK  Name = 
REMARK                            x       y       z     vdW  Elec       q    Type
REMARK                         _______ _______ _______ _____ _____    ______ ____
ROOT
ATOM      1  C   LIG    1        0.217  -1.352  20.686  0.00  0.00    +0.034 A 
ATOM      2  C   LIG    1       -0.797  -0.972  21.567  0.00  0.00    +0.027 A 
ATOM      3  C   LIG    1       -1.568   0.167  21.311  0.00  0.00    +0.047 A 
ATOM      4  C   LIG    1       -1.326   0.926  20.173  0.00  0.00    +0.117 A 
ATOM      5  C   LIG    1       -0.330   0.559  19.277  0.00  0.00    +0.047 A 
ATOM      6  C   LIG    1        0.441  -0.580  19.537  0.00  0.00    +0.027 A 
ENDROOT
BRANCH   1   9
ATOM      7  C   LIG    1        2.976  -3.837  21.324  0.00  0.00    +0.109 C 
ATOM      8  C   LIG    1        2.369  -2.456  21.337  0.00  0.00    +0.214 C 
ATOM      9  N   LIG    1        1.060  -2.465  20.890  0.00  0.00    -0.286 N 
ATOM     10  H   LIG    1        0.658  -3.370  20.683  0.00  0.00    +0.155 HD
ATOM     11  O   LIG    1        3.020  -1.486  21.708  0.00  0.00    -0.276 OA
ENDBRANCH   1   9
BRANCH   4  12
ATOM     12  O   LIG    1       -2.091   2.035  19.973  0.00  0.00    -0.507 OA
ATOM     13  H   LIG    1       -2.036   2.601  20.760  0.00  0.00    +0.292 HD
ENDBRANCH   4  12
TORSDOF 2
ENDMDL
MODEL 2
REMARK VINA RESULT:      -5.7      9.438     10.672
REMARK  Name = 
REMARK                            x       y       z     vdW  Elec       q    Type
REMARK                         _______ _______ _______ _____ _____    ______ ____
ROOT
ATOM      1  C   LIG    1       -6.526  -4.208  14.114  0.00  0.00    +0.034 A 
ATOM      2  C   LIG    1       -7.288  -4.316  15.280  0.00  0.00    +0.027 A 
ATOM      3  C   LIG    1       -6.672  -4.594  16.504  0.00  0.00    +0.047 A 
ATOM      4  C   LIG    1       -5.296  -4.762  16.566  0.00  0.00    +0.117 A 
ATOM      5  C   LIG    1       -4.517  -4.647  15.421  0.00  0.00    +0.047 A 
ATOM      6  C   LIG    1       -5.136  -4.371  14.196  0.00  0.00    +0.027 A 
ENDROOT
BRANCH   1   9
ATOM      7  C   LIG    1       -8.172  -2.931  10.975  0.00  0.00    +0.109 C 
ATOM      8  C   LIG    1       -7.574  -2.770  12.350  0.00  0.00    +0.214 C 
ATOM      9  N   LIG    1       -7.074  -3.965  12.837  0.00  0.00    -0.286 N 
ATOM     10  H   LIG    1       -7.103  -4.758  12.208  0.00  0.00    +0.155 HD
ATOM     11  O   LIG    1       -7.571  -1.682  12.912  0.00  0.00    -0.276 OA
ENDBRANCH   1   9
BRANCH   4  12
ATOM     12  O   LIG    1       -4.742  -5.047  17.777  0.00  0.00    -0.507 OA
ATOM     13  H   LIG    1       -5.171  -4.500  18.455  0.00  0.00    +0.292 HD
ENDBRANCH   4  12
TORSDOF 2
ENDMDL
MODEL 3
REMARK VINA RESULT:      -5.7      9.551     10.476
REMARK  Name = 
REMARK                            x       y       z     vdW  Elec       q    Type
REMARK                         _______ _______ _______ _____ _____    ______ ____
ROOT
ATOM      1  C   LIG    1       -6.043  -4.346  14.468  0.00  0.00    +0.034 A 
ATOM      2  C   LIG    1       -6.969  -4.331  15.513  0.00  0.00    +0.027 A 
ATOM      3  C   LIG    1       -6.578  -4.679  16.810  0.00  0.00    +0.047 A 
ATOM      4  C   LIG    1       -5.262  -5.041  17.065  0.00  0.00    +0.117 A 
ATOM      5  C   LIG    1       -4.321  -5.051  16.042  0.00  0.00    +0.047 A 
ATOM      6  C   LIG    1       -4.715  -4.704  14.744  0.00  0.00    +0.027 A 
ENDROOT
BRANCH   1   9
ATOM      7  C   LIG    1       -6.955  -4.241  10.815  0.00  0.00    +0.109 C 
ATOM      8  C   LIG    1       -6.828  -4.913  12.158  0.00  0.00    +0.214 C 
ATOM      9  N   LIG    1       -6.364  -4.043  13.128  0.00  0.00    -0.286 N 
ATOM     10  H   LIG    1       -6.238  -3.079  12.849  0.00  0.00    +0.155 HD
ATOM     11  O   LIG    1       -7.115  -6.096  12.299  0.00  0.00    -0.276 OA
ENDBRANCH   1   9
BRANCH   4  12
ATOM     12  O   LIG    1       -4.930  -5.387  18.339  0.00  0.00    -0.507 OA
ATOM     13  H   LIG    1       -4.526  -6.270  18.330  0.00  0.00    +0.292 HD
ENDBRANCH   4  12
TORSDOF 2
ENDMDL
MODEL 4
REMARK VINA RESULT:      -5.7      9.668     10.653
REMARK  Name = 
REMARK                            x       y       z     vdW  Elec       q    Type
REMARK                         _______ _______ _______ _____ _____    ______ ____
ROOT
ATOM      1  C   LIG    1       -5.915  -4.345  14.095  0.00  0.00    +0.034 A 
ATOM      2  C   LIG    1       -4.618  -4.720  14.450  0.00  0.00    +0.027 A 
ATOM      3  C   LIG    1       -4.296  -4.978  15.787  0.00  0.00    +0.047 A 
ATOM      4  C   LIG    1       -5.270  -4.863  16.769  0.00  0.00    +0.117 A 
ATOM      5  C   LIG    1       -6.571  -4.503  16.436  0.00  0.00    +0.047 A 
ATOM      6  C   LIG    1       -6.889  -4.243  15.098  0.00  0.00    +0.027 A 
ENDROOT
BRANCH   1   9
ATOM      7  C   LIG    1       -6.922  -4.215  10.467  0.00  0.00    +0.109 C 
ATOM      8  C   LIG    1       -6.663  -4.920  11.774  0.00  0.00    +0.214 C 
ATOM      9  N   LIG    1       -6.311  -4.034  12.777  0.00  0.00    -0.286 N 
ATOM     10  H   LIG    1       -6.339  -3.051  12.542  0.00  0.00    +0.155 HD
ATOM     11  O   LIG    1       -6.764  -6.138  11.863  0.00  0.00    -0.276 OA
ENDBRANCH   1   9
BRANCH   4  12
ATOM     12  O   LIG    1       -4.908  -5.109  18.058  0.00  0.00    -0.507 OA
ATOM     13  H   LIG    1       -5.668  -4.936  18.637  0.00  0.00    +0.292 HD
ENDBRANCH   4  12
TORSDOF 2
ENDMDL
MODEL 5
REMARK VINA RESULT:      -5.5     12.556     13.352
REMARK  Name = 
REMARK                            x       y       z     vdW  Elec       q    Type
REMARK                         _______ _______ _______ _____ _____    ______ ____
ROOT
ATOM      1  C   LIG    1       -6.644  -4.603  10.612  0.00  0.00    +0.034 A 
ATOM      2  C   LIG    1       -7.501  -3.507  10.485  0.00  0.00    +0.027 A 
ATOM      3  C   LIG    1       -8.366  -3.408   9.391  0.00  0.00    +0.047 A 
ATOM      4  C   LIG    1       -8.378  -4.404   8.424  0.00  0.00    +0.117 A 
ATOM      5  C   LIG    1       -7.544  -5.509   8.537  0.00  0.00    +0.047 A 
ATOM      6  C   LIG    1       -6.677  -5.605   9.632  0.00  0.00    +0.027 A 
ENDROOT
BRANCH   1   9
ATOM      7  C   LIG    1       -4.746  -5.004  13.841  0.00  0.00    +0.109 C 
ATOM      8  C   LIG    1       -5.996  -5.007  12.998  0.00  0.00    +0.214 C 
ATOM      9  N   LIG    1       -5.719  -4.760  11.665  0.00  0.00    -0.286 N 
ATOM     10  H   LIG    1       -4.742  -4.681  11.413  0.00  0.00    +0.155 HD
ATOM     11  O   LIG    1       -7.095  -5.206  13.502  0.00  0.00    -0.276 OA
ENDBRANCH   1   9
BRANCH   4  12
ATOM     12  O   LIG    1       -9.226  -4.258   7.368  0.00  0.00    -0.507 OA
ATOM     13  H   LIG    1       -9.457  -5.137   7.027  0.00  0.00    +0.292 HD
ENDBRANCH   4  12
TORSDOF 2
ENDMDL
MODEL 6
REMARK VINA RESULT:      -5.3     12.695     13.523
REMARK  Name = 
REMARK                            x       y       z     vdW  Elec       q    Type
REMARK                         _______ _______ _______ _____ _____    ______ ____
ROOT
ATOM      1  C   LIG    1       -8.378  -4.030  11.449  0.00  0.00    +0.034 A 
ATOM      2  C   LIG    1       -9.029  -5.135  10.897  0.00  0.00    +0.027 A 
ATOM      3  C   LIG    1       -9.297  -5.185   9.525  0.00  0.00    +0.047 A 
ATOM      4  C   LIG    1       -8.914  -4.134   8.704  0.00  0.00    +0.117 A 
ATOM      5  C   LIG    1       -8.255  -3.030   9.230  0.00  0.00    +0.047 A 
ATOM      6  C   LIG    1       -7.989  -2.980  10.604  0.00  0.00    +0.027 A 
ENDROOT
BRANCH   1   9
ATOM      7  C   LIG    1       -7.196  -4.190  15.022  0.00  0.00    +0.109 C 
ATOM      8  C   LIG    1       -7.107  -4.516  13.553  0.00  0.00    +0.214 C 
ATOM      9  N   LIG    1       -8.102  -3.886  12.825  0.00  0.00    -0.286 N 
ATOM     10  H   LIG    1       -8.702  -3.250  13.334  0.00  0.00    +0.155 HD
ATOM     11  O   LIG    1       -6.235  -5.263  13.125  0.00  0.00    -0.276 OA
ENDBRANCH   1   9
BRANCH   4  12
ATOM     12  O   LIG    1       -9.210  -4.220   7.377  0.00  0.00    -0.507 OA
ATOM     13  H   LIG    1      -10.130  -4.513   7.279  0.00  0.00    +0.292 HD
ENDBRANCH   4  12
TORSDOF 2
ENDMDL
MODEL 7
REMARK VINA RESULT:      -5.2     11.108     11.841
REMARK  Name = 
REMARK                            x       y       z     vdW  Elec       q    Type
REMARK                         _______ _______ _______ _____ _____    ______ ____
ROOT
ATOM      1  C   LIG    1       -6.916  -5.189  13.016  0.00  0.00    +0.034 A 
ATOM      2  C   LIG    1       -7.840  -5.034  14.051  0.00  0.00    +0.027 A 
ATOM      3  C   LIG    1       -7.406  -4.760  15.352  0.00  0.00    +0.047 A 
ATOM      4  C   LIG    1       -6.049  -4.641  15.621  0.00  0.00    +0.117 A 
ATOM      5  C   LIG    1       -5.113  -4.780  14.603  0.00  0.00    +0.047 A 
ATOM      6  C   LIG    1       -5.549  -5.056  13.302  0.00  0.00    +0.027 A 
ENDROOT
BRANCH   1   9
ATOM      7  C   LIG    1       -7.790  -6.694   9.675  0.00  0.00    +0.109 C 
ATOM      8  C   LIG    1       -7.565  -6.748  11.165  0.00  0.00    +0.214 C 
ATOM      9  N   LIG    1       -7.269  -5.500  11.686  0.00  0.00    -0.286 N 
ATOM     10  H   LIG    1       -7.307  -4.720  11.043  0.00  0.00    +0.155 HD
ATOM     11  O   LIG    1       -7.645  -7.807  11.776  0.00  0.00    -0.276 OA
ENDBRANCH   1   9
BRANCH   4  12
ATOM     12  O   LIG    1       -5.673  -4.390  16.905  0.00  0.00    -0.507 OA
ATOM     13  H   LIG    1       -6.029  -3.528  17.174  0.00  0.00    +0.292 HD
ENDBRANCH   4  12
TORSDOF 2
ENDMDL
MODEL 8
REMARK VINA RESULT:      -5.1     11.326     12.510
REMARK  Name = 
REMARK                            x       y       z     vdW  Elec       q    Type
REMARK                         _______ _______ _______ _____ _____    ______ ____
ROOT
ATOM      1  C   LIG    1       -6.578  -4.671  11.769  0.00  0.00    +0.034 A 
ATOM      2  C   LIG    1       -6.479  -3.780  12.840  0.00  0.00    +0.027 A 
ATOM      3  C   LIG    1       -5.345  -3.778  13.658  0.00  0.00    +0.047 A 
ATOM      4  C   LIG    1       -4.308  -4.666  13.407  0.00  0.00    +0.117 A 
ATOM      5  C   LIG    1       -4.380  -5.554  12.340  0.00  0.00    +0.047 A 
ATOM      6  C   LIG    1       -5.517  -5.555  11.524  0.00  0.00    +0.027 A 
ENDROOT
BRANCH   1   9
ATOM      7  C   LIG    1       -9.243  -4.411   9.119  0.00  0.00    +0.109 C 
ATOM      8  C   LIG    1       -7.860  -4.179   9.675  0.00  0.00    +0.214 C 
ATOM      9  N   LIG    1       -7.701  -4.760  10.920  0.00  0.00    -0.286 N 
ATOM     10  H   LIG    1       -8.476  -5.311  11.265  0.00  0.00    +0.155 HD
ATOM     11  O   LIG    1       -7.029  -3.536   9.044  0.00  0.00    -0.276 OA
ENDBRANCH   1   9
BRANCH   4  12
ATOM     12  O   LIG    1       -3.230  -4.640  14.239  0.00  0.00    -0.507 OA
ATOM     13  H   LIG    1       -3.433  -4.068  14.997  0.00  0.00    +0.292 HD
ENDBRANCH   4  12
TORSDOF 2
ENDMDL
MODEL 9
REMARK VINA RESULT:      -5.1     10.244     10.789
REMARK  Name = 
REMARK                            x       y       z     vdW  Elec       q    Type
REMARK                         _______ _______ _______ _____ _____    ______ ____
ROOT
ATOM      1  C   LIG    1       -6.807  -4.172  14.039  0.00  0.00    +0.034 A 
ATOM      2  C   LIG    1       -7.687  -5.225  13.776  0.00  0.00    +0.027 A 
ATOM      3  C   LIG    1       -8.592  -5.143  12.713  0.00  0.00    +0.047 A 
ATOM      4  C   LIG    1       -8.619  -4.010  11.911  0.00  0.00    +0.117 A 
ATOM      5  C   LIG    1       -7.745  -2.956  12.146  0.00  0.00    +0.047 A 
ATOM      6  C   LIG    1       -6.841  -3.040  13.212  0.00  0.00    +0.027 A 
ENDROOT
BRANCH   1   9
ATOM      7  C   LIG    1       -3.921  -4.465  16.441  0.00  0.00    +0.109 C 
ATOM      8  C   LIG    1       -4.547  -4.494  15.069  0.00  0.00    +0.214 C 
ATOM      9  N   LIG    1       -5.890  -4.161  15.110  0.00  0.00    -0.286 N 
ATOM     10  H   LIG    1       -6.260  -3.879  16.008  0.00  0.00    +0.155 HD
ATOM     11  O   LIG    1       -3.887  -4.793  14.082  0.00  0.00    -0.276 OA
ENDBRANCH   1   9
BRANCH   4  12
ATOM     12  O   LIG    1       -9.528  -3.969  10.897  0.00  0.00    -0.507 OA
ATOM     13  H   LIG    1      -10.326  -4.448  11.171  0.00  0.00    +0.292 HD
ENDBRANCH   4  12
TORSDOF 2
ENDMDL
