MODEL 1
REMARK VINA RESULT:      -6.4      0.000      0.000
REMARK  Name = 
REMARK                            x       y       z     vdW  Elec       q    Type
REMARK                         _______ _______ _______ _____ _____    ______ ____
ROOT
ATOM      1  C   LIG    1       57.832  45.965  29.191  0.00  0.00    +0.034 A 
ATOM      2  C   LIG    1       56.675  46.641  28.796  0.00  0.00    +0.027 A 
ATOM      3  C   LIG    1       55.447  46.357  29.403  0.00  0.00    +0.047 A 
ATOM      4  C   LIG    1       55.374  45.398  30.404  0.00  0.00    +0.117 A 
ATOM      5  C   LIG    1       56.515  44.722  30.820  0.00  0.00    +0.047 A 
ATOM      6  C   LIG    1       57.742  45.007  30.211  0.00  0.00    +0.027 A 
ENDROOT
BRANCH   1   9
ATOM      7  C   LIG    1       61.089  47.195  27.752  0.00  0.00    +0.109 C 
ATOM      8  C   LIG    1       59.823  47.347  28.558  0.00  0.00    +0.214 C 
ATOM      9  N   LIG    1       59.100  46.168  28.606  0.00  0.00    -0.286 N 
ATOM     10  H   LIG    1       59.524  45.359  28.173  0.00  0.00    +0.155 HD
ATOM     11  O   LIG    1       59.531  48.418  29.075  0.00  0.00    -0.276 OA
ENDBRANCH   1   9
BRANCH   4  12
ATOM     12  O   LIG    1       54.155  45.144  30.955  0.00  0.00    -0.507 OA
ATOM     13  H   LIG    1       53.483  45.165  30.255  0.00  0.00    +0.292 HD
ENDBRANCH   4  12
TORSDOF 2
ENDMDL
MODEL 2
REMARK VINA RESULT:      -6.4      0.378      1.439
REMARK  Name = 
REMARK                            x       y       z     vdW  Elec       q    Type
REMARK                         _______ _______ _______ _____ _____    ______ ____
ROOT
ATOM      1  C   LIG    1       58.069  45.885  29.366  0.00  0.00    +0.034 A 
ATOM      2  C   LIG    1       57.959  45.365  30.657  0.00  0.00    +0.027 A 
ATOM      3  C   LIG    1       56.700  45.153  31.230  0.00  0.00    +0.047 A 
ATOM      4  C   LIG    1       55.552  45.460  30.513  0.00  0.00    +0.117 A 
ATOM      5  C   LIG    1       55.638  45.967  29.222  0.00  0.00    +0.047 A 
ATOM      6  C   LIG    1       56.899  46.179  28.652  0.00  0.00    +0.027 A 
ENDROOT
BRANCH   1   9
ATOM      7  C   LIG    1       61.164  47.298  27.748  0.00  0.00    +0.109 C 
ATOM      8  C   LIG    1       59.909  47.392  28.579  0.00  0.00    +0.214 C 
ATOM      9  N   LIG    1       59.299  46.159  28.731  0.00  0.00    -0.286 N 
ATOM     10  H   LIG    1       59.785  45.362  28.342  0.00  0.00    +0.155 HD
ATOM     11  O   LIG    1       59.532  48.467  29.030  0.00  0.00    -0.276 OA
ENDBRANCH   1   9
BRANCH   4  12
ATOM     12  O   LIG    1       54.349  45.252  31.117  0.00  0.00    -0.507 OA
ATOM     13  H   LIG    1       53.833  44.628  30.583  0.00  0.00    +0.292 HD
ENDBRANCH   4  12
TORSDOF 2
ENDMDL
MODEL 3
REMARK VINA RESULT:      -6.1      2.516      6.397
REMARK  Name = 
REMARK                            x       y       z     vdW  Elec       q    Type
REMARK                         _______ _______ _______ _____ _____    ______ ____
ROOT
ATOM      1  C   LIG    1       61.106  46.790  27.996  0.00  0.00    +0.034 A 
ATOM      2  C   LIG    1       61.951  45.702  27.764  0.00  0.00    +0.027 A 
ATOM      3  C   LIG    1       63.318  45.902  27.545  0.00  0.00    +0.047 A 
ATOM      4  C   LIG    1       63.842  47.187  27.559  0.00  0.00    +0.117 A 
ATOM      5  C   LIG    1       63.022  48.283  27.800  0.00  0.00    +0.047 A 
ATOM      6  C   LIG    1       61.654  48.081  28.017  0.00  0.00    +0.027 A 
ENDROOT
BRANCH   1   9
ATOM      7  C   LIG    1       57.566  46.196  29.139  0.00  0.00    +0.109 C 
ATOM      8  C   LIG    1       59.055  46.308  29.351  0.00  0.00    +0.214 C 
ATOM      9  N   LIG    1       59.714  46.677  28.191  0.00  0.00    -0.286 N 
ATOM     10  H   LIG    1       59.135  46.889  27.389  0.00  0.00    +0.155 HD
ATOM     11  O   LIG    1       59.554  46.079  30.446  0.00  0.00    -0.276 OA
ENDBRANCH   1   9
BRANCH   4  12
ATOM     12  O   LIG    1       65.176  47.335  27.325  0.00  0.00    -0.507 OA
ATOM     13  H   LIG    1       65.419  48.264  27.467  0.00  0.00    +0.292 HD
ENDBRANCH   4  12
TORSDOF 2
ENDMDL
MODEL 4
REMARK VINA RESULT:      -6.0      1.370      1.962
REMARK  Name = 
REMARK                            x       y       z     vdW  Elec       q    Type
REMARK                         _______ _______ _______ _____ _____    ______ ____
ROOT
ATOM      1  C   LIG    1       57.916  45.500  29.556  0.00  0.00    +0.034 A 
ATOM      2  C   LIG    1       57.326  44.561  30.403  0.00  0.00    +0.027 A 
ATOM      3  C   LIG    1       55.949  44.596  30.649  0.00  0.00    +0.047 A 
ATOM      4  C   LIG    1       55.162  45.568  30.048  0.00  0.00    +0.117 A 
ATOM      5  C   LIG    1       55.727  46.505  29.192  0.00  0.00    +0.047 A 
ATOM      6  C   LIG    1       57.105  46.469  28.948  0.00  0.00    +0.027 A 
ENDROOT
BRANCH   1   9
ATOM      7  C   LIG    1       61.641  46.046  29.416  0.00  0.00    +0.109 C 
ATOM      8  C   LIG    1       60.296  46.065  30.097  0.00  0.00    +0.214 C 
ATOM      9  N   LIG    1       59.300  45.555  29.284  0.00  0.00    -0.286 N 
ATOM     10  H   LIG    1       59.592  45.179  28.391  0.00  0.00    +0.155 HD
ATOM     11  O   LIG    1       60.174  46.501  31.236  0.00  0.00    -0.276 OA
ENDBRANCH   1   9
BRANCH   4  12
ATOM     12  O   LIG    1       53.829  45.573  30.329  0.00  0.00    -0.507 OA
ATOM     13  H   LIG    1       53.693  45.989  31.195  0.00  0.00    +0.292 HD
ENDBRANCH   4  12
TORSDOF 2
ENDMDL
MODEL 5
REMARK VINA RESULT:      -5.8      6.975      8.029
REMARK  Name = 
REMARK                            x       y       z     vdW  Elec       q    Type
REMARK                         _______ _______ _______ _____ _____    ______ ____
ROOT
ATOM      1  C   LIG    1       65.062  45.119  30.839  0.00  0.00    +0.034 A 
ATOM      2  C   LIG    1       64.411  43.924  31.151  0.00  0.00    +0.027 A 
ATOM      3  C   LIG    1       64.408  43.442  32.464  0.00  0.00    +0.047 A 
ATOM      4  C   LIG    1       65.054  44.153  33.466  0.00  0.00    +0.117 A 
ATOM      5  C   LIG    1       65.698  45.350  33.180  0.00  0.00    +0.047 A 
ATOM      6  C   LIG    1       65.701  45.830  31.865  0.00  0.00    +0.027 A 
ENDROOT
BRANCH   1   9
ATOM      7  C   LIG    1       64.593  46.725  27.464  0.00  0.00    +0.109 C 
ATOM      8  C   LIG    1       64.197  46.433  28.889  0.00  0.00    +0.214 C 
ATOM      9  N   LIG    1       65.142  45.655  29.536  0.00  0.00    -0.286 N 
ATOM     10  H   LIG    1       65.985  45.444  29.020  0.00  0.00    +0.155 HD
ATOM     11  O   LIG    1       63.146  46.861  29.350  0.00  0.00    -0.276 OA
ENDBRANCH   1   9
BRANCH   4  12
ATOM     12  O   LIG    1       65.038  43.637  34.726  0.00  0.00    -0.507 OA
ATOM     13  H   LIG    1       64.910  42.676  34.670  0.00  0.00    +0.292 HD
ENDBRANCH   4  12
TORSDOF 2
ENDMDL
MODEL 6
REMARK VINA RESULT:      -5.6      2.302      5.481
REMARK  Name = 
REMARK                            x       y       z     vdW  Elec       q    Type
REMARK                         _______ _______ _______ _____ _____    ______ ____
ROOT
ATOM      1  C   LIG    1       59.752  46.646  29.097  0.00  0.00    +0.034 A 
ATOM      2  C   LIG    1       60.456  46.493  30.294  0.00  0.00    +0.027 A 
ATOM      3  C   LIG    1       61.852  46.415  30.289  0.00  0.00    +0.047 A 
ATOM      4  C   LIG    1       62.547  46.490  29.089  0.00  0.00    +0.117 A 
ATOM      5  C   LIG    1       61.868  46.653  27.888  0.00  0.00    +0.047 A 
ATOM      6  C   LIG    1       60.470  46.730  27.895  0.00  0.00    +0.027 A 
ENDROOT
BRANCH   1   9
ATOM      7  C   LIG    1       56.031  46.081  28.953  0.00  0.00    +0.109 C 
ATOM      8  C   LIG    1       57.450  45.670  29.251  0.00  0.00    +0.214 C 
ATOM      9  N   LIG    1       58.345  46.698  29.013  0.00  0.00    -0.286 N 
ATOM     10  H   LIG    1       57.949  47.590  28.748  0.00  0.00    +0.155 HD
ATOM     11  O   LIG    1       57.708  44.539  29.647  0.00  0.00    -0.276 OA
ENDBRANCH   1   9
BRANCH   4  12
ATOM     12  O   LIG    1       63.905  46.393  29.132  0.00  0.00    -0.507 OA
ATOM     13  H   LIG    1       64.257  47.138  29.643  0.00  0.00    +0.292 HD
ENDBRANCH   4  12
TORSDOF 2
ENDMDL
MODEL 7
REMARK VINA RESULT:      -5.5      1.910      5.334
REMARK  Name = 
REMARK                            x       y       z     vdW  Elec       q    Type
REMARK                         _______ _______ _______ _____ _____    ______ ____
ROOT
ATOM      1  C   LIG    1       59.951  46.302  29.330  0.00  0.00    +0.034 A 
ATOM      2  C   LIG    1       60.098  46.674  27.992  0.00  0.00    +0.027 A 
ATOM      3  C   LIG    1       61.124  47.544  27.607  0.00  0.00    +0.047 A 
ATOM      4  C   LIG    1       62.003  48.043  28.558  0.00  0.00    +0.117 A 
ATOM      5  C   LIG    1       61.883  47.677  29.893  0.00  0.00    +0.047 A 
ATOM      6  C   LIG    1       60.855  46.807  30.276  0.00  0.00    +0.027 A 
ENDROOT
BRANCH   1   9
ATOM      7  C   LIG    1       56.782  44.593  30.436  0.00  0.00    +0.109 C 
ATOM      8  C   LIG    1       57.560  45.667  29.718  0.00  0.00    +0.214 C 
ATOM      9  N   LIG    1       58.925  45.459  29.804  0.00  0.00    -0.286 N 
ATOM     10  H   LIG    1       59.225  44.606  30.258  0.00  0.00    +0.155 HD
ATOM     11  O   LIG    1       56.984  46.589  29.152  0.00  0.00    -0.276 OA
ENDBRANCH   1   9
BRANCH   4  12
ATOM     12  O   LIG    1       62.976  48.899  28.140  0.00  0.00    -0.507 OA
ATOM     13  H   LIG    1       63.686  48.387  27.721  0.00  0.00    +0.292 HD
ENDBRANCH   4  12
TORSDOF 2
ENDMDL
MODEL 8
REMARK VINA RESULT:      -5.4      7.016      8.462
REMARK  Name = 
REMARK                            x       y       z     vdW  Elec       q    Type
REMARK                         _______ _______ _______ _____ _____    ______ ____
ROOT
ATOM      1  C   LIG    1       63.465  46.342  32.994  0.00  0.00    +0.034 A 
ATOM      2  C   LIG    1       64.706  45.857  33.413  0.00  0.00    +0.027 A 
ATOM      3  C   LIG    1       65.644  45.409  32.476  0.00  0.00    +0.047 A 
ATOM      4  C   LIG    1       65.343  45.448  31.121  0.00  0.00    +0.117 A 
ATOM      5  C   LIG    1       64.120  45.938  30.682  0.00  0.00    +0.047 A 
ATOM      6  C   LIG    1       63.182  46.384  31.621  0.00  0.00    +0.027 A 
ENDROOT
BRANCH   1   9
ATOM      7  C   LIG    1       61.284  47.885  35.650  0.00  0.00    +0.109 C 
ATOM      8  C   LIG    1       62.542  47.780  34.826  0.00  0.00    +0.214 C 
ATOM      9  N   LIG    1       62.454  46.779  33.875  0.00  0.00    -0.286 N 
ATOM     10  H   LIG    1       61.565  46.302  33.801  0.00  0.00    +0.155 HD
ATOM     11  O   LIG    1       63.494  48.524  35.033  0.00  0.00    -0.276 OA
ENDBRANCH   1   9
BRANCH   4  12
ATOM     12  O   LIG    1       66.281  44.987  30.247  0.00  0.00    -0.507 OA
ATOM     13  H   LIG    1       65.888  44.281  29.709  0.00  0.00    +0.292 HD
ENDBRANCH   4  12
TORSDOF 2
ENDMDL
MODEL 9
REMARK VINA RESULT:      -5.4      3.882      6.650
REMARK  Name = 
REMARK                            x       y       z     vdW  Elec       q    Type
REMARK                         _______ _______ _______ _____ _____    ______ ____
ROOT
ATOM      1  C   LIG    1       62.114  45.325  29.691  0.00  0.00    +0.034 A 
ATOM      2  C   LIG    1       62.804  44.317  29.013  0.00  0.00    +0.027 A 
ATOM      3  C   LIG    1       64.188  44.183  29.163  0.00  0.00    +0.047 A 
ATOM      4  C   LIG    1       64.884  45.054  29.991  0.00  0.00    +0.117 A 
ATOM      5  C   LIG    1       64.216  46.055  30.685  0.00  0.00    +0.047 A 
ATOM      6  C   LIG    1       62.831  46.189  30.532  0.00  0.00    +0.027 A 
ENDROOT
BRANCH   1   9
ATOM      7  C   LIG    1       58.603  46.466  28.944  0.00  0.00    +0.109 C 
ATOM      8  C   LIG    1       60.092  46.429  28.709  0.00  0.00    +0.214 C 
ATOM      9  N   LIG    1       60.727  45.549  29.567  0.00  0.00    -0.286 N 
ATOM     10  H   LIG    1       60.133  45.003  30.177  0.00  0.00    +0.155 HD
ATOM     11  O   LIG    1       60.610  47.128  27.846  0.00  0.00    -0.276 OA
ENDBRANCH   1   9
BRANCH   4  12
ATOM     12  O   LIG    1       66.233  44.895  30.095  0.00  0.00    -0.507 OA
ATOM     13  H   LIG    1       66.602  44.761  29.207  0.00  0.00    +0.292 HD
ENDBRANCH   4  12
TORSDOF 2
ENDMDL
