MODEL 1
REMARK VINA RESULT:      -6.1      0.000      0.000
REMARK  Name = 
REMARK                            x       y       z     vdW  Elec       q    Type
REMARK                         _______ _______ _______ _____ _____    ______ ____
ROOT
ATOM      1  C   LIG    1       45.260  -4.345  17.404  0.00  0.00    +0.034 A 
ATOM      2  C   LIG    1       44.540  -3.197  17.739  0.00  0.00    +0.027 A 
ATOM      3  C   LIG    1       43.348  -2.889  17.075  0.00  0.00    +0.047 A 
ATOM      4  C   LIG    1       42.874  -3.729  16.076  0.00  0.00    +0.117 A 
ATOM      5  C   LIG    1       43.568  -4.883  15.735  0.00  0.00    +0.047 A 
ATOM      6  C   LIG    1       44.762  -5.188  16.400  0.00  0.00    +0.027 A 
ENDROOT
BRANCH   1   9
ATOM      7  C   LIG    1       48.822  -5.058  18.400  0.00  0.00    +0.109 C 
ATOM      8  C   LIG    1       47.760  -4.403  17.554  0.00  0.00    +0.214 C 
ATOM      9  N   LIG    1       46.486  -4.707  18.001  0.00  0.00    -0.286 N 
ATOM     10  H   LIG    1       46.422  -5.252  18.850  0.00  0.00    +0.155 HD
ATOM     11  O   LIG    1       48.062  -3.703  16.595  0.00  0.00    -0.276 OA
ENDBRANCH   1   9
BRANCH   4  12
ATOM     12  O   LIG    1       41.718  -3.381  15.446  0.00  0.00    -0.507 OA
ATOM     13  H   LIG    1       41.336  -2.610  15.895  0.00  0.00    +0.292 HD
ENDBRANCH   4  12
TORSDOF 2
ENDMDL
MODEL 2
REMARK VINA RESULT:      -6.0      2.377      4.737
REMARK  Name = 
REMARK                            x       y       z     vdW  Elec       q    Type
REMARK                         _______ _______ _______ _____ _____    ______ ____
ROOT
ATOM      1  C   LIG    1       44.225  -2.849  17.805  0.00  0.00    +0.034 A 
ATOM      2  C   LIG    1       45.314  -2.632  18.651  0.00  0.00    +0.027 A 
ATOM      3  C   LIG    1       46.412  -3.498  18.628  0.00  0.00    +0.047 A 
ATOM      4  C   LIG    1       46.424  -4.580  17.759  0.00  0.00    +0.117 A 
ATOM      5  C   LIG    1       45.356  -4.809  16.900  0.00  0.00    +0.047 A 
ATOM      6  C   LIG    1       44.257  -3.942  16.926  0.00  0.00    +0.027 A 
ENDROOT
BRANCH   1   9
ATOM      7  C   LIG    1       41.554  -0.214  17.470  0.00  0.00    +0.109 C 
ATOM      8  C   LIG    1       42.901  -0.820  17.168  0.00  0.00    +0.214 C 
ATOM      9  N   LIG    1       43.066  -2.044  17.791  0.00  0.00    -0.286 N 
ATOM     10  H   LIG    1       42.268  -2.406  18.296  0.00  0.00    +0.155 HD
ATOM     11  O   LIG    1       43.707  -0.237  16.452  0.00  0.00    -0.276 OA
ENDBRANCH   1   9
BRANCH   4  12
ATOM     12  O   LIG    1       47.507  -5.405  17.783  0.00  0.00    -0.507 OA
ATOM     13  H   LIG    1       48.121  -5.098  18.469  0.00  0.00    +0.292 HD
ENDBRANCH   4  12
TORSDOF 2
ENDMDL
MODEL 3
REMARK VINA RESULT:      -6.0      2.323      4.894
REMARK  Name = 
REMARK                            x       y       z     vdW  Elec       q    Type
REMARK                         _______ _______ _______ _____ _____    ______ ____
ROOT
ATOM      1  C   LIG    1       44.096  -2.981  17.659  0.00  0.00    +0.034 A 
ATOM      2  C   LIG    1       44.224  -4.085  16.813  0.00  0.00    +0.027 A 
ATOM      3  C   LIG    1       45.372  -4.883  16.859  0.00  0.00    +0.047 A 
ATOM      4  C   LIG    1       46.391  -4.581  17.752  0.00  0.00    +0.117 A 
ATOM      5  C   LIG    1       46.279  -3.495  18.611  0.00  0.00    +0.047 A 
ATOM      6  C   LIG    1       45.131  -2.696  18.561  0.00  0.00    +0.027 A 
ENDROOT
BRANCH   1   9
ATOM      7  C   LIG    1       41.573  -0.209  17.284  0.00  0.00    +0.109 C 
ATOM      8  C   LIG    1       42.864  -0.916  16.956  0.00  0.00    +0.214 C 
ATOM      9  N   LIG    1       42.989  -2.108  17.649  0.00  0.00    -0.286 N 
ATOM     10  H   LIG    1       42.199  -2.386  18.216  0.00  0.00    +0.155 HD
ATOM     11  O   LIG    1       43.664  -0.432  16.165  0.00  0.00    -0.276 OA
ENDBRANCH   1   9
BRANCH   4  12
ATOM     12  O   LIG    1       47.496  -5.377  17.751  0.00  0.00    -0.507 OA
ATOM     13  H   LIG    1       47.214  -6.305  17.731  0.00  0.00    +0.292 HD
ENDBRANCH   4  12
TORSDOF 2
ENDMDL
MODEL 4
REMARK VINA RESULT:      -5.9      1.507      1.893
REMARK  Name = 
REMARK                            x       y       z     vdW  Elec       q    Type
REMARK                         _______ _______ _______ _____ _____    ______ ____
ROOT
ATOM      1  C   LIG    1       44.999  -3.089  18.064  0.00  0.00    +0.034 A 
ATOM      2  C   LIG    1       44.658  -1.991  18.856  0.00  0.00    +0.027 A 
ATOM      3  C   LIG    1       43.449  -1.318  18.651  0.00  0.00    +0.047 A 
ATOM      4  C   LIG    1       42.580  -1.742  17.655  0.00  0.00    +0.117 A 
ATOM      5  C   LIG    1       42.894  -2.840  16.863  0.00  0.00    +0.047 A 
ATOM      6  C   LIG    1       44.105  -3.510  17.069  0.00  0.00    +0.027 A 
ENDROOT
BRANCH   1   9
ATOM      7  C   LIG    1       48.445  -4.592  17.830  0.00  0.00    +0.109 C 
ATOM      8  C   LIG    1       47.400  -3.550  17.519  0.00  0.00    +0.214 C 
ATOM      9  N   LIG    1       46.212  -3.799  18.184  0.00  0.00    -0.286 N 
ATOM     10  H   LIG    1       46.209  -4.578  18.829  0.00  0.00    +0.155 HD
ATOM     11  O   LIG    1       47.643  -2.624  16.755  0.00  0.00    -0.276 OA
ENDBRANCH   1   9
BRANCH   4  12
ATOM     12  O   LIG    1       41.422  -1.047  17.481  0.00  0.00    -0.507 OA
ATOM     13  H   LIG    1       40.708  -1.503  17.954  0.00  0.00    +0.292 HD
ENDBRANCH   4  12
TORSDOF 2
ENDMDL
MODEL 5
REMARK VINA RESULT:      -5.9      1.406      2.241
REMARK  Name = 
REMARK                            x       y       z     vdW  Elec       q    Type
REMARK                         _______ _______ _______ _____ _____    ______ ____
ROOT
ATOM      1  C   LIG    1       44.977  -3.227  17.877  0.00  0.00    +0.034 A 
ATOM      2  C   LIG    1       44.049  -3.616  16.909  0.00  0.00    +0.027 A 
ATOM      3  C   LIG    1       42.848  -2.914  16.758  0.00  0.00    +0.047 A 
ATOM      4  C   LIG    1       42.575  -1.824  17.573  0.00  0.00    +0.117 A 
ATOM      5  C   LIG    1       43.490  -1.413  18.534  0.00  0.00    +0.047 A 
ATOM      6  C   LIG    1       44.690  -2.118  18.685  0.00  0.00    +0.027 A 
ENDROOT
BRANCH   1   9
ATOM      7  C   LIG    1       48.463  -4.654  17.960  0.00  0.00    +0.109 C 
ATOM      8  C   LIG    1       47.422  -3.652  17.530  0.00  0.00    +0.214 C 
ATOM      9  N   LIG    1       46.193  -3.902  18.116  0.00  0.00    -0.286 N 
ATOM     10  H   LIG    1       46.159  -4.653  18.791  0.00  0.00    +0.155 HD
ATOM     11  O   LIG    1       47.700  -2.752  16.746  0.00  0.00    -0.276 OA
ENDBRANCH   1   9
BRANCH   4  12
ATOM     12  O   LIG    1       41.387  -1.181  17.400  0.00  0.00    -0.507 OA
ATOM     13  H   LIG    1       40.807  -1.385  18.151  0.00  0.00    +0.292 HD
ENDBRANCH   4  12
TORSDOF 2
ENDMDL
MODEL 6
REMARK VINA RESULT:      -5.8      2.668      5.370
REMARK  Name = 
REMARK                            x       y       z     vdW  Elec       q    Type
REMARK                         _______ _______ _______ _____ _____    ______ ____
ROOT
ATOM      1  C   LIG    1       42.540  -3.167  16.366  0.00  0.00    +0.034 A 
ATOM      2  C   LIG    1       42.884  -2.246  17.357  0.00  0.00    +0.027 A 
ATOM      3  C   LIG    1       44.102  -2.357  18.035  0.00  0.00    +0.047 A 
ATOM      4  C   LIG    1       44.978  -3.387  17.723  0.00  0.00    +0.117 A 
ATOM      5  C   LIG    1       44.662  -4.308  16.732  0.00  0.00    +0.047 A 
ATOM      6  C   LIG    1       43.441  -4.196  16.056  0.00  0.00    +0.027 A 
ENDROOT
BRANCH   1   9
ATOM      7  C   LIG    1       39.459  -2.442  14.324  0.00  0.00    +0.109 C 
ATOM      8  C   LIG    1       40.861  -2.161  14.803  0.00  0.00    +0.214 C 
ATOM      9  N   LIG    1       41.318  -3.146  15.661  0.00  0.00    -0.286 N 
ATOM     10  H   LIG    1       40.710  -3.941  15.802  0.00  0.00    +0.155 HD
ATOM     11  O   LIG    1       41.461  -1.156  14.440  0.00  0.00    -0.276 OA
ENDBRANCH   1   9
BRANCH   4  12
ATOM     12  O   LIG    1       46.146  -3.465  18.420  0.00  0.00    -0.507 OA
ATOM     13  H   LIG    1       45.957  -3.797  19.312  0.00  0.00    +0.292 HD
ENDBRANCH   4  12
TORSDOF 2
ENDMDL
MODEL 7
REMARK VINA RESULT:      -5.8      2.730      3.978
REMARK  Name = 
REMARK                            x       y       z     vdW  Elec       q    Type
REMARK                         _______ _______ _______ _____ _____    ______ ____
ROOT
ATOM      1  C   LIG    1       42.852  -2.690  17.022  0.00  0.00    +0.034 A 
ATOM      2  C   LIG    1       41.626  -2.441  16.402  0.00  0.00    +0.027 A 
ATOM      3  C   LIG    1       40.843  -1.350  16.794  0.00  0.00    +0.047 A 
ATOM      4  C   LIG    1       41.285  -0.507  17.805  0.00  0.00    +0.117 A 
ATOM      5  C   LIG    1       42.508  -0.730  18.427  0.00  0.00    +0.047 A 
ATOM      6  C   LIG    1       43.288  -1.823  18.034  0.00  0.00    +0.027 A 
ENDROOT
BRANCH   1   9
ATOM      7  C   LIG    1       45.108  -5.320  15.544  0.00  0.00    +0.109 C 
ATOM      8  C   LIG    1       44.433  -3.972  15.562  0.00  0.00    +0.214 C 
ATOM      9  N   LIG    1       43.683  -3.787  16.710  0.00  0.00    -0.286 N 
ATOM     10  H   LIG    1       43.732  -4.519  17.405  0.00  0.00    +0.155 HD
ATOM     11  O   LIG    1       44.573  -3.186  14.632  0.00  0.00    -0.276 OA
ENDBRANCH   1   9
BRANCH   4  12
ATOM     12  O   LIG    1       40.483   0.533  18.164  0.00  0.00    -0.507 OA
ATOM     13  H   LIG    1       39.620   0.427  17.733  0.00  0.00    +0.292 HD
ENDBRANCH   4  12
TORSDOF 2
ENDMDL
MODEL 8
REMARK VINA RESULT:      -5.7      3.268      5.760
REMARK  Name = 
REMARK                            x       y       z     vdW  Elec       q    Type
REMARK                         _______ _______ _______ _____ _____    ______ ____
ROOT
ATOM      1  C   LIG    1       43.143  -1.428  17.746  0.00  0.00    +0.034 A 
ATOM      2  C   LIG    1       44.111  -1.056  18.682  0.00  0.00    +0.027 A 
ATOM      3  C   LIG    1       45.195  -1.898  18.951  0.00  0.00    +0.047 A 
ATOM      4  C   LIG    1       45.314  -3.110  18.286  0.00  0.00    +0.117 A 
ATOM      5  C   LIG    1       44.370  -3.495  17.342  0.00  0.00    +0.047 A 
ATOM      6  C   LIG    1       43.284  -2.652  17.075  0.00  0.00    +0.027 A 
ENDROOT
BRANCH   1   9
ATOM      7  C   LIG    1       39.848   0.388  17.551  0.00  0.00    +0.109 C 
ATOM      8  C   LIG    1       40.924  -0.389  18.268  0.00  0.00    +0.214 C 
ATOM      9  N   LIG    1       42.003  -0.654  17.443  0.00  0.00    -0.286 N 
ATOM     10  H   LIG    1       41.975  -0.250  16.516  0.00  0.00    +0.155 HD
ATOM     11  O   LIG    1       40.789  -0.717  19.440  0.00  0.00    -0.276 OA
ENDBRANCH   1   9
BRANCH   4  12
ATOM     12  O   LIG    1       46.378  -3.903  18.592  0.00  0.00    -0.507 OA
ATOM     13  H   LIG    1       46.445  -4.608  17.928  0.00  0.00    +0.292 HD
ENDBRANCH   4  12
TORSDOF 2
ENDMDL
MODEL 9
REMARK VINA RESULT:      -5.5      3.312      5.890
REMARK  Name = 
REMARK                            x       y       z     vdW  Elec       q    Type
REMARK                         _______ _______ _______ _____ _____    ______ ____
ROOT
ATOM      1  C   LIG    1       41.991  -2.425  16.760  0.00  0.00    +0.034 A 
ATOM      2  C   LIG    1       43.146  -3.204  16.670  0.00  0.00    +0.027 A 
ATOM      3  C   LIG    1       44.233  -2.959  17.516  0.00  0.00    +0.047 A 
ATOM      4  C   LIG    1       44.166  -1.937  18.453  0.00  0.00    +0.117 A 
ATOM      5  C   LIG    1       43.022  -1.157  18.567  0.00  0.00    +0.047 A 
ATOM      6  C   LIG    1       41.936  -1.403  17.718  0.00  0.00    +0.027 A 
ENDROOT
BRANCH   1   9
ATOM      7  C   LIG    1       39.300  -2.350  14.125  0.00  0.00    +0.109 C 
ATOM      8  C   LIG    1       40.675  -2.043  14.663  0.00  0.00    +0.214 C 
ATOM      9  N   LIG    1       40.867  -2.584  15.922  0.00  0.00    -0.286 N 
ATOM     10  H   LIG    1       40.120  -3.159  16.287  0.00  0.00    +0.155 HD
ATOM     11  O   LIG    1       41.472  -1.381  14.010  0.00  0.00    -0.276 OA
ENDBRANCH   1   9
BRANCH   4  12
ATOM     12  O   LIG    1       45.254  -1.725  19.244  0.00  0.00    -0.507 OA
ATOM     13  H   LIG    1       44.967  -1.285  20.060  0.00  0.00    +0.292 HD
ENDBRANCH   4  12
TORSDOF 2
ENDMDL
