MODEL 1
REMARK VINA RESULT:      -5.9      0.000      0.000
REMARK  Name = 
REMARK                            x       y       z     vdW  Elec       q    Type
REMARK                         _______ _______ _______ _____ _____    ______ ____
ROOT
ATOM      1  C   LIG    1       28.890  -1.532  27.634  0.00  0.00    +0.034 A 
ATOM      2  C   LIG    1       28.832  -2.922  27.758  0.00  0.00    +0.027 A 
ATOM      3  C   LIG    1       27.610  -3.562  27.989  0.00  0.00    +0.047 A 
ATOM      4  C   LIG    1       26.445  -2.815  28.095  0.00  0.00    +0.117 A 
ATOM      5  C   LIG    1       26.478  -1.432  27.963  0.00  0.00    +0.047 A 
ATOM      6  C   LIG    1       27.702  -0.793  27.733  0.00  0.00    +0.027 A 
ENDROOT
BRANCH   1   9
ATOM      7  C   LIG    1       32.019   0.185  26.430  0.00  0.00    +0.109 C 
ATOM      8  C   LIG    1       30.698  -0.514  26.231  0.00  0.00    +0.214 C 
ATOM      9  N   LIG    1       30.085  -0.808  27.436  0.00  0.00    -0.286 N 
ATOM     10  H   LIG    1       30.542  -0.470  28.271  0.00  0.00    +0.155 HD
ATOM     11  O   LIG    1       30.282  -0.765  25.106  0.00  0.00    -0.276 OA
ENDBRANCH   1   9
BRANCH   4  12
ATOM     12  O   LIG    1       25.281  -3.480  28.335  0.00  0.00    -0.507 OA
ATOM     13  H   LIG    1       25.276  -4.300  27.818  0.00  0.00    +0.292 HD
ENDBRANCH   4  12
TORSDOF 2
ENDMDL
MODEL 2
REMARK VINA RESULT:      -5.7      1.746      1.940
REMARK  Name = 
REMARK                            x       y       z     vdW  Elec       q    Type
REMARK                         _______ _______ _______ _____ _____    ______ ____
ROOT
ATOM      1  C   LIG    1       28.710  -1.175  27.671  0.00  0.00    +0.034 A 
ATOM      2  C   LIG    1       28.102  -2.145  26.871  0.00  0.00    +0.027 A 
ATOM      3  C   LIG    1       26.788  -1.970  26.423  0.00  0.00    +0.047 A 
ATOM      4  C   LIG    1       26.082  -0.828  26.772  0.00  0.00    +0.117 A 
ATOM      5  C   LIG    1       26.672   0.156  27.557  0.00  0.00    +0.047 A 
ATOM      6  C   LIG    1       27.986  -0.021  28.006  0.00  0.00    +0.027 A 
ENDROOT
BRANCH   1   9
ATOM      7  C   LIG    1       32.399  -1.455  28.381  0.00  0.00    +0.109 C 
ATOM      8  C   LIG    1       31.209  -1.153  27.505  0.00  0.00    +0.214 C 
ATOM      9  N   LIG    1       30.016  -1.290  28.192  0.00  0.00    -0.286 N 
ATOM     10  H   LIG    1       30.084  -1.499  29.179  0.00  0.00    +0.155 HD
ATOM     11  O   LIG    1       31.357  -0.836  26.330  0.00  0.00    -0.276 OA
ENDBRANCH   1   9
BRANCH   4  12
ATOM     12  O   LIG    1       24.801  -0.708  26.326  0.00  0.00    -0.507 OA
ATOM     13  H   LIG    1       24.507  -1.567  25.984  0.00  0.00    +0.292 HD
ENDBRANCH   4  12
TORSDOF 2
ENDMDL
MODEL 3
REMARK VINA RESULT:      -5.6      1.691      2.271
REMARK  Name = 
REMARK                            x       y       z     vdW  Elec       q    Type
REMARK                         _______ _______ _______ _____ _____    ______ ____
ROOT
ATOM      1  C   LIG    1       28.958  -0.839  27.527  0.00  0.00    +0.034 A 
ATOM      2  C   LIG    1       28.156   0.247  27.883  0.00  0.00    +0.027 A 
ATOM      3  C   LIG    1       26.807   0.283  27.513  0.00  0.00    +0.047 A 
ATOM      4  C   LIG    1       26.258  -0.767  26.790  0.00  0.00    +0.117 A 
ATOM      5  C   LIG    1       27.035  -1.863  26.435  0.00  0.00    +0.047 A 
ATOM      6  C   LIG    1       28.385  -1.896  26.805  0.00  0.00    +0.027 A 
ENDROOT
BRANCH   1   9
ATOM      7  C   LIG    1       32.722  -0.882  27.665  0.00  0.00    +0.109 C 
ATOM      8  C   LIG    1       31.395  -0.508  27.054  0.00  0.00    +0.214 C 
ATOM      9  N   LIG    1       30.332  -0.935  27.830  0.00  0.00    -0.286 N 
ATOM     10  H   LIG    1       30.562  -1.367  28.715  0.00  0.00    +0.155 HD
ATOM     11  O   LIG    1       31.341   0.098  25.990  0.00  0.00    -0.276 OA
ENDBRANCH   1   9
BRANCH   4  12
ATOM     12  O   LIG    1       24.945  -0.682  26.439  0.00  0.00    -0.507 OA
ATOM     13  H   LIG    1       24.574  -1.577  26.392  0.00  0.00    +0.292 HD
ENDBRANCH   4  12
TORSDOF 2
ENDMDL
MODEL 4
REMARK VINA RESULT:      -5.5      1.483      2.060
REMARK  Name = 
REMARK                            x       y       z     vdW  Elec       q    Type
REMARK                         _______ _______ _______ _____ _____    ______ ____
ROOT
ATOM      1  C   LIG    1       29.685  -0.751  27.332  0.00  0.00    +0.034 A 
ATOM      2  C   LIG    1       28.584  -0.604  26.485  0.00  0.00    +0.027 A 
ATOM      3  C   LIG    1       27.646  -1.634  26.357  0.00  0.00    +0.047 A 
ATOM      4  C   LIG    1       27.806  -2.810  27.076  0.00  0.00    +0.117 A 
ATOM      5  C   LIG    1       28.887  -2.973  27.934  0.00  0.00    +0.047 A 
ATOM      6  C   LIG    1       29.826  -1.942  28.059  0.00  0.00    +0.027 A 
ENDROOT
BRANCH   1   9
ATOM      7  C   LIG    1       32.689   1.519  27.211  0.00  0.00    +0.109 C 
ATOM      8  C   LIG    1       31.767   0.465  26.652  0.00  0.00    +0.214 C 
ATOM      9  N   LIG    1       30.692   0.224  27.490  0.00  0.00    -0.286 N 
ATOM     10  H   LIG    1       30.617   0.811  28.310  0.00  0.00    +0.155 HD
ATOM     11  O   LIG    1       32.007  -0.076  25.579  0.00  0.00    -0.276 OA
ENDBRANCH   1   9
BRANCH   4  12
ATOM     12  O   LIG    1       26.877  -3.791  26.909  0.00  0.00    -0.507 OA
ATOM     13  H   LIG    1       26.562  -4.078  27.781  0.00  0.00    +0.292 HD
ENDBRANCH   4  12
TORSDOF 2
ENDMDL
MODEL 5
REMARK VINA RESULT:      -5.4      3.059      6.614
REMARK  Name = 
REMARK                            x       y       z     vdW  Elec       q    Type
REMARK                         _______ _______ _______ _____ _____    ______ ____
ROOT
ATOM      1  C   LIG    1       31.765   1.326  27.780  0.00  0.00    +0.034 A 
ATOM      2  C   LIG    1       32.353   1.628  26.550  0.00  0.00    +0.027 A 
ATOM      3  C   LIG    1       33.718   1.922  26.472  0.00  0.00    +0.047 A 
ATOM      4  C   LIG    1       34.497   1.913  27.622  0.00  0.00    +0.117 A 
ATOM      5  C   LIG    1       33.934   1.604  28.854  0.00  0.00    +0.047 A 
ATOM      6  C   LIG    1       32.567   1.312  28.930  0.00  0.00    +0.027 A 
ENDROOT
BRANCH   1   9
ATOM      7  C   LIG    1       28.282  -0.075  28.100  0.00  0.00    +0.109 C 
ATOM      8  C   LIG    1       29.784  -0.188  28.028  0.00  0.00    +0.214 C 
ATOM      9  N   LIG    1       30.391   1.053  27.949  0.00  0.00    -0.286 N 
ATOM     10  H   LIG    1       29.784   1.859  28.019  0.00  0.00    +0.155 HD
ATOM     11  O   LIG    1       30.334  -1.283  28.036  0.00  0.00    -0.276 OA
ENDBRANCH   1   9
BRANCH   4  12
ATOM     12  O   LIG    1       35.818   2.221  27.499  0.00  0.00    -0.507 OA
ATOM     13  H   LIG    1       35.991   2.503  26.587  0.00  0.00    +0.292 HD
ENDBRANCH   4  12
TORSDOF 2
ENDMDL
MODEL 6
REMARK VINA RESULT:      -5.4      3.216      6.633
REMARK  Name = 
REMARK                            x       y       z     vdW  Elec       q    Type
REMARK                         _______ _______ _______ _____ _____    ______ ____
ROOT
ATOM      1  C   LIG    1       32.019   0.728  27.727  0.00  0.00    +0.034 A 
ATOM      2  C   LIG    1       32.909   0.586  28.794  0.00  0.00    +0.027 A 
ATOM      3  C   LIG    1       34.194   1.134  28.722  0.00  0.00    +0.047 A 
ATOM      4  C   LIG    1       34.591   1.825  27.586  0.00  0.00    +0.117 A 
ATOM      5  C   LIG    1       33.717   1.989  26.517  0.00  0.00    +0.047 A 
ATOM      6  C   LIG    1       32.433   1.438  26.590  0.00  0.00    +0.027 A 
ENDROOT
BRANCH   1   9
ATOM      7  C   LIG    1       28.377  -0.176  28.058  0.00  0.00    +0.109 C 
ATOM      8  C   LIG    1       29.550   0.769  28.142  0.00  0.00    +0.214 C 
ATOM      9  N   LIG    1       30.721   0.176  27.706  0.00  0.00    -0.286 N 
ATOM     10  H   LIG    1       30.642  -0.759  27.329  0.00  0.00    +0.155 HD
ATOM     11  O   LIG    1       29.408   1.911  28.564  0.00  0.00    -0.276 OA
ENDBRANCH   1   9
BRANCH   4  12
ATOM     12  O   LIG    1       35.856   2.328  27.555  0.00  0.00    -0.507 OA
ATOM     13  H   LIG    1       35.866   3.181  28.017  0.00  0.00    +0.292 HD
ENDBRANCH   4  12
TORSDOF 2
ENDMDL
MODEL 7
REMARK VINA RESULT:      -5.3      1.739      1.889
REMARK  Name = 
REMARK                            x       y       z     vdW  Elec       q    Type
REMARK                         _______ _______ _______ _____ _____    ______ ____
ROOT
ATOM      1  C   LIG    1       29.213  -0.185  26.991  0.00  0.00    +0.034 A 
ATOM      2  C   LIG    1       28.734  -1.397  26.488  0.00  0.00    +0.027 A 
ATOM      3  C   LIG    1       27.358  -1.643  26.426  0.00  0.00    +0.047 A 
ATOM      4  C   LIG    1       26.461  -0.679  26.864  0.00  0.00    +0.117 A 
ATOM      5  C   LIG    1       26.915   0.538  27.357  0.00  0.00    +0.047 A 
ATOM      6  C   LIG    1       28.292   0.781  27.420  0.00  0.00    +0.027 A 
ENDROOT
BRANCH   1   9
ATOM      7  C   LIG    1       32.936   0.314  26.711  0.00  0.00    +0.109 C 
ATOM      8  C   LIG    1       31.573  -0.028  26.165  0.00  0.00    +0.214 C 
ATOM      9  N   LIG    1       30.583   0.126  27.120  0.00  0.00    -0.286 N 
ATOM     10  H   LIG    1       30.870   0.503  28.013  0.00  0.00    +0.155 HD
ATOM     11  O   LIG    1       31.434  -0.397  25.005  0.00  0.00    -0.276 OA
ENDBRANCH   1   9
BRANCH   4  12
ATOM     12  O   LIG    1       25.132  -0.969  26.798  0.00  0.00    -0.507 OA
ATOM     13  H   LIG    1       24.627  -0.195  27.094  0.00  0.00    +0.292 HD
ENDBRANCH   4  12
TORSDOF 2
ENDMDL
MODEL 8
REMARK VINA RESULT:      -5.3      2.533      5.096
REMARK  Name = 
REMARK                            x       y       z     vdW  Elec       q    Type
REMARK                         _______ _______ _______ _____ _____    ______ ____
ROOT
ATOM      1  C   LIG    1       30.685  -1.066  25.891  0.00  0.00    +0.034 A 
ATOM      2  C   LIG    1       31.169  -0.950  24.586  0.00  0.00    +0.027 A 
ATOM      3  C   LIG    1       32.153  -1.826  24.116  0.00  0.00    +0.047 A 
ATOM      4  C   LIG    1       32.653  -2.819  24.948  0.00  0.00    +0.117 A 
ATOM      5  C   LIG    1       32.177  -2.960  26.245  0.00  0.00    +0.047 A 
ATOM      6  C   LIG    1       31.193  -2.081  26.714  0.00  0.00    +0.027 A 
ENDROOT
BRANCH   1   9
ATOM      7  C   LIG    1       27.640   0.773  27.131  0.00  0.00    +0.109 C 
ATOM      8  C   LIG    1       28.362  -0.431  26.579  0.00  0.00    +0.214 C 
ATOM      9  N   LIG    1       29.720  -0.203  26.451  0.00  0.00    -0.286 N 
ATOM     10  H   LIG    1       30.065   0.683  26.797  0.00  0.00    +0.155 HD
ATOM     11  O   LIG    1       27.751  -1.454  26.292  0.00  0.00    -0.276 OA
ENDBRANCH   1   9
BRANCH   4  12
ATOM     12  O   LIG    1       33.621  -3.638  24.452  0.00  0.00    -0.507 OA
ATOM     13  H   LIG    1       33.351  -4.561  24.586  0.00  0.00    +0.292 HD
ENDBRANCH   4  12
TORSDOF 2
ENDMDL
MODEL 9
REMARK VINA RESULT:      -5.1      3.321      5.893
REMARK  Name = 
REMARK                            x       y       z     vdW  Elec       q    Type
REMARK                         _______ _______ _______ _____ _____    ______ ____
ROOT
ATOM      1  C   LIG    1       31.817  -1.022  29.044  0.00  0.00    +0.034 A 
ATOM      2  C   LIG    1       33.062  -1.302  28.475  0.00  0.00    +0.027 A 
ATOM      3  C   LIG    1       34.146  -0.444  28.686  0.00  0.00    +0.047 A 
ATOM      4  C   LIG    1       33.989   0.693  29.467  0.00  0.00    +0.117 A 
ATOM      5  C   LIG    1       32.763   0.985  30.052  0.00  0.00    +0.047 A 
ATOM      6  C   LIG    1       31.678   0.126  29.837  0.00  0.00    +0.027 A 
ENDROOT
BRANCH   1   9
ATOM      7  C   LIG    1       28.728  -2.840  27.886  0.00  0.00    +0.109 C 
ATOM      8  C   LIG    1       29.968  -2.010  27.673  0.00  0.00    +0.214 C 
ATOM      9  N   LIG    1       30.667  -1.816  28.851  0.00  0.00    -0.286 N 
ATOM     10  H   LIG    1       30.317  -2.295  29.669  0.00  0.00    +0.155 HD
ATOM     11  O   LIG    1       30.257  -1.584  26.560  0.00  0.00    -0.276 OA
ENDBRANCH   1   9
BRANCH   4  12
ATOM     12  O   LIG    1       35.068   1.507  29.632  0.00  0.00    -0.507 OA
ATOM     13  H   LIG    1       34.783   2.429  29.533  0.00  0.00    +0.292 HD
ENDBRANCH   4  12
TORSDOF 2
ENDMDL
