MODEL 1
REMARK VINA RESULT:      -6.3      0.000      0.000
REMARK  Name = 
REMARK                            x       y       z     vdW  Elec       q    Type
REMARK                         _______ _______ _______ _____ _____    ______ ____
ROOT
ATOM      1  C   LIG    1       68.781  55.923  87.997  0.00  0.00    +0.034 A 
ATOM      2  C   LIG    1       69.847  55.795  88.890  0.00  0.00    +0.027 A 
ATOM      3  C   LIG    1       70.967  55.031  88.549  0.00  0.00    +0.047 A 
ATOM      4  C   LIG    1       71.025  54.395  87.317  0.00  0.00    +0.117 A 
ATOM      5  C   LIG    1       69.981  54.518  86.408  0.00  0.00    +0.047 A 
ATOM      6  C   LIG    1       68.859  55.283  86.752  0.00  0.00    +0.027 A 
ENDROOT
BRANCH   1   9
ATOM      7  C   LIG    1       65.389  57.231  88.986  0.00  0.00    +0.109 C 
ATOM      8  C   LIG    1       66.499  56.210  88.990  0.00  0.00    +0.214 C 
ATOM      9  N   LIG    1       67.602  56.646  88.277  0.00  0.00    -0.286 N 
ATOM     10  H   LIG    1       67.563  57.589  87.913  0.00  0.00    +0.155 HD
ATOM     11  O   LIG    1       66.367  55.140  89.572  0.00  0.00    -0.276 OA
ENDBRANCH   1   9
BRANCH   4  12
ATOM     12  O   LIG    1       72.128  53.648  87.035  0.00  0.00    -0.507 OA
ATOM     13  H   LIG    1       71.852  52.841  86.573  0.00  0.00    +0.292 HD
ENDBRANCH   4  12
TORSDOF 2
ENDMDL
MODEL 2
REMARK VINA RESULT:      -6.2      1.815      4.862
REMARK  Name = 
REMARK                            x       y       z     vdW  Elec       q    Type
REMARK                         _______ _______ _______ _____ _____    ______ ____
ROOT
ATOM      1  C   LIG    1       68.248  55.047  88.183  0.00  0.00    +0.034 A 
ATOM      2  C   LIG    1       67.452  54.760  89.293  0.00  0.00    +0.027 A 
ATOM      3  C   LIG    1       66.350  55.564  89.601  0.00  0.00    +0.047 A 
ATOM      4  C   LIG    1       66.041  56.655  88.799  0.00  0.00    +0.117 A 
ATOM      5  C   LIG    1       66.813  56.952  87.683  0.00  0.00    +0.047 A 
ATOM      6  C   LIG    1       67.917  56.147  87.378  0.00  0.00    +0.027 A 
ENDROOT
BRANCH   1   9
ATOM      7  C   LIG    1       71.668  53.612  87.522  0.00  0.00    +0.109 C 
ATOM      8  C   LIG    1       70.705  54.561  88.190  0.00  0.00    +0.214 C 
ATOM      9  N   LIG    1       69.395  54.308  87.824  0.00  0.00    -0.286 N 
ATOM     10  H   LIG    1       69.238  53.504  87.232  0.00  0.00    +0.155 HD
ATOM     11  O   LIG    1       71.108  55.433  88.951  0.00  0.00    -0.276 OA
ENDBRANCH   1   9
BRANCH   4  12
ATOM     12  O   LIG    1       64.968  57.418  89.147  0.00  0.00    -0.507 OA
ATOM     13  H   LIG    1       65.268  58.327  89.307  0.00  0.00    +0.292 HD
ENDBRANCH   4  12
TORSDOF 2
ENDMDL
MODEL 3
REMARK VINA RESULT:      -6.1      1.783      4.980
REMARK  Name = 
REMARK                            x       y       z     vdW  Elec       q    Type
REMARK                         _______ _______ _______ _____ _____    ______ ____
ROOT
ATOM      1  C   LIG    1       68.309  55.109  88.077  0.00  0.00    +0.034 A 
ATOM      2  C   LIG    1       67.918  56.210  87.312  0.00  0.00    +0.027 A 
ATOM      3  C   LIG    1       66.786  56.952  87.666  0.00  0.00    +0.047 A 
ATOM      4  C   LIG    1       66.045  56.596  88.784  0.00  0.00    +0.117 A 
ATOM      5  C   LIG    1       66.422  55.511  89.566  0.00  0.00    +0.047 A 
ATOM      6  C   LIG    1       67.554  54.769  89.209  0.00  0.00    +0.027 A 
ENDROOT
BRANCH   1   9
ATOM      7  C   LIG    1       71.648  53.475  87.473  0.00  0.00    +0.109 C 
ATOM      8  C   LIG    1       70.746  54.530  88.060  0.00  0.00    +0.214 C 
ATOM      9  N   LIG    1       69.415  54.289  87.768  0.00  0.00    -0.286 N 
ATOM     10  H   LIG    1       69.207  53.430  87.278  0.00  0.00    +0.155 HD
ATOM     11  O   LIG    1       71.207  55.466  88.702  0.00  0.00    -0.276 OA
ENDBRANCH   1   9
BRANCH   4  12
ATOM     12  O   LIG    1       64.942  57.337  89.081  0.00  0.00    -0.507 OA
ATOM     13  H   LIG    1       64.862  57.408  90.046  0.00  0.00    +0.292 HD
ENDBRANCH   4  12
TORSDOF 2
ENDMDL
MODEL 4
REMARK VINA RESULT:      -6.1      9.925     10.410
REMARK  Name = 
REMARK                            x       y       z     vdW  Elec       q    Type
REMARK                         _______ _______ _______ _____ _____    ______ ____
ROOT
ATOM      1  C   LIG    1       68.583  47.456  94.489  0.00  0.00    +0.034 A 
ATOM      2  C   LIG    1       69.789  47.980  94.020  0.00  0.00    +0.027 A 
ATOM      3  C   LIG    1       69.825  48.725  92.836  0.00  0.00    +0.047 A 
ATOM      4  C   LIG    1       68.656  48.948  92.122  0.00  0.00    +0.117 A 
ATOM      5  C   LIG    1       67.443  48.446  92.576  0.00  0.00    +0.047 A 
ATOM      6  C   LIG    1       67.410  47.699  93.760  0.00  0.00    +0.027 A 
ENDROOT
BRANCH   1   9
ATOM      7  C   LIG    1       68.557  45.910  97.924  0.00  0.00    +0.109 C 
ATOM      8  C   LIG    1       68.667  47.066  96.962  0.00  0.00    +0.214 C 
ATOM      9  N   LIG    1       68.468  46.666  95.652  0.00  0.00    -0.286 N 
ATOM     10  H   LIG    1       68.211  45.699  95.508  0.00  0.00    +0.155 HD
ATOM     11  O   LIG    1       68.912  48.197  97.363  0.00  0.00    -0.276 OA
ENDBRANCH   1   9
BRANCH   4  12
ATOM     12  O   LIG    1       68.742  49.666  90.967  0.00  0.00    -0.507 OA
ATOM     13  H   LIG    1       68.304  49.170  90.257  0.00  0.00    +0.292 HD
ENDBRANCH   4  12
TORSDOF 2
ENDMDL
MODEL 5
REMARK VINA RESULT:      -5.8      9.477      9.882
REMARK  Name = 
REMARK                            x       y       z     vdW  Elec       q    Type
REMARK                         _______ _______ _______ _____ _____    ______ ____
ROOT
ATOM      1  C   LIG    1       68.204  49.130  95.039  0.00  0.00    +0.034 A 
ATOM      2  C   LIG    1       67.365  48.654  94.029  0.00  0.00    +0.027 A 
ATOM      3  C   LIG    1       67.789  48.659  92.696  0.00  0.00    +0.047 A 
ATOM      4  C   LIG    1       69.050  49.138  92.371  0.00  0.00    +0.117 A 
ATOM      5  C   LIG    1       69.906  49.605  93.361  0.00  0.00    +0.047 A 
ATOM      6  C   LIG    1       69.479  49.601  94.694  0.00  0.00    +0.027 A 
ENDROOT
BRANCH   1   9
ATOM      7  C   LIG    1       67.555  48.664  98.720  0.00  0.00    +0.109 C 
ATOM      8  C   LIG    1       68.241  48.342  97.417  0.00  0.00    +0.214 C 
ATOM      9  N   LIG    1       67.840  49.192  96.401  0.00  0.00    -0.286 N 
ATOM     10  H   LIG    1       67.214  49.943  96.659  0.00  0.00    +0.155 HD
ATOM     11  O   LIG    1       69.043  47.419  97.339  0.00  0.00    -0.276 OA
ENDBRANCH   1   9
BRANCH   4  12
ATOM     12  O   LIG    1       69.413  49.137  91.058  0.00  0.00    -0.507 OA
ATOM     13  H   LIG    1       70.331  48.829  90.986  0.00  0.00    +0.292 HD
ENDBRANCH   4  12
TORSDOF 2
ENDMDL
MODEL 6
REMARK VINA RESULT:      -5.8     10.300     10.790
REMARK  Name = 
REMARK                            x       y       z     vdW  Elec       q    Type
REMARK                         _______ _______ _______ _____ _____    ______ ____
ROOT
ATOM      1  C   LIG    1       68.493  47.302  94.632  0.00  0.00    +0.034 A 
ATOM      2  C   LIG    1       67.341  47.619  93.909  0.00  0.00    +0.027 A 
ATOM      3  C   LIG    1       67.428  48.377  92.737  0.00  0.00    +0.047 A 
ATOM      4  C   LIG    1       68.664  48.817  92.285  0.00  0.00    +0.117 A 
ATOM      5  C   LIG    1       69.824  48.503  92.982  0.00  0.00    +0.047 A 
ATOM      6  C   LIG    1       69.735  47.746  94.156  0.00  0.00    +0.027 A 
ENDROOT
BRANCH   1   9
ATOM      7  C   LIG    1       67.859  45.103  97.624  0.00  0.00    +0.109 C 
ATOM      8  C   LIG    1       67.613  45.567  96.211  0.00  0.00    +0.214 C 
ATOM      9  N   LIG    1       68.488  46.574  95.840  0.00  0.00    -0.286 N 
ATOM     10  H   LIG    1       69.205  46.819  96.510  0.00  0.00    +0.155 HD
ATOM     11  O   LIG    1       66.723  45.071  95.531  0.00  0.00    -0.276 OA
ENDBRANCH   1   9
BRANCH   4  12
ATOM     12  O   LIG    1       68.698  49.565  91.147  0.00  0.00    -0.507 OA
ATOM     13  H   LIG    1       69.466  50.157  91.184  0.00  0.00    +0.292 HD
ENDBRANCH   4  12
TORSDOF 2
ENDMDL
MODEL 7
REMARK VINA RESULT:      -5.7      2.000      5.012
REMARK  Name = 
REMARK                            x       y       z     vdW  Elec       q    Type
REMARK                         _______ _______ _______ _____ _____    ______ ____
ROOT
ATOM      1  C   LIG    1       69.114  54.486  87.288  0.00  0.00    +0.034 A 
ATOM      2  C   LIG    1       68.594  55.207  86.211  0.00  0.00    +0.027 A 
ATOM      3  C   LIG    1       67.541  56.107  86.404  0.00  0.00    +0.047 A 
ATOM      4  C   LIG    1       67.007  56.288  87.673  0.00  0.00    +0.117 A 
ATOM      5  C   LIG    1       67.518  55.590  88.761  0.00  0.00    +0.047 A 
ATOM      6  C   LIG    1       68.571  54.688  88.565  0.00  0.00    +0.027 A 
ENDROOT
BRANCH   1   9
ATOM      7  C   LIG    1       72.311  52.503  87.089  0.00  0.00    +0.109 C 
ATOM      8  C   LIG    1       71.496  53.723  87.435  0.00  0.00    +0.214 C 
ATOM      9  N   LIG    1       70.151  53.536  87.172  0.00  0.00    -0.286 N 
ATOM     10  H   LIG    1       69.875  52.614  86.859  0.00  0.00    +0.155 HD
ATOM     11  O   LIG    1       72.031  54.730  87.885  0.00  0.00    -0.276 OA
ENDBRANCH   1   9
BRANCH   4  12
ATOM     12  O   LIG    1       65.973  57.162  87.810  0.00  0.00    -0.507 OA
ATOM     13  H   LIG    1       65.594  57.064  88.699  0.00  0.00    +0.292 HD
ENDBRANCH   4  12
TORSDOF 2
ENDMDL
MODEL 8
REMARK VINA RESULT:      -5.4      2.297      4.965
REMARK  Name = 
REMARK                            x       y       z     vdW  Elec       q    Type
REMARK                         _______ _______ _______ _____ _____    ______ ____
ROOT
ATOM      1  C   LIG    1       70.646  54.494  88.177  0.00  0.00    +0.034 A 
ATOM      2  C   LIG    1       70.846  55.562  89.054  0.00  0.00    +0.027 A 
ATOM      3  C   LIG    1       69.847  56.525  89.236  0.00  0.00    +0.047 A 
ATOM      4  C   LIG    1       68.649  56.421  88.544  0.00  0.00    +0.117 A 
ATOM      5  C   LIG    1       68.424  55.359  87.675  0.00  0.00    +0.047 A 
ATOM      6  C   LIG    1       69.426  54.398  87.493  0.00  0.00    +0.027 A 
ENDROOT
BRANCH   1   9
ATOM      7  C   LIG    1       72.909  51.798  86.836  0.00  0.00    +0.109 C 
ATOM      8  C   LIG    1       71.872  52.884  86.701  0.00  0.00    +0.214 C 
ATOM      9  N   LIG    1       71.614  53.503  87.911  0.00  0.00    -0.286 N 
ATOM     10  H   LIG    1       72.180  53.214  88.698  0.00  0.00    +0.155 HD
ATOM     11  O   LIG    1       71.357  53.131  85.617  0.00  0.00    -0.276 OA
ENDBRANCH   1   9
BRANCH   4  12
ATOM     12  O   LIG    1       67.712  57.389  88.741  0.00  0.00    -0.507 OA
ATOM     13  H   LIG    1       66.857  57.071  88.411  0.00  0.00    +0.292 HD
ENDBRANCH   4  12
TORSDOF 2
ENDMDL
MODEL 9
REMARK VINA RESULT:      -5.4     10.312     11.144
REMARK  Name = 
REMARK                            x       y       z     vdW  Elec       q    Type
REMARK                         _______ _______ _______ _____ _____    ______ ____
ROOT
ATOM      1  C   LIG    1       68.835  48.644  95.949  0.00  0.00    +0.034 A 
ATOM      2  C   LIG    1       69.302  47.526  96.644  0.00  0.00    +0.027 A 
ATOM      3  C   LIG    1       69.541  47.598  98.020  0.00  0.00    +0.047 A 
ATOM      4  C   LIG    1       69.314  48.785  98.703  0.00  0.00    +0.117 A 
ATOM      5  C   LIG    1       68.839  49.906  98.033  0.00  0.00    +0.047 A 
ATOM      6  C   LIG    1       68.601  49.832  96.656  0.00  0.00    +0.027 A 
ENDROOT
BRANCH   1   9
ATOM      7  C   LIG    1       68.701  49.216  92.228  0.00  0.00    +0.109 C 
ATOM      8  C   LIG    1       69.319  49.356  93.596  0.00  0.00    +0.214 C 
ATOM      9  N   LIG    1       68.603  48.665  94.558  0.00  0.00    -0.286 N 
ATOM     10  H   LIG    1       67.823  48.111  94.230  0.00  0.00    +0.155 HD
ATOM     11  O   LIG    1       70.332  50.025  93.764  0.00  0.00    -0.276 OA
ENDBRANCH   1   9
BRANCH   4  12
ATOM     12  O   LIG    1       69.576  48.812 100.039  0.00  0.00    -0.507 OA
ATOM     13  H   LIG    1       69.755  49.727 100.305  0.00  0.00    +0.292 HD
ENDBRANCH   4  12
TORSDOF 2
ENDMDL
