MODEL 1
REMARK VINA RESULT:      -6.3      0.000      0.000
REMARK  Name = 
REMARK                            x       y       z     vdW  Elec       q    Type
REMARK                         _______ _______ _______ _____ _____    ______ ____
ROOT
ATOM      1  C   LIG    1       37.888  34.765   6.473  0.00  0.00    +0.034 A 
ATOM      2  C   LIG    1       38.223  36.108   6.655  0.00  0.00    +0.027 A 
ATOM      3  C   LIG    1       38.072  37.024   5.609  0.00  0.00    +0.047 A 
ATOM      4  C   LIG    1       37.585  36.599   4.380  0.00  0.00    +0.117 A 
ATOM      5  C   LIG    1       37.235  35.269   4.180  0.00  0.00    +0.047 A 
ATOM      6  C   LIG    1       37.388  34.354   5.228  0.00  0.00    +0.027 A 
ENDROOT
BRANCH   1   9
ATOM      7  C   LIG    1       37.843  32.512   9.492  0.00  0.00    +0.109 C 
ATOM      8  C   LIG    1       37.310  33.629   8.630  0.00  0.00    +0.214 C 
ATOM      9  N   LIG    1       38.043  33.773   7.464  0.00  0.00    -0.286 N 
ATOM     10  H   LIG    1       38.774  33.094   7.302  0.00  0.00    +0.155 HD
ATOM     11  O   LIG    1       36.344  34.293   8.985  0.00  0.00    -0.276 OA
ENDBRANCH   1   9
BRANCH   4  12
ATOM     12  O   LIG    1       37.470  37.523   3.386  0.00  0.00    -0.507 OA
ATOM     13  H   LIG    1       36.616  37.401   2.942  0.00  0.00    +0.292 HD
ENDBRANCH   4  12
TORSDOF 2
ENDMDL
MODEL 2
REMARK VINA RESULT:      -5.9      1.464      2.061
REMARK  Name = 
REMARK                            x       y       z     vdW  Elec       q    Type
REMARK                         _______ _______ _______ _____ _____    ______ ____
ROOT
ATOM      1  C   LIG    1       37.779  34.648   6.456  0.00  0.00    +0.034 A 
ATOM      2  C   LIG    1       37.338  34.350   5.165  0.00  0.00    +0.027 A 
ATOM      3  C   LIG    1       37.314  35.341   4.179  0.00  0.00    +0.047 A 
ATOM      4  C   LIG    1       37.732  36.630   4.480  0.00  0.00    +0.117 A 
ATOM      5  C   LIG    1       38.187  36.945   5.755  0.00  0.00    +0.047 A 
ATOM      6  C   LIG    1       38.208  35.952   6.741  0.00  0.00    +0.027 A 
ENDROOT
BRANCH   1   9
ATOM      7  C   LIG    1       38.326  31.825   8.890  0.00  0.00    +0.109 C 
ATOM      8  C   LIG    1       38.689  32.670   7.695  0.00  0.00    +0.214 C 
ATOM      9  N   LIG    1       37.801  33.716   7.515  0.00  0.00    -0.286 N 
ATOM     10  H   LIG    1       37.085  33.827   8.219  0.00  0.00    +0.155 HD
ATOM     11  O   LIG    1       39.666  32.399   7.006  0.00  0.00    -0.276 OA
ENDBRANCH   1   9
BRANCH   4  12
ATOM     12  O   LIG    1       37.677  37.565   3.492  0.00  0.00    -0.507 OA
ATOM     13  H   LIG    1       36.823  38.025   3.543  0.00  0.00    +0.292 HD
ENDBRANCH   4  12
TORSDOF 2
ENDMDL
MODEL 3
REMARK VINA RESULT:      -5.9      1.820      5.124
REMARK  Name = 
REMARK                            x       y       z     vdW  Elec       q    Type
REMARK                         _______ _______ _______ _____ _____    ______ ____
ROOT
ATOM      1  C   LIG    1       37.879  34.479   7.269  0.00  0.00    +0.034 A 
ATOM      2  C   LIG    1       38.651  33.337   7.048  0.00  0.00    +0.027 A 
ATOM      3  C   LIG    1       38.716  32.328   8.014  0.00  0.00    +0.047 A 
ATOM      4  C   LIG    1       38.008  32.458   9.202  0.00  0.00    +0.117 A 
ATOM      5  C   LIG    1       37.224  33.581   9.438  0.00  0.00    +0.047 A 
ATOM      6  C   LIG    1       37.163  34.590   8.470  0.00  0.00    +0.027 A 
ENDROOT
BRANCH   1   9
ATOM      7  C   LIG    1       37.545  36.847   4.359  0.00  0.00    +0.109 C 
ATOM      8  C   LIG    1       37.416  35.503   5.031  0.00  0.00    +0.214 C 
ATOM      9  N   LIG    1       37.789  35.556   6.362  0.00  0.00    -0.286 N 
ATOM     10  H   LIG    1       38.025  36.467   6.731  0.00  0.00    +0.155 HD
ATOM     11  O   LIG    1       37.027  34.523   4.407  0.00  0.00    -0.276 OA
ENDBRANCH   1   9
BRANCH   4  12
ATOM     12  O   LIG    1       38.114  31.458  10.120  0.00  0.00    -0.507 OA
ATOM     13  H   LIG    1       38.934  31.579  10.624  0.00  0.00    +0.292 HD
ENDBRANCH   4  12
TORSDOF 2
ENDMDL
MODEL 4
REMARK VINA RESULT:      -5.7      2.624      3.774
REMARK  Name = 
REMARK                            x       y       z     vdW  Elec       q    Type
REMARK                         _______ _______ _______ _____ _____    ______ ____
ROOT
ATOM      1  C   LIG    1       38.459  32.230   8.101  0.00  0.00    +0.034 A 
ATOM      2  C   LIG    1       37.564  32.894   8.943  0.00  0.00    +0.027 A 
ATOM      3  C   LIG    1       37.198  34.219   8.682  0.00  0.00    +0.047 A 
ATOM      4  C   LIG    1       37.723  34.879   7.580  0.00  0.00    +0.117 A 
ATOM      5  C   LIG    1       38.605  34.233   6.722  0.00  0.00    +0.047 A 
ATOM      6  C   LIG    1       38.972  32.908   6.987  0.00  0.00    +0.027 A 
ENDROOT
BRANCH   1   9
ATOM      7  C   LIG    1       38.960  28.551   8.738  0.00  0.00    +0.109 C 
ATOM      8  C   LIG    1       38.132  29.763   8.394  0.00  0.00    +0.214 C 
ATOM      9  N   LIG    1       38.905  30.908   8.314  0.00  0.00    -0.286 N 
ATOM     10  H   LIG    1       39.904  30.789   8.420  0.00  0.00    +0.155 HD
ATOM     11  O   LIG    1       36.922  29.672   8.226  0.00  0.00    -0.276 OA
ENDBRANCH   1   9
BRANCH   4  12
ATOM     12  O   LIG    1       37.349  36.173   7.374  0.00  0.00    -0.507 OA
ATOM     13  H   LIG    1       36.896  36.499   8.168  0.00  0.00    +0.292 HD
ENDBRANCH   4  12
TORSDOF 2
ENDMDL
MODEL 5
REMARK VINA RESULT:      -5.6      2.662      3.903
REMARK  Name = 
REMARK                            x       y       z     vdW  Elec       q    Type
REMARK                         _______ _______ _______ _____ _____    ______ ____
ROOT
ATOM      1  C   LIG    1       38.290  32.288   8.600  0.00  0.00    +0.034 A 
ATOM      2  C   LIG    1       38.800  32.755   7.386  0.00  0.00    +0.027 A 
ATOM      3  C   LIG    1       38.483  34.039   6.932  0.00  0.00    +0.047 A 
ATOM      4  C   LIG    1       37.658  34.859   7.689  0.00  0.00    +0.117 A 
ATOM      5  C   LIG    1       37.149  34.419   8.906  0.00  0.00    +0.047 A 
ATOM      6  C   LIG    1       37.466  33.133   9.358  0.00  0.00    +0.027 A 
ENDROOT
BRANCH   1   9
ATOM      7  C   LIG    1       38.294  28.688   9.708  0.00  0.00    +0.109 C 
ATOM      8  C   LIG    1       37.774  29.857   8.909  0.00  0.00    +0.214 C 
ATOM      9  N   LIG    1       38.533  30.996   9.111  0.00  0.00    -0.286 N 
ATOM     10  H   LIG    1       39.355  30.896   9.691  0.00  0.00    +0.155 HD
ATOM     11  O   LIG    1       36.788  29.740   8.192  0.00  0.00    -0.276 OA
ENDBRANCH   1   9
BRANCH   4  12
ATOM     12  O   LIG    1       37.364  36.095   7.200  0.00  0.00    -0.507 OA
ATOM     13  H   LIG    1       37.629  36.762   7.853  0.00  0.00    +0.292 HD
ENDBRANCH   4  12
TORSDOF 2
ENDMDL
MODEL 6
REMARK VINA RESULT:      -5.6      2.874      3.995
REMARK  Name = 
REMARK                            x       y       z     vdW  Elec       q    Type
REMARK                         _______ _______ _______ _____ _____    ______ ____
ROOT
ATOM      1  C   LIG    1       38.486  32.234   7.880  0.00  0.00    +0.034 A 
ATOM      2  C   LIG    1       39.021  33.017   6.855  0.00  0.00    +0.027 A 
ATOM      3  C   LIG    1       38.646  34.357   6.718  0.00  0.00    +0.047 A 
ATOM      4  C   LIG    1       37.738  34.917   7.606  0.00  0.00    +0.117 A 
ATOM      5  C   LIG    1       37.202  34.160   8.640  0.00  0.00    +0.047 A 
ATOM      6  C   LIG    1       37.577  32.818   8.774  0.00  0.00    +0.027 A 
ENDROOT
BRANCH   1   9
ATOM      7  C   LIG    1       39.958  28.807   8.407  0.00  0.00    +0.109 C 
ATOM      8  C   LIG    1       40.004  30.314   8.411  0.00  0.00    +0.214 C 
ATOM      9  N   LIG    1       38.785  30.867   8.064  0.00  0.00    -0.286 N 
ATOM     10  H   LIG    1       38.018  30.223   7.924  0.00  0.00    +0.155 HD
ATOM     11  O   LIG    1       41.037  30.911   8.693  0.00  0.00    -0.276 OA
ENDBRANCH   1   9
BRANCH   4  12
ATOM     12  O   LIG    1       37.391  36.221   7.425  0.00  0.00    -0.507 OA
ATOM     13  H   LIG    1       36.490  36.356   7.761  0.00  0.00    +0.292 HD
ENDBRANCH   4  12
TORSDOF 2
ENDMDL
MODEL 7
REMARK VINA RESULT:      -5.4      8.426     11.715
REMARK  Name = 
REMARK                            x       y       z     vdW  Elec       q    Type
REMARK                         _______ _______ _______ _____ _____    ______ ____
ROOT
ATOM      1  C   LIG    1       40.948  25.855  10.835  0.00  0.00    +0.034 A 
ATOM      2  C   LIG    1       42.324  25.885  10.599  0.00  0.00    +0.027 A 
ATOM      3  C   LIG    1       43.217  25.399  11.559  0.00  0.00    +0.047 A 
ATOM      4  C   LIG    1       42.737  24.881  12.755  0.00  0.00    +0.117 A 
ATOM      5  C   LIG    1       41.371  24.831  13.005  0.00  0.00    +0.047 A 
ATOM      6  C   LIG    1       40.479  25.320  12.043  0.00  0.00    +0.027 A 
ENDROOT
BRANCH   1   9
ATOM      7  C   LIG    1       38.463  27.804   8.781  0.00  0.00    +0.109 C 
ATOM      8  C   LIG    1       39.601  27.674   9.763  0.00  0.00    +0.214 C 
ATOM      9  N   LIG    1       39.984  26.356   9.934  0.00  0.00    -0.286 N 
ATOM     10  H   LIG    1       39.523  25.671   9.351  0.00  0.00    +0.155 HD
ATOM     11  O   LIG    1       40.075  28.662  10.310  0.00  0.00    -0.276 OA
ENDBRANCH   1   9
BRANCH   4  12
ATOM     12  O   LIG    1       43.645  24.434  13.666  0.00  0.00    -0.507 OA
ATOM     13  H   LIG    1       44.142  25.192  14.012  0.00  0.00    +0.292 HD
ENDBRANCH   4  12
TORSDOF 2
ENDMDL
MODEL 8
REMARK VINA RESULT:      -5.3      3.128      4.282
REMARK  Name = 
REMARK                            x       y       z     vdW  Elec       q    Type
REMARK                         _______ _______ _______ _____ _____    ______ ____
ROOT
ATOM      1  C   LIG    1       39.013  32.007   7.556  0.00  0.00    +0.034 A 
ATOM      2  C   LIG    1       38.047  32.287   8.525  0.00  0.00    +0.027 A 
ATOM      3  C   LIG    1       37.452  33.551   8.586  0.00  0.00    +0.047 A 
ATOM      4  C   LIG    1       37.820  34.536   7.680  0.00  0.00    +0.117 A 
ATOM      5  C   LIG    1       38.770  34.276   6.701  0.00  0.00    +0.047 A 
ATOM      6  C   LIG    1       39.366  33.010   6.642  0.00  0.00    +0.027 A 
ENDROOT
BRANCH   1   9
ATOM      7  C   LIG    1       41.250  28.982   7.751  0.00  0.00    +0.109 C 
ATOM      8  C   LIG    1       40.716  30.304   8.243  0.00  0.00    +0.214 C 
ATOM      9  N   LIG    1       39.685  30.771   7.448  0.00  0.00    -0.286 N 
ATOM     10  H   LIG    1       39.375  30.161   6.704  0.00  0.00    +0.155 HD
ATOM     11  O   LIG    1       41.193  30.846   9.234  0.00  0.00    -0.276 OA
ENDBRANCH   1   9
BRANCH   4  12
ATOM     12  O   LIG    1       37.225  35.756   7.788  0.00  0.00    -0.507 OA
ATOM     13  H   LIG    1       37.677  36.379   7.198  0.00  0.00    +0.292 HD
ENDBRANCH   4  12
TORSDOF 2
ENDMDL
MODEL 9
REMARK VINA RESULT:      -5.2      8.326     11.783
REMARK  Name = 
REMARK                            x       y       z     vdW  Elec       q    Type
REMARK                         _______ _______ _______ _____ _____    ______ ____
ROOT
ATOM      1  C   LIG    1       41.080  26.832  12.166  0.00  0.00    +0.034 A 
ATOM      2  C   LIG    1       41.877  26.008  11.367  0.00  0.00    +0.027 A 
ATOM      3  C   LIG    1       42.807  25.141  11.951  0.00  0.00    +0.047 A 
ATOM      4  C   LIG    1       42.940  25.096  13.332  0.00  0.00    +0.117 A 
ATOM      5  C   LIG    1       42.149  25.898  14.146  0.00  0.00    +0.047 A 
ATOM      6  C   LIG    1       41.221  26.766  13.559  0.00  0.00    +0.027 A 
ENDROOT
BRANCH   1   9
ATOM      7  C   LIG    1       39.070  29.788  10.977  0.00  0.00    +0.109 C 
ATOM      8  C   LIG    1       40.338  29.108  11.428  0.00  0.00    +0.214 C 
ATOM      9  N   LIG    1       40.145  27.756  11.655  0.00  0.00    -0.286 N 
ATOM     10  H   LIG    1       39.231  27.386  11.431  0.00  0.00    +0.155 HD
ATOM     11  O   LIG    1       41.379  29.741  11.563  0.00  0.00    -0.276 OA
ENDBRANCH   1   9
BRANCH   4  12
ATOM     12  O   LIG    1       43.869  24.248  13.855  0.00  0.00    -0.507 OA
ATOM     13  H   LIG    1       44.719  24.402  13.413  0.00  0.00    +0.292 HD
ENDBRANCH   4  12
TORSDOF 2
ENDMDL
