MODEL 1
REMARK VINA RESULT:      -5.6      0.000      0.000
REMARK  Name = 
REMARK                            x       y       z     vdW  Elec       q    Type
REMARK                         _______ _______ _______ _____ _____    ______ ____
ROOT
ATOM      1  C   LIG    1        1.537  -2.498  23.111  0.00  0.00    +0.034 A 
ATOM      2  C   LIG    1        1.173  -3.778  23.535  0.00  0.00    +0.027 A 
ATOM      3  C   LIG    1        0.379  -3.947  24.673  0.00  0.00    +0.047 A 
ATOM      4  C   LIG    1       -0.054  -2.839  25.388  0.00  0.00    +0.117 A 
ATOM      5  C   LIG    1        0.286  -1.556  24.977  0.00  0.00    +0.047 A 
ATOM      6  C   LIG    1        1.082  -1.389  23.839  0.00  0.00    +0.027 A 
ENDROOT
BRANCH   1   9
ATOM      7  C   LIG    1        3.145  -1.903  19.757  0.00  0.00    +0.109 C 
ATOM      8  C   LIG    1        1.966  -2.036  20.686  0.00  0.00    +0.214 C 
ATOM      9  N   LIG    1        2.363  -2.243  21.996  0.00  0.00    -0.286 N 
ATOM     10  H   LIG    1        3.357  -2.211  22.178  0.00  0.00    +0.155 HD
ATOM     11  O   LIG    1        0.819  -1.964  20.261  0.00  0.00    -0.276 OA
ENDBRANCH   1   9
BRANCH   4  12
ATOM     12  O   LIG    1       -0.813  -3.053  26.499  0.00  0.00    -0.507 OA
ATOM     13  H   LIG    1       -1.170  -2.204  26.804  0.00  0.00    +0.292 HD
ENDBRANCH   4  12
TORSDOF 2
ENDMDL
MODEL 2
REMARK VINA RESULT:      -5.6      2.993      3.647
REMARK  Name = 
REMARK                            x       y       z     vdW  Elec       q    Type
REMARK                         _______ _______ _______ _____ _____    ______ ____
ROOT
ATOM      1  C   LIG    1        1.159  -0.327  23.097  0.00  0.00    +0.034 A 
ATOM      2  C   LIG    1        0.698  -0.722  24.354  0.00  0.00    +0.027 A 
ATOM      3  C   LIG    1        0.682  -2.075  24.709  0.00  0.00    +0.047 A 
ATOM      4  C   LIG    1        1.127  -3.033  23.809  0.00  0.00    +0.117 A 
ATOM      5  C   LIG    1        1.601  -2.661  22.557  0.00  0.00    +0.047 A 
ATOM      6  C   LIG    1        1.615  -1.307  22.204  0.00  0.00    +0.027 A 
ENDROOT
BRANCH   1   9
ATOM      7  C   LIG    1        1.724   3.328  22.379  0.00  0.00    +0.109 C 
ATOM      8  C   LIG    1        2.103   1.990  22.962  0.00  0.00    +0.214 C 
ATOM      9  N   LIG    1        1.176   1.011  22.650  0.00  0.00    -0.286 N 
ATOM     10  H   LIG    1        0.422   1.282  22.033  0.00  0.00    +0.155 HD
ATOM     11  O   LIG    1        3.123   1.860  23.628  0.00  0.00    -0.276 OA
ENDBRANCH   1   9
BRANCH   4  12
ATOM     12  O   LIG    1        1.078  -4.339  24.192  0.00  0.00    -0.507 OA
ATOM     13  H   LIG    1        1.919  -4.574  24.616  0.00  0.00    +0.292 HD
ENDBRANCH   4  12
TORSDOF 2
ENDMDL
MODEL 3
REMARK VINA RESULT:      -5.5      4.405      6.505
REMARK  Name = 
REMARK                            x       y       z     vdW  Elec       q    Type
REMARK                         _______ _______ _______ _____ _____    ______ ____
ROOT
ATOM      1  C   LIG    1        2.279   1.857  22.483  0.00  0.00    +0.034 A 
ATOM      2  C   LIG    1        1.814   3.172  22.564  0.00  0.00    +0.027 A 
ATOM      3  C   LIG    1        2.283   4.144  21.674  0.00  0.00    +0.047 A 
ATOM      4  C   LIG    1        3.215   3.803  20.703  0.00  0.00    +0.117 A 
ATOM      5  C   LIG    1        3.682   2.499  20.597  0.00  0.00    +0.047 A 
ATOM      6  C   LIG    1        3.212   1.528  21.490  0.00  0.00    +0.027 A 
ENDROOT
BRANCH   1   9
ATOM      7  C   LIG    1        0.928  -1.180  24.255  0.00  0.00    +0.109 C 
ATOM      8  C   LIG    1        1.313  -0.388  23.031  0.00  0.00    +0.214 C 
ATOM      9  N   LIG    1        1.883   0.828  23.363  0.00  0.00    -0.286 N 
ATOM     10  H   LIG    1        2.034   1.003  24.348  0.00  0.00    +0.155 HD
ATOM     11  O   LIG    1        1.109  -0.829  21.906  0.00  0.00    -0.276 OA
ENDBRANCH   1   9
BRANCH   4  12
ATOM     12  O   LIG    1        3.654   4.786  19.869  0.00  0.00    -0.507 OA
ATOM     13  H   LIG    1        3.501   5.647  20.289  0.00  0.00    +0.292 HD
ENDBRANCH   4  12
TORSDOF 2
ENDMDL
MODEL 4
REMARK VINA RESULT:      -5.5      2.544      5.349
REMARK  Name = 
REMARK                            x       y       z     vdW  Elec       q    Type
REMARK                         _______ _______ _______ _____ _____    ______ ____
ROOT
ATOM      1  C   LIG    1        1.357  -0.382  23.220  0.00  0.00    +0.034 A 
ATOM      2  C   LIG    1        1.980   0.864  23.316  0.00  0.00    +0.027 A 
ATOM      3  C   LIG    1        2.921   1.260  22.359  0.00  0.00    +0.047 A 
ATOM      4  C   LIG    1        3.239   0.413  21.306  0.00  0.00    +0.117 A 
ATOM      5  C   LIG    1        2.622  -0.826  21.186  0.00  0.00    +0.047 A 
ATOM      6  C   LIG    1        1.682  -1.221  22.145  0.00  0.00    +0.027 A 
ENDROOT
BRANCH   1   9
ATOM      7  C   LIG    1       -0.640  -2.181  25.859  0.00  0.00    +0.109 C 
ATOM      8  C   LIG    1        0.626  -1.859  25.107  0.00  0.00    +0.214 C 
ATOM      9  N   LIG    1        0.425  -0.870  24.161  0.00  0.00    -0.286 N 
ATOM     10  H   LIG    1       -0.493  -0.446  24.136  0.00  0.00    +0.155 HD
ATOM     11  O   LIG    1        1.672  -2.449  25.353  0.00  0.00    -0.276 OA
ENDBRANCH   1   9
BRANCH   4  12
ATOM     12  O   LIG    1        4.171   0.834  20.408  0.00  0.00    -0.507 OA
ATOM     13  H   LIG    1        3.784   1.534  19.859  0.00  0.00    +0.292 HD
ENDBRANCH   4  12
TORSDOF 2
ENDMDL
MODEL 5
REMARK VINA RESULT:      -5.3      4.898      5.898
REMARK  Name = 
REMARK                            x       y       z     vdW  Elec       q    Type
REMARK                         _______ _______ _______ _____ _____    ______ ____
ROOT
ATOM      1  C   LIG    1        3.568   1.950  21.005  0.00  0.00    +0.034 A 
ATOM      2  C   LIG    1        3.490   1.668  22.371  0.00  0.00    +0.027 A 
ATOM      3  C   LIG    1        3.155   2.674  23.283  0.00  0.00    +0.047 A 
ATOM      4  C   LIG    1        2.898   3.962  22.833  0.00  0.00    +0.117 A 
ATOM      5  C   LIG    1        2.958   4.261  21.477  0.00  0.00    +0.047 A 
ATOM      6  C   LIG    1        3.295   3.254  20.566  0.00  0.00    +0.027 A 
ENDROOT
BRANCH   1   9
ATOM      7  C   LIG    1        4.163  -1.034  18.785  0.00  0.00    +0.109 C 
ATOM      8  C   LIG    1        3.454  -0.289  19.888  0.00  0.00    +0.214 C 
ATOM      9  N   LIG    1        3.933   1.002  20.026  0.00  0.00    -0.286 N 
ATOM     10  H   LIG    1        4.622   1.304  19.351  0.00  0.00    +0.155 HD
ATOM     11  O   LIG    1        2.573  -0.828  20.547  0.00  0.00    -0.276 OA
ENDBRANCH   1   9
BRANCH   4  12
ATOM     12  O   LIG    1        2.591   4.912  23.759  0.00  0.00    -0.507 OA
ATOM     13  H   LIG    1        2.209   5.680  23.306  0.00  0.00    +0.292 HD
ENDBRANCH   4  12
TORSDOF 2
ENDMDL
MODEL 6
REMARK VINA RESULT:      -5.1      4.966      5.887
REMARK  Name = 
REMARK                            x       y       z     vdW  Elec       q    Type
REMARK                         _______ _______ _______ _____ _____    ______ ____
ROOT
ATOM      1  C   LIG    1        3.257   1.541  21.147  0.00  0.00    +0.034 A 
ATOM      2  C   LIG    1        3.464   2.849  20.702  0.00  0.00    +0.027 A 
ATOM      3  C   LIG    1        3.311   3.928  21.580  0.00  0.00    +0.047 A 
ATOM      4  C   LIG    1        2.953   3.701  22.901  0.00  0.00    +0.117 A 
ATOM      5  C   LIG    1        2.753   2.408  23.368  0.00  0.00    +0.047 A 
ATOM      6  C   LIG    1        2.905   1.330  22.488  0.00  0.00    +0.027 A 
ENDROOT
BRANCH   1   9
ATOM      7  C   LIG    1        4.182  -1.546  19.197  0.00  0.00    +0.109 C 
ATOM      8  C   LIG    1        4.377  -0.531  20.295  0.00  0.00    +0.214 C 
ATOM      9  N   LIG    1        3.357   0.404  20.319  0.00  0.00    -0.286 N 
ATOM     10  H   LIG    1        2.594   0.259  19.671  0.00  0.00    +0.155 HD
ATOM     11  O   LIG    1        5.351  -0.585  21.036  0.00  0.00    -0.276 OA
ENDBRANCH   1   9
BRANCH   4  12
ATOM     12  O   LIG    1        2.800   4.783  23.715  0.00  0.00    -0.507 OA
ATOM     13  H   LIG    1        2.349   5.486  23.221  0.00  0.00    +0.292 HD
ENDBRANCH   4  12
TORSDOF 2
ENDMDL
MODEL 7
REMARK VINA RESULT:      -5.1      1.351      1.999
REMARK  Name = 
REMARK                            x       y       z     vdW  Elec       q    Type
REMARK                         _______ _______ _______ _____ _____    ______ ____
ROOT
ATOM      1  C   LIG    1        1.500  -1.804  22.510  0.00  0.00    +0.034 A 
ATOM      2  C   LIG    1        1.148  -0.851  23.468  0.00  0.00    +0.027 A 
ATOM      3  C   LIG    1        0.722  -1.249  24.739  0.00  0.00    +0.047 A 
ATOM      4  C   LIG    1        0.648  -2.599  25.055  0.00  0.00    +0.117 A 
ATOM      5  C   LIG    1        1.005  -3.564  24.121  0.00  0.00    +0.047 A 
ATOM      6  C   LIG    1        1.429  -3.163  22.849  0.00  0.00    +0.027 A 
ENDROOT
BRANCH   1   9
ATOM      7  C   LIG    1        3.236  -1.095  19.243  0.00  0.00    +0.109 C 
ATOM      8  C   LIG    1        3.163  -1.651  20.643  0.00  0.00    +0.214 C 
ATOM      9  N   LIG    1        1.905  -1.487  21.196  0.00  0.00    -0.286 N 
ATOM     10  H   LIG    1        1.193  -1.094  20.595  0.00  0.00    +0.155 HD
ATOM     11  O   LIG    1        4.142  -2.167  21.167  0.00  0.00    -0.276 OA
ENDBRANCH   1   9
BRANCH   4  12
ATOM     12  O   LIG    1        0.213  -2.939  26.300  0.00  0.00    -0.507 OA
ATOM     13  H   LIG    1       -0.755  -2.873  26.323  0.00  0.00    +0.292 HD
ENDBRANCH   4  12
TORSDOF 2
ENDMDL
MODEL 8
REMARK VINA RESULT:      -5.1      9.849     10.118
REMARK  Name = 
REMARK                            x       y       z     vdW  Elec       q    Type
REMARK                         _______ _______ _______ _____ _____    ______ ____
ROOT
ATOM      1  C   LIG    1       10.758  -3.815  25.778  0.00  0.00    +0.034 A 
ATOM      2  C   LIG    1       10.506  -4.172  27.105  0.00  0.00    +0.027 A 
ATOM      3  C   LIG    1        9.194  -4.361  27.551  0.00  0.00    +0.047 A 
ATOM      4  C   LIG    1        8.132  -4.195  26.672  0.00  0.00    +0.117 A 
ATOM      5  C   LIG    1        8.360  -3.852  25.345  0.00  0.00    +0.047 A 
ATOM      6  C   LIG    1        9.674  -3.662  24.901  0.00  0.00    +0.027 A 
ENDROOT
BRANCH   1   9
ATOM      7  C   LIG    1       14.100  -2.507  24.635  0.00  0.00    +0.109 C 
ATOM      8  C   LIG    1       12.823  -2.440  25.435  0.00  0.00    +0.214 C 
ATOM      9  N   LIG    1       12.047  -3.572  25.260  0.00  0.00    -0.286 N 
ATOM     10  H   LIG    1       12.445  -4.311  24.696  0.00  0.00    +0.155 HD
ATOM     11  O   LIG    1       12.567  -1.465  26.131  0.00  0.00    -0.276 OA
ENDBRANCH   1   9
BRANCH   4  12
ATOM     12  O   LIG    1        6.871  -4.374  27.154  0.00  0.00    -0.507 OA
ATOM     13  H   LIG    1        6.724  -5.322  27.302  0.00  0.00    +0.292 HD
ENDBRANCH   4  12
TORSDOF 2
ENDMDL
MODEL 9
REMARK VINA RESULT:      -5.0      5.491      6.533
REMARK  Name = 
REMARK                            x       y       z     vdW  Elec       q    Type
REMARK                         _______ _______ _______ _____ _____    ______ ____
ROOT
ATOM      1  C   LIG    1        4.592  -0.637  20.069  0.00  0.00    +0.034 A 
ATOM      2  C   LIG    1        4.699  -0.120  18.777  0.00  0.00    +0.027 A 
ATOM      3  C   LIG    1        4.201   1.153  18.480  0.00  0.00    +0.047 A 
ATOM      4  C   LIG    1        3.596   1.910  19.474  0.00  0.00    +0.117 A 
ATOM      5  C   LIG    1        3.490   1.420  20.770  0.00  0.00    +0.047 A 
ATOM      6  C   LIG    1        3.987   0.145  21.064  0.00  0.00    +0.027 A 
ENDROOT
BRANCH   1   9
ATOM      7  C   LIG    1        6.409  -3.755  21.150  0.00  0.00    +0.109 C 
ATOM      8  C   LIG    1        6.261  -2.263  20.987  0.00  0.00    +0.214 C 
ATOM      9  N   LIG    1        5.036  -1.924  20.441  0.00  0.00    -0.286 N 
ATOM     10  H   LIG    1        4.383  -2.680  20.289  0.00  0.00    +0.155 HD
ATOM     11  O   LIG    1        7.164  -1.502  21.316  0.00  0.00    -0.276 OA
ENDBRANCH   1   9
BRANCH   4  12
ATOM     12  O   LIG    1        3.112   3.137  19.135  0.00  0.00    -0.507 OA
ATOM     13  H   LIG    1        3.207   3.258  18.177  0.00  0.00    +0.292 HD
ENDBRANCH   4  12
TORSDOF 2
ENDMDL
