MODEL 1
REMARK VINA RESULT:      -5.7      0.000      0.000
REMARK  Name = 
REMARK                            x       y       z     vdW  Elec       q    Type
REMARK                         _______ _______ _______ _____ _____    ______ ____
ROOT
ATOM      1  C   LIG    1       18.166   4.562  24.105  0.00  0.00    +0.034 A 
ATOM      2  C   LIG    1       18.573   5.041  22.858  0.00  0.00    +0.027 A 
ATOM      3  C   LIG    1       19.007   4.155  21.866  0.00  0.00    +0.047 A 
ATOM      4  C   LIG    1       19.033   2.790  22.119  0.00  0.00    +0.117 A 
ATOM      5  C   LIG    1       18.621   2.291  23.349  0.00  0.00    +0.047 A 
ATOM      6  C   LIG    1       18.189   3.180  24.340  0.00  0.00    +0.027 A 
ENDROOT
BRANCH   1   9
ATOM      7  C   LIG    1       17.736   6.756  27.137  0.00  0.00    +0.109 C 
ATOM      8  C   LIG    1       18.551   6.055  26.079  0.00  0.00    +0.214 C 
ATOM      9  N   LIG    1       17.749   5.390  25.168  0.00  0.00    -0.286 N 
ATOM     10  H   LIG    1       16.750   5.508  25.273  0.00  0.00    +0.155 HD
ATOM     11  O   LIG    1       19.775   6.106  26.092  0.00  0.00    -0.276 OA
ENDBRANCH   1   9
BRANCH   4  12
ATOM     12  O   LIG    1       19.477   1.967  21.129  0.00  0.00    -0.507 OA
ATOM     13  H   LIG    1       19.859   1.171  21.531  0.00  0.00    +0.292 HD
ENDBRANCH   4  12
TORSDOF 2
ENDMDL
MODEL 2
REMARK VINA RESULT:      -5.5     10.952     13.130
REMARK  Name = 
REMARK                            x       y       z     vdW  Elec       q    Type
REMARK                         _______ _______ _______ _____ _____    ______ ____
ROOT
ATOM      1  C   LIG    1       11.401   2.026  33.480  0.00  0.00    +0.034 A 
ATOM      2  C   LIG    1       10.182   1.522  33.937  0.00  0.00    +0.027 A 
ATOM      3  C   LIG    1        9.916   1.447  35.308  0.00  0.00    +0.047 A 
ATOM      4  C   LIG    1       10.866   1.877  36.224  0.00  0.00    +0.117 A 
ATOM      5  C   LIG    1       12.082   2.393  35.791  0.00  0.00    +0.047 A 
ATOM      6  C   LIG    1       12.347   2.465  34.418  0.00  0.00    +0.027 A 
ENDROOT
BRANCH   1   9
ATOM      7  C   LIG    1       12.126   2.898  29.888  0.00  0.00    +0.109 C 
ATOM      8  C   LIG    1       11.798   3.233  31.321  0.00  0.00    +0.214 C 
ATOM      9  N   LIG    1       11.760   2.102  32.118  0.00  0.00    -0.286 N 
ATOM     10  H   LIG    1       12.017   1.229  31.677  0.00  0.00    +0.155 HD
ATOM     11  O   LIG    1       11.596   4.391  31.667  0.00  0.00    -0.276 OA
ENDBRANCH   1   9
BRANCH   4  12
ATOM     12  O   LIG    1       10.570   1.771  37.549  0.00  0.00    -0.507 OA
ATOM     13  H   LIG    1        9.618   1.607  37.645  0.00  0.00    +0.292 HD
ENDBRANCH   4  12
TORSDOF 2
ENDMDL
MODEL 3
REMARK VINA RESULT:      -5.5     10.898     13.048
REMARK  Name = 
REMARK                            x       y       z     vdW  Elec       q    Type
REMARK                         _______ _______ _______ _____ _____    ______ ____
ROOT
ATOM      1  C   LIG    1       11.493   2.041  33.424  0.00  0.00    +0.034 A 
ATOM      2  C   LIG    1       12.397   2.488  34.390  0.00  0.00    +0.027 A 
ATOM      3  C   LIG    1       12.076   2.413  35.749  0.00  0.00    +0.047 A 
ATOM      4  C   LIG    1       10.852   1.890  36.145  0.00  0.00    +0.117 A 
ATOM      5  C   LIG    1        9.943   1.429  35.201  0.00  0.00    +0.047 A 
ATOM      6  C   LIG    1       10.266   1.506  33.841  0.00  0.00    +0.027 A 
ENDROOT
BRANCH   1   9
ATOM      7  C   LIG    1       11.921   2.914  29.785  0.00  0.00    +0.109 C 
ATOM      8  C   LIG    1       11.748   3.249  31.245  0.00  0.00    +0.214 C 
ATOM      9  N   LIG    1       11.726   2.113  32.034  0.00  0.00    -0.286 N 
ATOM     10  H   LIG    1       11.894   1.233  31.566  0.00  0.00    +0.155 HD
ATOM     11  O   LIG    1       11.638   4.412  31.615  0.00  0.00    -0.276 OA
ENDBRANCH   1   9
BRANCH   4  12
ATOM     12  O   LIG    1       10.577   1.852  37.478  0.00  0.00    -0.507 OA
ATOM     13  H   LIG    1        9.836   2.451  37.663  0.00  0.00    +0.292 HD
ENDBRANCH   4  12
TORSDOF 2
ENDMDL
MODEL 4
REMARK VINA RESULT:      -5.4     10.677     12.121
REMARK  Name = 
REMARK                            x       y       z     vdW  Elec       q    Type
REMARK                         _______ _______ _______ _____ _____    ______ ____
ROOT
ATOM      1  C   LIG    1       10.718   2.281  33.341  0.00  0.00    +0.034 A 
ATOM      2  C   LIG    1       11.168   3.502  32.833  0.00  0.00    +0.027 A 
ATOM      3  C   LIG    1       11.533   3.618  31.488  0.00  0.00    +0.047 A 
ATOM      4  C   LIG    1       11.446   2.516  30.648  0.00  0.00    +0.117 A 
ATOM      5  C   LIG    1       10.989   1.295  31.129  0.00  0.00    +0.047 A 
ATOM      6  C   LIG    1       10.627   1.181  32.476  0.00  0.00    +0.027 A 
ENDROOT
BRANCH   1   9
ATOM      7  C   LIG    1       10.477   1.673  37.050  0.00  0.00    +0.109 C 
ATOM      8  C   LIG    1       11.214   2.024  35.782  0.00  0.00    +0.214 C 
ATOM      9  N   LIG    1       10.365   2.073  34.690  0.00  0.00    -0.286 N 
ATOM     10  H   LIG    1        9.380   1.943  34.877  0.00  0.00    +0.155 HD
ATOM     11  O   LIG    1       12.423   2.223  35.792  0.00  0.00    -0.276 OA
ENDBRANCH   1   9
BRANCH   4  12
ATOM     12  O   LIG    1       11.826   2.672  29.350  0.00  0.00    -0.507 OA
ATOM     13  H   LIG    1       11.743   3.608  29.109  0.00  0.00    +0.292 HD
ENDBRANCH   4  12
TORSDOF 2
ENDMDL
MODEL 5
REMARK VINA RESULT:      -5.2     10.286     12.428
REMARK  Name = 
REMARK                            x       y       z     vdW  Elec       q    Type
REMARK                         _______ _______ _______ _____ _____    ______ ____
ROOT
ATOM      1  C   LIG    1       11.234   2.857  32.617  0.00  0.00    +0.034 A 
ATOM      2  C   LIG    1       10.197   2.101  33.166  0.00  0.00    +0.027 A 
ATOM      3  C   LIG    1       10.252   1.688  34.501  0.00  0.00    +0.047 A 
ATOM      4  C   LIG    1       11.342   2.030  35.289  0.00  0.00    +0.117 A 
ATOM      5  C   LIG    1       12.380   2.793  34.767  0.00  0.00    +0.047 A 
ATOM      6  C   LIG    1       12.323   3.204  33.430  0.00  0.00    +0.027 A 
ENDROOT
BRANCH   1   9
ATOM      7  C   LIG    1       11.542   3.329  28.893  0.00  0.00    +0.109 C 
ATOM      8  C   LIG    1       11.453   2.498  30.148  0.00  0.00    +0.214 C 
ATOM      9  N   LIG    1       11.271   3.283  31.273  0.00  0.00    -0.286 N 
ATOM     10  H   LIG    1       11.152   4.275  31.118  0.00  0.00    +0.155 HD
ATOM     11  O   LIG    1       11.546   1.277  30.102  0.00  0.00    -0.276 OA
ENDBRANCH   1   9
BRANCH   4  12
ATOM     12  O   LIG    1       11.360   1.593  36.579  0.00  0.00    -0.507 OA
ATOM     13  H   LIG    1       12.281   1.467  36.855  0.00  0.00    +0.292 HD
ENDBRANCH   4  12
TORSDOF 2
ENDMDL
MODEL 6
REMARK VINA RESULT:      -5.2     12.379     13.121
REMARK  Name = 
REMARK                            x       y       z     vdW  Elec       q    Type
REMARK                         _______ _______ _______ _____ _____    ______ ____
ROOT
ATOM      1  C   LIG    1        6.560   5.965  26.995  0.00  0.00    +0.034 A 
ATOM      2  C   LIG    1        5.648   5.384  27.878  0.00  0.00    +0.027 A 
ATOM      3  C   LIG    1        5.295   4.036  27.746  0.00  0.00    +0.047 A 
ATOM      4  C   LIG    1        5.854   3.269  26.734  0.00  0.00    +0.117 A 
ATOM      5  C   LIG    1        6.773   3.824  25.851  0.00  0.00    +0.047 A 
ATOM      6  C   LIG    1        7.123   5.172  25.984  0.00  0.00    +0.027 A 
ENDROOT
BRANCH   1   9
ATOM      7  C   LIG    1        6.904   9.703  27.303  0.00  0.00    +0.109 C 
ATOM      8  C   LIG    1        6.205   8.386  27.527  0.00  0.00    +0.214 C 
ATOM      9  N   LIG    1        6.941   7.322  27.038  0.00  0.00    -0.286 N 
ATOM     10  H   LIG    1        7.857   7.538  26.667  0.00  0.00    +0.155 HD
ATOM     11  O   LIG    1        5.112   8.341  28.079  0.00  0.00    -0.276 OA
ENDBRANCH   1   9
BRANCH   4  12
ATOM     12  O   LIG    1        5.469   1.966  26.635  0.00  0.00    -0.507 OA
ATOM     13  H   LIG    1        5.515   1.558  27.514  0.00  0.00    +0.292 HD
ENDBRANCH   4  12
TORSDOF 2
ENDMDL
MODEL 7
REMARK VINA RESULT:      -5.1     10.906     11.806
REMARK  Name = 
REMARK                            x       y       z     vdW  Elec       q    Type
REMARK                         _______ _______ _______ _____ _____    ______ ____
ROOT
ATOM      1  C   LIG    1       10.010   1.082  31.655  0.00  0.00    +0.034 A 
ATOM      2  C   LIG    1        8.788   0.844  31.022  0.00  0.00    +0.027 A 
ATOM      3  C   LIG    1        8.690   0.902  29.628  0.00  0.00    +0.047 A 
ATOM      4  C   LIG    1        9.811   1.197  28.865  0.00  0.00    +0.117 A 
ATOM      5  C   LIG    1       11.040   1.426  29.473  0.00  0.00    +0.047 A 
ATOM      6  C   LIG    1       11.135   1.369  30.869  0.00  0.00    +0.027 A 
ENDROOT
BRANCH   1   9
ATOM      7  C   LIG    1       10.604   1.763  35.312  0.00  0.00    +0.109 C 
ATOM      8  C   LIG    1       10.329   2.173  33.887  0.00  0.00    +0.214 C 
ATOM      9  N   LIG    1       10.185   1.077  33.055  0.00  0.00    -0.286 N 
ATOM     10  H   LIG    1       10.208   0.167  33.496  0.00  0.00    +0.155 HD
ATOM     11  O   LIG    1       10.261   3.356  33.575  0.00  0.00    -0.276 OA
ENDBRANCH   1   9
BRANCH   4  12
ATOM     12  O   LIG    1        9.665   1.258  27.513  0.00  0.00    -0.507 OA
ATOM     13  H   LIG    1       10.181   2.007  27.174  0.00  0.00    +0.292 HD
ENDBRANCH   4  12
TORSDOF 2
ENDMDL
MODEL 8
REMARK VINA RESULT:      -5.1      2.326      5.133
REMARK  Name = 
REMARK                            x       y       z     vdW  Elec       q    Type
REMARK                         _______ _______ _______ _____ _____    ______ ____
ROOT
ATOM      1  C   LIG    1       18.426   5.347  25.845  0.00  0.00    +0.034 A 
ATOM      2  C   LIG    1       18.179   6.511  26.575  0.00  0.00    +0.027 A 
ATOM      3  C   LIG    1       17.762   6.435  27.908  0.00  0.00    +0.047 A 
ATOM      4  C   LIG    1       17.594   5.197  28.513  0.00  0.00    +0.117 A 
ATOM      5  C   LIG    1       17.846   4.026  27.809  0.00  0.00    +0.047 A 
ATOM      6  C   LIG    1       18.261   4.104  26.474  0.00  0.00    +0.027 A 
ENDROOT
BRANCH   1   9
ATOM      7  C   LIG    1       18.890   4.910  22.132  0.00  0.00    +0.109 C 
ATOM      8  C   LIG    1       18.098   4.841  23.413  0.00  0.00    +0.214 C 
ATOM      9  N   LIG    1       18.815   5.336  24.489  0.00  0.00    -0.286 N 
ATOM     10  H   LIG    1       19.721   5.736  24.284  0.00  0.00    +0.155 HD
ATOM     11  O   LIG    1       16.962   4.383  23.427  0.00  0.00    -0.276 OA
ENDBRANCH   1   9
BRANCH   4  12
ATOM     12  O   LIG    1       17.172   5.172  29.807  0.00  0.00    -0.507 OA
ATOM     13  H   LIG    1       17.454   4.338  30.214  0.00  0.00    +0.292 HD
ENDBRANCH   4  12
TORSDOF 2
ENDMDL
MODEL 9
REMARK VINA RESULT:      -5.1      2.084      2.511
REMARK  Name = 
REMARK                            x       y       z     vdW  Elec       q    Type
REMARK                         _______ _______ _______ _____ _____    ______ ____
ROOT
ATOM      1  C   LIG    1       17.494   4.268  26.271  0.00  0.00    +0.034 A 
ATOM      2  C   LIG    1       18.667   3.780  25.689  0.00  0.00    +0.027 A 
ATOM      3  C   LIG    1       18.620   3.089  24.474  0.00  0.00    +0.047 A 
ATOM      4  C   LIG    1       17.403   2.886  23.838  0.00  0.00    +0.117 A 
ATOM      5  C   LIG    1       16.226   3.373  24.392  0.00  0.00    +0.047 A 
ATOM      6  C   LIG    1       16.275   4.063  25.610  0.00  0.00    +0.027 A 
ENDROOT
BRANCH   1   9
ATOM      7  C   LIG    1       17.584   6.636  29.199  0.00  0.00    +0.109 C 
ATOM      8  C   LIG    1       17.572   6.303  27.728  0.00  0.00    +0.214 C 
ATOM      9  N   LIG    1       17.452   4.942  27.509  0.00  0.00    -0.286 N 
ATOM     10  H   LIG    1       17.320   4.362  28.326  0.00  0.00    +0.155 HD
ATOM     11  O   LIG    1       17.667   7.186  26.883  0.00  0.00    -0.276 OA
ENDBRANCH   1   9
BRANCH   4  12
ATOM     12  O   LIG    1       17.404   2.195  22.665  0.00  0.00    -0.507 OA
ATOM     13  H   LIG    1       16.970   2.732  21.983  0.00  0.00    +0.292 HD
ENDBRANCH   4  12
TORSDOF 2
ENDMDL
