MODEL 1
REMARK VINA RESULT:      -2.2      0.000      0.000
REMARK  Name = 
REMARK                            x       y       z     vdW  Elec       q    Type
REMARK                         _______ _______ _______ _____ _____    ______ ____
ROOT
ATOM      1  C   LIG    1       17.544   2.969  51.720  0.00  0.00    +0.034 A 
ATOM      2  C   LIG    1       18.520   3.001  50.721  0.00  0.00    +0.027 A 
ATOM      3  C   LIG    1       18.894   4.215  50.136  0.00  0.00    +0.047 A 
ATOM      4  C   LIG    1       18.295   5.398  50.547  0.00  0.00    +0.117 A 
ATOM      5  C   LIG    1       17.330   5.390  51.547  0.00  0.00    +0.047 A 
ATOM      6  C   LIG    1       16.956   4.174  52.131  0.00  0.00    +0.027 A 
ENDROOT
BRANCH   1   9
ATOM      7  C   LIG    1       15.687  -0.000  53.107  0.00  0.00    +0.109 C 
ATOM      8  C   LIG    1       15.837   1.202  52.210  0.00  0.00    +0.214 C 
ATOM      9  N   LIG    1       17.086   1.785  52.335  0.00  0.00    -0.286 N 
ATOM     10  H   LIG    1       17.748   1.313  52.936  0.00  0.00    +0.155 HD
ATOM     11  O   LIG    1       14.918   1.566  51.486  0.00  0.00    -0.276 OA
ENDBRANCH   1   9
BRANCH   4  12
ATOM     12  O   LIG    1       18.679   6.553  49.938  0.00  0.00    -0.507 OA
ATOM     13  H   LIG    1       18.390   7.305  50.479  0.00  0.00    +0.292 HD
ENDBRANCH   4  12
TORSDOF 2
ENDMDL
MODEL 2
REMARK VINA RESULT:      -2.2      3.227      5.003
REMARK  Name = 
REMARK                            x       y       z     vdW  Elec       q    Type
REMARK                         _______ _______ _______ _____ _____    ______ ____
ROOT
ATOM      1  C   LIG    1       14.392   3.106  52.985  0.00  0.00    +0.034 A 
ATOM      2  C   LIG    1       15.744   2.796  52.819  0.00  0.00    +0.027 A 
ATOM      3  C   LIG    1       16.134   1.780  51.940  0.00  0.00    +0.047 A 
ATOM      4  C   LIG    1       15.176   1.074  51.227  0.00  0.00    +0.117 A 
ATOM      5  C   LIG    1       13.826   1.374  51.367  0.00  0.00    +0.047 A 
ATOM      6  C   LIG    1       13.438   2.390  52.248  0.00  0.00    +0.027 A 
ENDROOT
BRANCH   1   9
ATOM      7  C   LIG    1       13.501   6.183  54.966  0.00  0.00    +0.109 C 
ATOM      8  C   LIG    1       14.050   5.463  53.761  0.00  0.00    +0.214 C 
ATOM      9  N   LIG    1       13.914   4.091  53.875  0.00  0.00    -0.286 N 
ATOM     10  H   LIG    1       13.418   3.751  54.688  0.00  0.00    +0.155 HD
ATOM     11  O   LIG    1       14.549   6.085  52.830  0.00  0.00    -0.276 OA
ENDBRANCH   1   9
BRANCH   4  12
ATOM     12  O   LIG    1       15.601   0.083  50.395  0.00  0.00    -0.507 OA
ATOM     13  H   LIG    1       15.222   0.229  49.514  0.00  0.00    +0.292 HD
ENDBRANCH   4  12
TORSDOF 2
ENDMDL
MODEL 3
REMARK VINA RESULT:      -2.1      2.030      2.540
REMARK  Name = 
REMARK                            x       y       z     vdW  Elec       q    Type
REMARK                         _______ _______ _______ _____ _____    ______ ____
ROOT
ATOM      1  C   LIG    1       18.847   3.060  51.316  0.00  0.00    +0.034 A 
ATOM      2  C   LIG    1       19.916   3.042  52.215  0.00  0.00    +0.027 A 
ATOM      3  C   LIG    1       21.054   3.818  51.977  0.00  0.00    +0.047 A 
ATOM      4  C   LIG    1       21.126   4.614  50.842  0.00  0.00    +0.117 A 
ATOM      5  C   LIG    1       20.070   4.656  49.940  0.00  0.00    +0.047 A 
ATOM      6  C   LIG    1       18.932   3.877  50.180  0.00  0.00    +0.027 A 
ENDROOT
BRANCH   1   9
ATOM      7  C   LIG    1       15.494   1.530  52.096  0.00  0.00    +0.109 C 
ATOM      8  C   LIG    1       16.471   2.676  52.009  0.00  0.00    +0.214 C 
ATOM      9  N   LIG    1       17.680   2.281  51.465  0.00  0.00    -0.286 N 
ATOM     10  H   LIG    1       17.739   1.326  51.138  0.00  0.00    +0.155 HD
ATOM     11  O   LIG    1       16.163   3.796  52.399  0.00  0.00    -0.276 OA
ENDBRANCH   1   9
BRANCH   4  12
ATOM     12  O   LIG    1       22.261   5.341  50.644  0.00  0.00    -0.507 OA
ATOM     13  H   LIG    1       22.666   5.068  49.805  0.00  0.00    +0.292 HD
ENDBRANCH   4  12
TORSDOF 2
ENDMDL
MODEL 4
REMARK VINA RESULT:      -2.0      2.968      4.601
REMARK  Name = 
REMARK                            x       y       z     vdW  Elec       q    Type
REMARK                         _______ _______ _______ _____ _____    ______ ____
ROOT
ATOM      1  C   LIG    1       19.604   3.416  51.314  0.00  0.00    +0.034 A 
ATOM      2  C   LIG    1       19.083   4.579  50.743  0.00  0.00    +0.027 A 
ATOM      3  C   LIG    1       17.782   4.995  51.046  0.00  0.00    +0.047 A 
ATOM      4  C   LIG    1       17.002   4.251  51.921  0.00  0.00    +0.117 A 
ATOM      5  C   LIG    1       17.505   3.098  52.510  0.00  0.00    +0.047 A 
ATOM      6  C   LIG    1       18.806   2.682  52.203  0.00  0.00    +0.027 A 
ENDROOT
BRANCH   1   9
ATOM      7  C   LIG    1       23.260   2.553  51.031  0.00  0.00    +0.109 C 
ATOM      8  C   LIG    1       22.072   3.208  51.689  0.00  0.00    +0.214 C 
ATOM      9  N   LIG    1       20.890   2.910  51.033  0.00  0.00    -0.286 N 
ATOM     10  H   LIG    1       20.952   2.256  50.264  0.00  0.00    +0.155 HD
ATOM     11  O   LIG    1       22.212   3.913  52.682  0.00  0.00    -0.276 OA
ENDBRANCH   1   9
BRANCH   4  12
ATOM     12  O   LIG    1       15.737   4.687  52.175  0.00  0.00    -0.507 OA
ATOM     13  H   LIG    1       15.141   3.922  52.200  0.00  0.00    +0.292 HD
ENDBRANCH   4  12
TORSDOF 2
ENDMDL
MODEL 5
REMARK VINA RESULT:      -2.0      3.142      4.825
REMARK  Name = 
REMARK                            x       y       z     vdW  Elec       q    Type
REMARK                         _______ _______ _______ _____ _____    ______ ____
ROOT
ATOM      1  C   LIG    1       17.910   5.174  50.911  0.00  0.00    +0.034 A 
ATOM      2  C   LIG    1       18.719   4.484  50.006  0.00  0.00    +0.027 A 
ATOM      3  C   LIG    1       19.615   3.510  50.458  0.00  0.00    +0.047 A 
ATOM      4  C   LIG    1       19.703   3.224  51.813  0.00  0.00    +0.117 A 
ATOM      5  C   LIG    1       18.899   3.890  52.730  0.00  0.00    +0.047 A 
ATOM      6  C   LIG    1       18.004   4.866  52.276  0.00  0.00    +0.027 A 
ENDROOT
BRANCH   1   9
ATOM      7  C   LIG    1       16.072   8.315  49.938  0.00  0.00    +0.109 C 
ATOM      8  C   LIG    1       17.313   7.485  50.151  0.00  0.00    +0.214 C 
ATOM      9  N   LIG    1       17.007   6.193  50.541  0.00  0.00    -0.286 N 
ATOM     10  H   LIG    1       16.027   5.948  50.565  0.00  0.00    +0.155 HD
ATOM     11  O   LIG    1       18.428   7.967  49.987  0.00  0.00    -0.276 OA
ENDBRANCH   1   9
BRANCH   4  12
ATOM     12  O   LIG    1       20.601   2.279  52.208  0.00  0.00    -0.507 OA
ATOM     13  H   LIG    1       20.566   2.198  53.175  0.00  0.00    +0.292 HD
ENDBRANCH   4  12
TORSDOF 2
ENDMDL
MODEL 6
REMARK VINA RESULT:      -1.9      2.650      3.439
REMARK  Name = 
REMARK                            x       y       z     vdW  Elec       q    Type
REMARK                         _______ _______ _______ _____ _____    ______ ____
ROOT
ATOM      1  C   LIG    1       16.687   1.929  52.406  0.00  0.00    +0.034 A 
ATOM      2  C   LIG    1       17.098   1.226  53.541  0.00  0.00    +0.027 A 
ATOM      3  C   LIG    1       18.419   1.316  53.990  0.00  0.00    +0.047 A 
ATOM      4  C   LIG    1       19.332   2.108  53.306  0.00  0.00    +0.117 A 
ATOM      5  C   LIG    1       18.942   2.825  52.182  0.00  0.00    +0.047 A 
ATOM      6  C   LIG    1       17.619   2.733  51.734  0.00  0.00    +0.027 A 
ENDROOT
BRANCH   1   9
ATOM      7  C   LIG    1       13.438   1.164  50.662  0.00  0.00    +0.109 C 
ATOM      8  C   LIG    1       14.815   0.817  51.168  0.00  0.00    +0.214 C 
ATOM      9  N   LIG    1       15.384   1.865  51.870  0.00  0.00    -0.286 N 
ATOM     10  H   LIG    1       14.804   2.681  52.016  0.00  0.00    +0.155 HD
ATOM     11  O   LIG    1       15.311  -0.280  50.941  0.00  0.00    -0.276 OA
ENDBRANCH   1   9
BRANCH   4  12
ATOM     12  O   LIG    1       20.611   2.152  53.771  0.00  0.00    -0.507 OA
ATOM     13  H   LIG    1       20.706   2.920  54.356  0.00  0.00    +0.292 HD
ENDBRANCH   4  12
TORSDOF 2
ENDMDL
MODEL 7
REMARK VINA RESULT:      -1.9      2.729      3.514
REMARK  Name = 
REMARK                            x       y       z     vdW  Elec       q    Type
REMARK                         _______ _______ _______ _____ _____    ______ ____
ROOT
ATOM      1  C   LIG    1       17.086   4.172  51.873  0.00  0.00    +0.034 A 
ATOM      2  C   LIG    1       17.867   4.850  50.934  0.00  0.00    +0.027 A 
ATOM      3  C   LIG    1       19.170   4.424  50.657  0.00  0.00    +0.047 A 
ATOM      4  C   LIG    1       19.693   3.320  51.315  0.00  0.00    +0.117 A 
ATOM      5  C   LIG    1       18.930   2.624  52.244  0.00  0.00    +0.047 A 
ATOM      6  C   LIG    1       17.627   3.053  52.522  0.00  0.00    +0.027 A 
ENDROOT
BRANCH   1   9
ATOM      7  C   LIG    1       13.913   5.533  53.381  0.00  0.00    +0.109 C 
ATOM      8  C   LIG    1       15.410   5.464  53.214  0.00  0.00    +0.214 C 
ATOM      9  N   LIG    1       15.778   4.558  52.235  0.00  0.00    -0.286 N 
ATOM     10  H   LIG    1       15.027   4.120  51.718  0.00  0.00    +0.155 HD
ATOM     11  O   LIG    1       16.152   6.154  53.903  0.00  0.00    -0.276 OA
ENDBRANCH   1   9
BRANCH   4  12
ATOM     12  O   LIG    1       20.971   2.951  51.024  0.00  0.00    -0.507 OA
ATOM     13  H   LIG    1       21.583   3.549  51.483  0.00  0.00    +0.292 HD
ENDBRANCH   4  12
TORSDOF 2
ENDMDL
MODEL 8
REMARK VINA RESULT:      -1.9      2.874      4.401
REMARK  Name = 
REMARK                            x       y       z     vdW  Elec       q    Type
REMARK                         _______ _______ _______ _____ _____    ______ ____
ROOT
ATOM      1  C   LIG    1       17.110   4.784  51.918  0.00  0.00    +0.034 A 
ATOM      2  C   LIG    1       18.502   4.873  51.985  0.00  0.00    +0.027 A 
ATOM      3  C   LIG    1       19.270   3.742  52.281  0.00  0.00    +0.047 A 
ATOM      4  C   LIG    1       18.649   2.522  52.508  0.00  0.00    +0.117 A 
ATOM      5  C   LIG    1       17.266   2.408  52.434  0.00  0.00    +0.047 A 
ATOM      6  C   LIG    1       16.499   3.542  52.140  0.00  0.00    +0.027 A 
ENDROOT
BRANCH   1   9
ATOM      7  C   LIG    1       14.728   7.702  51.930  0.00  0.00    +0.109 C 
ATOM      8  C   LIG    1       15.643   6.701  52.588  0.00  0.00    +0.214 C 
ATOM      9  N   LIG    1       16.263   5.882  51.660  0.00  0.00    -0.286 N 
ATOM     10  H   LIG    1       16.092   6.092  50.686  0.00  0.00    +0.155 HD
ATOM     11  O   LIG    1       15.769   6.669  53.807  0.00  0.00    -0.276 OA
ENDBRANCH   1   9
BRANCH   4  12
ATOM     12  O   LIG    1       19.436   1.451  52.808  0.00  0.00    -0.507 OA
ATOM     13  H   LIG    1       20.287   1.773  53.147  0.00  0.00    +0.292 HD
ENDBRANCH   4  12
TORSDOF 2
ENDMDL
MODEL 9
REMARK VINA RESULT:      -1.9      3.218      3.534
REMARK  Name = 
REMARK                            x       y       z     vdW  Elec       q    Type
REMARK                         _______ _______ _______ _____ _____    ______ ____
ROOT
ATOM      1  C   LIG    1       18.596   2.353  52.659  0.00  0.00    +0.034 A 
ATOM      2  C   LIG    1       18.723   3.041  51.451  0.00  0.00    +0.027 A 
ATOM      3  C   LIG    1       17.893   4.130  51.165  0.00  0.00    +0.047 A 
ATOM      4  C   LIG    1       16.936   4.533  52.086  0.00  0.00    +0.117 A 
ATOM      5  C   LIG    1       16.799   3.869  53.299  0.00  0.00    +0.047 A 
ATOM      6  C   LIG    1       17.630   2.779  53.582  0.00  0.00    +0.027 A 
ENDROOT
BRANCH   1   9
ATOM      7  C   LIG    1       21.123  -0.179  53.839  0.00  0.00    +0.109 C 
ATOM      8  C   LIG    1       20.519   1.202  53.776  0.00  0.00    +0.214 C 
ATOM      9  N   LIG    1       19.369   1.226  53.008  0.00  0.00    -0.286 N 
ATOM     10  H   LIG    1       19.043   0.337  52.653  0.00  0.00    +0.155 HD
ATOM     11  O   LIG    1       21.043   2.144  54.357  0.00  0.00    -0.276 OA
ENDBRANCH   1   9
BRANCH   4  12
ATOM     12  O   LIG    1       16.139   5.588  51.758  0.00  0.00    -0.507 OA
ATOM     13  H   LIG    1       15.877   6.048  52.571  0.00  0.00    +0.292 HD
ENDBRANCH   4  12
TORSDOF 2
ENDMDL
