MODEL 1
REMARK VINA RESULT:      -6.4      0.000      0.000
REMARK  Name = 
REMARK                            x       y       z     vdW  Elec       q    Type
REMARK                         _______ _______ _______ _____ _____    ______ ____
ROOT
ATOM      1  C   LIG    1       27.107  -0.267  20.162  0.00  0.00    +0.034 A 
ATOM      2  C   LIG    1       27.128  -1.210  19.133  0.00  0.00    +0.027 A 
ATOM      3  C   LIG    1       26.715  -0.860  17.843  0.00  0.00    +0.047 A 
ATOM      4  C   LIG    1       26.283   0.433  17.580  0.00  0.00    +0.117 A 
ATOM      5  C   LIG    1       26.265   1.390  18.587  0.00  0.00    +0.047 A 
ATOM      6  C   LIG    1       26.677   1.037  19.877  0.00  0.00    +0.027 A 
ENDROOT
BRANCH   1   9
ATOM      7  C   LIG    1       28.750  -0.992  23.473  0.00  0.00    +0.109 C 
ATOM      8  C   LIG    1       28.746  -0.527  22.039  0.00  0.00    +0.214 C 
ATOM      9  N   LIG    1       27.473  -0.549  21.495  0.00  0.00    -0.286 N 
ATOM     10  H   LIG    1       26.718  -0.795  22.120  0.00  0.00    +0.155 HD
ATOM     11  O   LIG    1       29.784  -0.190  21.484  0.00  0.00    -0.276 OA
ENDBRANCH   1   9
BRANCH   4  12
ATOM     12  O   LIG    1       25.876   0.724  16.314  0.00  0.00    -0.507 OA
ATOM     13  H   LIG    1       26.312   1.541  16.024  0.00  0.00    +0.292 HD
ENDBRANCH   4  12
TORSDOF 2
ENDMDL
MODEL 2
REMARK VINA RESULT:      -6.2      4.822      6.405
REMARK  Name = 
REMARK                            x       y       z     vdW  Elec       q    Type
REMARK                         _______ _______ _______ _____ _____    ______ ____
ROOT
ATOM      1  C   LIG    1       25.005   3.726  15.486  0.00  0.00    +0.034 A 
ATOM      2  C   LIG    1       25.782   3.753  14.325  0.00  0.00    +0.027 A 
ATOM      3  C   LIG    1       25.173   3.830  13.068  0.00  0.00    +0.047 A 
ATOM      4  C   LIG    1       23.789   3.882  12.969  0.00  0.00    +0.117 A 
ATOM      5  C   LIG    1       22.998   3.868  14.112  0.00  0.00    +0.047 A 
ATOM      6  C   LIG    1       23.609   3.789  15.369  0.00  0.00    +0.027 A 
ENDROOT
BRANCH   1   9
ATOM      7  C   LIG    1       26.287   2.736  18.887  0.00  0.00    +0.109 C 
ATOM      8  C   LIG    1       25.832   2.452  17.478  0.00  0.00    +0.214 C 
ATOM      9  N   LIG    1       25.539   3.614  16.787  0.00  0.00    -0.286 N 
ATOM     10  H   LIG    1       25.726   4.485  17.266  0.00  0.00    +0.155 HD
ATOM     11  O   LIG    1       25.749   1.301  17.063  0.00  0.00    -0.276 OA
ENDBRANCH   1   9
BRANCH   4  12
ATOM     12  O   LIG    1       23.241   3.940  11.724  0.00  0.00    -0.507 OA
ATOM     13  H   LIG    1       23.650   4.672  11.235  0.00  0.00    +0.292 HD
ENDBRANCH   4  12
TORSDOF 2
ENDMDL
MODEL 3
REMARK VINA RESULT:      -6.0      1.971      5.215
REMARK  Name = 
REMARK                            x       y       z     vdW  Elec       q    Type
REMARK                         _______ _______ _______ _____ _____    ______ ____
ROOT
ATOM      1  C   LIG    1       28.499  -0.691  20.879  0.00  0.00    +0.034 A 
ATOM      2  C   LIG    1       29.659  -1.466  20.934  0.00  0.00    +0.027 A 
ATOM      3  C   LIG    1       30.177  -1.879  22.166  0.00  0.00    +0.047 A 
ATOM      4  C   LIG    1       29.535  -1.520  23.343  0.00  0.00    +0.117 A 
ATOM      5  C   LIG    1       28.373  -0.759  23.311  0.00  0.00    +0.047 A 
ATOM      6  C   LIG    1       27.857  -0.345  22.077  0.00  0.00    +0.027 A 
ENDROOT
BRANCH   1   9
ATOM      7  C   LIG    1       26.692  -0.038  17.638  0.00  0.00    +0.109 C 
ATOM      8  C   LIG    1       26.964  -0.813  18.903  0.00  0.00    +0.214 C 
ATOM      9  N   LIG    1       27.933  -0.205  19.681  0.00  0.00    -0.286 N 
ATOM     10  H   LIG    1       28.279   0.688  19.357  0.00  0.00    +0.155 HD
ATOM     11  O   LIG    1       26.364  -1.854  19.145  0.00  0.00    -0.276 OA
ENDBRANCH   1   9
BRANCH   4  12
ATOM     12  O   LIG    1       30.084  -1.931  24.520  0.00  0.00    -0.507 OA
ATOM     13  H   LIG    1       29.811  -2.847  24.690  0.00  0.00    +0.292 HD
ENDBRANCH   4  12
TORSDOF 2
ENDMDL
MODEL 4
REMARK VINA RESULT:      -5.7      3.216      6.042
REMARK  Name = 
REMARK                            x       y       z     vdW  Elec       q    Type
REMARK                         _______ _______ _______ _____ _____    ______ ____
ROOT
ATOM      1  C   LIG    1       25.583   2.243  17.382  0.00  0.00    +0.034 A 
ATOM      2  C   LIG    1       26.071   2.876  18.527  0.00  0.00    +0.027 A 
ATOM      3  C   LIG    1       26.956   2.211  19.381  0.00  0.00    +0.047 A 
ATOM      4  C   LIG    1       27.356   0.913  19.092  0.00  0.00    +0.117 A 
ATOM      5  C   LIG    1       26.892   0.269  17.952  0.00  0.00    +0.047 A 
ATOM      6  C   LIG    1       26.005   0.936  17.099  0.00  0.00    +0.027 A 
ENDROOT
BRANCH   1   9
ATOM      7  C   LIG    1       23.703   4.081  14.684  0.00  0.00    +0.109 C 
ATOM      8  C   LIG    1       24.944   3.496  15.309  0.00  0.00    +0.214 C 
ATOM      9  N   LIG    1       24.663   2.831  16.489  0.00  0.00    -0.286 N 
ATOM     10  H   LIG    1       23.687   2.758  16.746  0.00  0.00    +0.155 HD
ATOM     11  O   LIG    1       26.041   3.637  14.780  0.00  0.00    -0.276 OA
ENDBRANCH   1   9
BRANCH   4  12
ATOM     12  O   LIG    1       28.206   0.299  19.960  0.00  0.00    -0.507 OA
ATOM     13  H   LIG    1       28.282  -0.637  19.717  0.00  0.00    +0.292 HD
ENDBRANCH   4  12
TORSDOF 2
ENDMDL
MODEL 5
REMARK VINA RESULT:      -5.7      1.698      2.129
REMARK  Name = 
REMARK                            x       y       z     vdW  Elec       q    Type
REMARK                         _______ _______ _______ _____ _____    ______ ____
ROOT
ATOM      1  C   LIG    1       26.512   1.401  19.666  0.00  0.00    +0.034 A 
ATOM      2  C   LIG    1       26.297   0.866  18.393  0.00  0.00    +0.027 A 
ATOM      3  C   LIG    1       25.907   1.694  17.335  0.00  0.00    +0.047 A 
ATOM      4  C   LIG    1       25.733   3.054  17.546  0.00  0.00    +0.117 A 
ATOM      5  C   LIG    1       25.953   3.609  18.801  0.00  0.00    +0.047 A 
ATOM      6  C   LIG    1       26.342   2.779  19.859  0.00  0.00    +0.027 A 
ENDROOT
BRANCH   1   9
ATOM      7  C   LIG    1       28.138  -0.473  22.500  0.00  0.00    +0.109 C 
ATOM      8  C   LIG    1       28.121   0.535  21.379  0.00  0.00    +0.214 C 
ATOM      9  N   LIG    1       26.872   0.631  20.792  0.00  0.00    -0.286 N 
ATOM     10  H   LIG    1       26.130   0.088  21.213  0.00  0.00    +0.155 HD
ATOM     11  O   LIG    1       29.133   1.155  21.076  0.00  0.00    -0.276 OA
ENDBRANCH   1   9
BRANCH   4  12
ATOM     12  O   LIG    1       25.338   3.818  16.490  0.00  0.00    -0.507 OA
ATOM     13  H   LIG    1       25.755   3.477  15.683  0.00  0.00    +0.292 HD
ENDBRANCH   4  12
TORSDOF 2
ENDMDL
MODEL 6
REMARK VINA RESULT:      -5.5      1.847      4.936
REMARK  Name = 
REMARK                            x       y       z     vdW  Elec       q    Type
REMARK                         _______ _______ _______ _____ _____    ______ ____
ROOT
ATOM      1  C   LIG    1       27.177   1.468  20.048  0.00  0.00    +0.034 A 
ATOM      2  C   LIG    1       26.796   0.331  20.764  0.00  0.00    +0.027 A 
ATOM      3  C   LIG    1       27.685  -0.274  21.658  0.00  0.00    +0.047 A 
ATOM      4  C   LIG    1       28.955   0.257  21.840  0.00  0.00    +0.117 A 
ATOM      5  C   LIG    1       29.350   1.395  21.147  0.00  0.00    +0.047 A 
ATOM      6  C   LIG    1       28.459   1.998  20.251  0.00  0.00    +0.027 A 
ENDROOT
BRANCH   1   9
ATOM      7  C   LIG    1       25.209   2.695  17.080  0.00  0.00    +0.109 C 
ATOM      8  C   LIG    1       26.026   1.676  17.833  0.00  0.00    +0.214 C 
ATOM      9  N   LIG    1       26.353   2.116  19.104  0.00  0.00    -0.286 N 
ATOM     10  H   LIG    1       25.961   3.002  19.391  0.00  0.00    +0.155 HD
ATOM     11  O   LIG    1       26.333   0.609  17.315  0.00  0.00    -0.276 OA
ENDBRANCH   1   9
BRANCH   4  12
ATOM     12  O   LIG    1       29.791  -0.374  22.709  0.00  0.00    -0.507 OA
ATOM     13  H   LIG    1       29.422  -1.246  22.923  0.00  0.00    +0.292 HD
ENDBRANCH   4  12
TORSDOF 2
ENDMDL
MODEL 7
REMARK VINA RESULT:      -5.5      1.803      5.013
REMARK  Name = 
REMARK                            x       y       z     vdW  Elec       q    Type
REMARK                         _______ _______ _______ _____ _____    ______ ____
ROOT
ATOM      1  C   LIG    1       27.290   1.414  20.016  0.00  0.00    +0.034 A 
ATOM      2  C   LIG    1       28.596   1.834  20.277  0.00  0.00    +0.027 A 
ATOM      3  C   LIG    1       29.374   1.174  21.234  0.00  0.00    +0.047 A 
ATOM      4  C   LIG    1       28.849   0.094  21.930  0.00  0.00    +0.117 A 
ATOM      5  C   LIG    1       27.556  -0.349  21.678  0.00  0.00    +0.047 A 
ATOM      6  C   LIG    1       26.779   0.315  20.721  0.00  0.00    +0.027 A 
ENDROOT
BRANCH   1   9
ATOM      7  C   LIG    1       25.233   2.613  17.098  0.00  0.00    +0.109 C 
ATOM      8  C   LIG    1       26.097   1.612  17.823  0.00  0.00    +0.214 C 
ATOM      9  N   LIG    1       26.430   2.046  19.094  0.00  0.00    -0.286 N 
ATOM     10  H   LIG    1       26.012   2.915  19.400  0.00  0.00    +0.155 HD
ATOM     11  O   LIG    1       26.430   0.563  17.286  0.00  0.00    -0.276 OA
ENDBRANCH   1   9
BRANCH   4  12
ATOM     12  O   LIG    1       29.638  -0.508  22.863  0.00  0.00    -0.507 OA
ATOM     13  H   LIG    1       30.561  -0.471  22.565  0.00  0.00    +0.292 HD
ENDBRANCH   4  12
TORSDOF 2
ENDMDL
MODEL 8
REMARK VINA RESULT:      -5.4      2.506      3.082
REMARK  Name = 
REMARK                            x       y       z     vdW  Elec       q    Type
REMARK                         _______ _______ _______ _____ _____    ______ ____
ROOT
ATOM      1  C   LIG    1       28.667   0.065  21.162  0.00  0.00    +0.034 A 
ATOM      2  C   LIG    1       29.235   1.332  21.012  0.00  0.00    +0.027 A 
ATOM      3  C   LIG    1       28.430   2.437  20.718  0.00  0.00    +0.047 A 
ATOM      4  C   LIG    1       27.059   2.279  20.574  0.00  0.00    +0.117 A 
ATOM      5  C   LIG    1       26.471   1.029  20.731  0.00  0.00    +0.047 A 
ATOM      6  C   LIG    1       27.279  -0.076  21.024  0.00  0.00    +0.027 A 
ENDROOT
BRANCH   1   9
ATOM      7  C   LIG    1       30.667  -2.819  22.532  0.00  0.00    +0.109 C 
ATOM      8  C   LIG    1       29.783  -1.604  22.660  0.00  0.00    +0.214 C 
ATOM      9  N   LIG    1       29.411  -1.105  21.425  0.00  0.00    -0.286 N 
ATOM     10  H   LIG    1       29.705  -1.634  20.615  0.00  0.00    +0.155 HD
ATOM     11  O   LIG    1       29.475  -1.164  23.762  0.00  0.00    -0.276 OA
ENDBRANCH   1   9
BRANCH   4  12
ATOM     12  O   LIG    1       26.318   3.381  20.272  0.00  0.00    -0.507 OA
ATOM     13  H   LIG    1       26.889   4.164  20.313  0.00  0.00    +0.292 HD
ENDBRANCH   4  12
TORSDOF 2
ENDMDL
MODEL 9
REMARK VINA RESULT:      -5.4      2.589      5.479
REMARK  Name = 
REMARK                            x       y       z     vdW  Elec       q    Type
REMARK                         _______ _______ _______ _____ _____    ______ ____
ROOT
ATOM      1  C   LIG    1       28.757  -0.020  21.587  0.00  0.00    +0.034 A 
ATOM      2  C   LIG    1       28.184  -0.659  22.689  0.00  0.00    +0.027 A 
ATOM      3  C   LIG    1       28.990  -1.135  23.729  0.00  0.00    +0.047 A 
ATOM      4  C   LIG    1       30.367  -0.972  23.669  0.00  0.00    +0.117 A 
ATOM      5  C   LIG    1       30.957  -0.329  22.588  0.00  0.00    +0.047 A 
ATOM      6  C   LIG    1       30.149   0.145  21.548  0.00  0.00    +0.027 A 
ENDROOT
BRANCH   1   9
ATOM      7  C   LIG    1       26.792   1.871  18.989  0.00  0.00    +0.109 C 
ATOM      8  C   LIG    1       27.679   1.769  20.204  0.00  0.00    +0.214 C 
ATOM      9  N   LIG    1       28.019   0.457  20.483  0.00  0.00    -0.286 N 
ATOM     10  H   LIG    1       27.704  -0.243  19.824  0.00  0.00    +0.155 HD
ATOM     11  O   LIG    1       28.014   2.770  20.824  0.00  0.00    -0.276 OA
ENDBRANCH   1   9
BRANCH   4  12
ATOM     12  O   LIG    1       31.112  -1.465  24.697  0.00  0.00    -0.507 OA
ATOM     13  H   LIG    1       31.242  -2.417  24.562  0.00  0.00    +0.292 HD
ENDBRANCH   4  12
TORSDOF 2
ENDMDL
