MODEL 1
REMARK VINA RESULT:      -5.9      0.000      0.000
REMARK  Name = 
REMARK                            x       y       z     vdW  Elec       q    Type
REMARK                         _______ _______ _______ _____ _____    ______ ____
ROOT
ATOM      1  C   LIG    1        7.414  21.338  26.176  0.00  0.00    +0.034 A 
ATOM      2  C   LIG    1        7.731  22.698  26.212  0.00  0.00    +0.027 A 
ATOM      3  C   LIG    1        8.844  23.183  25.519  0.00  0.00    +0.047 A 
ATOM      4  C   LIG    1        9.641  22.312  24.789  0.00  0.00    +0.117 A 
ATOM      5  C   LIG    1        9.338  20.957  24.730  0.00  0.00    +0.047 A 
ATOM      6  C   LIG    1        8.224  20.473  25.426  0.00  0.00    +0.027 A 
ENDROOT
BRANCH   1   9
ATOM      7  C   LIG    1        5.023  19.546  28.471  0.00  0.00    +0.109 C 
ATOM      8  C   LIG    1        6.367  20.122  28.100  0.00  0.00    +0.214 C 
ATOM      9  N   LIG    1        6.331  20.764  26.874  0.00  0.00    -0.286 N 
ATOM     10  H   LIG    1        5.428  20.830  26.424  0.00  0.00    +0.155 HD
ATOM     11  O   LIG    1        7.333  19.994  28.842  0.00  0.00    -0.276 OA
ENDBRANCH   1   9
BRANCH   4  12
ATOM     12  O   LIG    1       10.724  22.827  24.143  0.00  0.00    -0.507 OA
ATOM     13  H   LIG    1       10.615  22.691  23.189  0.00  0.00    +0.292 HD
ENDBRANCH   4  12
TORSDOF 2
ENDMDL
MODEL 2
REMARK VINA RESULT:      -5.8      5.582      9.497
REMARK  Name = 
REMARK                            x       y       z     vdW  Elec       q    Type
REMARK                         _______ _______ _______ _____ _____    ______ ____
ROOT
ATOM      1  C   LIG    1        3.580  17.695  31.736  0.00  0.00    +0.034 A 
ATOM      2  C   LIG    1        3.178  16.436  31.286  0.00  0.00    +0.027 A 
ATOM      3  C   LIG    1        2.358  15.629  32.080  0.00  0.00    +0.047 A 
ATOM      4  C   LIG    1        1.937  16.079  33.324  0.00  0.00    +0.117 A 
ATOM      5  C   LIG    1        2.315  17.333  33.787  0.00  0.00    +0.047 A 
ATOM      6  C   LIG    1        3.138  18.139  32.991  0.00  0.00    +0.027 A 
ENDROOT
BRANCH   1   9
ATOM      7  C   LIG    1        6.381  19.640  30.135  0.00  0.00    +0.109 C 
ATOM      8  C   LIG    1        5.812  18.479  30.911  0.00  0.00    +0.214 C 
ATOM      9  N   LIG    1        4.434  18.554  31.012  0.00  0.00    -0.286 N 
ATOM     10  H   LIG    1        3.984  19.310  30.513  0.00  0.00    +0.155 HD
ATOM     11  O   LIG    1        6.544  17.612  31.373  0.00  0.00    -0.276 OA
ENDBRANCH   1   9
BRANCH   4  12
ATOM     12  O   LIG    1        1.152  15.253  34.069  0.00  0.00    -0.507 OA
ATOM     13  H   LIG    1        1.393  14.332  33.877  0.00  0.00    +0.292 HD
ENDBRANCH   4  12
TORSDOF 2
ENDMDL
MODEL 3
REMARK VINA RESULT:      -5.8      1.930      5.256
REMARK  Name = 
REMARK                            x       y       z     vdW  Elec       q    Type
REMARK                         _______ _______ _______ _____ _____    ______ ____
ROOT
ATOM      1  C   LIG    1        7.460  20.353  27.591  0.00  0.00    +0.034 A 
ATOM      2  C   LIG    1        6.221  19.852  27.183  0.00  0.00    +0.027 A 
ATOM      3  C   LIG    1        5.345  19.287  28.115  0.00  0.00    +0.047 A 
ATOM      4  C   LIG    1        5.703  19.222  29.454  0.00  0.00    +0.117 A 
ATOM      5  C   LIG    1        6.925  19.725  29.884  0.00  0.00    +0.047 A 
ATOM      6  C   LIG    1        7.801  20.289  28.950  0.00  0.00    +0.027 A 
ENDROOT
BRANCH   1   9
ATOM      7  C   LIG    1        9.515  22.330  25.130  0.00  0.00    +0.109 C 
ATOM      8  C   LIG    1        8.361  22.137  26.082  0.00  0.00    +0.214 C 
ATOM      9  N   LIG    1        8.413  20.905  26.711  0.00  0.00    -0.286 N 
ATOM     10  H   LIG    1        9.225  20.333  26.521  0.00  0.00    +0.155 HD
ATOM     11  O   LIG    1        7.511  23.008  26.225  0.00  0.00    -0.276 OA
ENDBRANCH   1   9
BRANCH   4  12
ATOM     12  O   LIG    1        4.824  18.649  30.323  0.00  0.00    -0.507 OA
ATOM     13  H   LIG    1        4.708  17.717  30.082  0.00  0.00    +0.292 HD
ENDBRANCH   4  12
TORSDOF 2
ENDMDL
MODEL 4
REMARK VINA RESULT:      -5.7      3.230      4.546
REMARK  Name = 
REMARK                            x       y       z     vdW  Elec       q    Type
REMARK                         _______ _______ _______ _____ _____    ______ ____
ROOT
ATOM      1  C   LIG    1        5.489  19.254  29.597  0.00  0.00    +0.034 A 
ATOM      2  C   LIG    1        5.330  19.500  28.231  0.00  0.00    +0.027 A 
ATOM      3  C   LIG    1        6.366  20.076  27.490  0.00  0.00    +0.047 A 
ATOM      4  C   LIG    1        7.563  20.407  28.111  0.00  0.00    +0.117 A 
ATOM      5  C   LIG    1        7.747  20.161  29.466  0.00  0.00    +0.047 A 
ATOM      6  C   LIG    1        6.708  19.585  30.206  0.00  0.00    +0.027 A 
ENDROOT
BRANCH   1   9
ATOM      7  C   LIG    1        3.071  17.172  31.598  0.00  0.00    +0.109 C 
ATOM      8  C   LIG    1        4.332  17.387  30.799  0.00  0.00    +0.214 C 
ATOM      9  N   LIG    1        4.483  18.709  30.421  0.00  0.00    -0.286 N 
ATOM     10  H   LIG    1        3.795  19.362  30.772  0.00  0.00    +0.155 HD
ATOM     11  O   LIG    1        5.083  16.452  30.547  0.00  0.00    -0.276 OA
ENDBRANCH   1   9
BRANCH   4  12
ATOM     12  O   LIG    1        8.537  20.981  27.353  0.00  0.00    -0.507 OA
ATOM     13  H   LIG    1        8.806  21.817  27.766  0.00  0.00    +0.292 HD
ENDBRANCH   4  12
TORSDOF 2
ENDMDL
MODEL 5
REMARK VINA RESULT:      -5.6      5.800      9.557
REMARK  Name = 
REMARK                            x       y       z     vdW  Elec       q    Type
REMARK                         _______ _______ _______ _____ _____    ______ ____
ROOT
ATOM      1  C   LIG    1        2.628  18.143  31.347  0.00  0.00    +0.034 A 
ATOM      2  C   LIG    1        3.042  16.812  31.263  0.00  0.00    +0.027 A 
ATOM      3  C   LIG    1        2.505  15.848  32.123  0.00  0.00    +0.047 A 
ATOM      4  C   LIG    1        1.553  16.213  33.066  0.00  0.00    +0.117 A 
ATOM      5  C   LIG    1        1.118  17.529  33.158  0.00  0.00    +0.047 A 
ATOM      6  C   LIG    1        1.659  18.492  32.298  0.00  0.00    +0.027 A 
ENDROOT
BRANCH   1   9
ATOM      7  C   LIG    1        3.933  20.446  28.667  0.00  0.00    +0.109 C 
ATOM      8  C   LIG    1        3.215  19.215  29.161  0.00  0.00    +0.214 C 
ATOM      9  N   LIG    1        3.145  19.180  30.542  0.00  0.00    -0.286 N 
ATOM     10  H   LIG    1        3.505  19.986  31.035  0.00  0.00    +0.155 HD
ATOM     11  O   LIG    1        2.778  18.384  28.374  0.00  0.00    -0.276 OA
ENDBRANCH   1   9
BRANCH   4  12
ATOM     12  O   LIG    1        1.070  15.244  33.891  0.00  0.00    -0.507 OA
ATOM     13  H   LIG    1        0.591  14.588  33.360  0.00  0.00    +0.292 HD
ENDBRANCH   4  12
TORSDOF 2
ENDMDL
MODEL 6
REMARK VINA RESULT:      -5.5      7.189      8.593
REMARK  Name = 
REMARK                            x       y       z     vdW  Elec       q    Type
REMARK                         _______ _______ _______ _____ _____    ______ ____
ROOT
ATOM      1  C   LIG    1        2.124  18.067  32.043  0.00  0.00    +0.034 A 
ATOM      2  C   LIG    1        2.007  19.002  31.012  0.00  0.00    +0.027 A 
ATOM      3  C   LIG    1        2.694  18.817  29.808  0.00  0.00    +0.047 A 
ATOM      4  C   LIG    1        3.496  17.698  29.631  0.00  0.00    +0.117 A 
ATOM      5  C   LIG    1        3.618  16.749  30.639  0.00  0.00    +0.047 A 
ATOM      6  C   LIG    1        2.931  16.937  31.844  0.00  0.00    +0.027 A 
ENDROOT
BRANCH   1   9
ATOM      7  C   LIG    1        1.100  18.365  35.656  0.00  0.00    +0.109 C 
ATOM      8  C   LIG    1        2.101  18.379  34.528  0.00  0.00    +0.214 C 
ATOM      9  N   LIG    1        1.494  18.197  33.298  0.00  0.00    -0.286 N 
ATOM     10  H   LIG    1        0.484  18.149  33.295  0.00  0.00    +0.155 HD
ATOM     11  O   LIG    1        3.297  18.533  34.750  0.00  0.00    -0.276 OA
ENDBRANCH   1   9
BRANCH   4  12
ATOM     12  O   LIG    1        4.157  17.568  28.448  0.00  0.00    -0.507 OA
ATOM     13  H   LIG    1        4.983  18.076  28.492  0.00  0.00    +0.292 HD
ENDBRANCH   4  12
TORSDOF 2
ENDMDL
MODEL 7
REMARK VINA RESULT:      -5.5      5.236      8.630
REMARK  Name = 
REMARK                            x       y       z     vdW  Elec       q    Type
REMARK                         _______ _______ _______ _____ _____    ______ ____
ROOT
ATOM      1  C   LIG    1        2.470  18.360  30.016  0.00  0.00    +0.034 A 
ATOM      2  C   LIG    1        1.508  19.063  30.746  0.00  0.00    +0.027 A 
ATOM      3  C   LIG    1        1.174  18.664  32.044  0.00  0.00    +0.047 A 
ATOM      4  C   LIG    1        1.801  17.565  32.615  0.00  0.00    +0.117 A 
ATOM      5  C   LIG    1        2.769  16.859  31.912  0.00  0.00    +0.047 A 
ATOM      6  C   LIG    1        3.101  17.259  30.612  0.00  0.00    +0.027 A 
ENDROOT
BRANCH   1   9
ATOM      7  C   LIG    1        3.658  19.824  26.755  0.00  0.00    +0.109 C 
ATOM      8  C   LIG    1        3.556  19.777  28.259  0.00  0.00    +0.214 C 
ATOM      9  N   LIG    1        2.837  18.676  28.691  0.00  0.00    -0.286 N 
ATOM     10  H   LIG    1        2.539  18.022  27.980  0.00  0.00    +0.155 HD
ATOM     11  O   LIG    1        4.069  20.647  28.952  0.00  0.00    -0.276 OA
ENDBRANCH   1   9
BRANCH   4  12
ATOM     12  O   LIG    1        1.433  17.204  33.876  0.00  0.00    -0.507 OA
ATOM     13  H   LIG    1        1.470  17.986  34.450  0.00  0.00    +0.292 HD
ENDBRANCH   4  12
TORSDOF 2
ENDMDL
MODEL 8
REMARK VINA RESULT:      -5.4      5.437      7.210
REMARK  Name = 
REMARK                            x       y       z     vdW  Elec       q    Type
REMARK                         _______ _______ _______ _____ _____    ______ ____
ROOT
ATOM      1  C   LIG    1        3.729  17.688  30.908  0.00  0.00    +0.034 A 
ATOM      2  C   LIG    1        5.124  17.636  30.920  0.00  0.00    +0.027 A 
ATOM      3  C   LIG    1        5.877  18.677  30.367  0.00  0.00    +0.047 A 
ATOM      4  C   LIG    1        5.237  19.772  29.803  0.00  0.00    +0.117 A 
ATOM      5  C   LIG    1        3.850  19.850  29.791  0.00  0.00    +0.047 A 
ATOM      6  C   LIG    1        3.098  18.806  30.343  0.00  0.00    +0.027 A 
ENDROOT
BRANCH   1   9
ATOM      7  C   LIG    1        1.596  15.288  32.878  0.00  0.00    +0.109 C 
ATOM      8  C   LIG    1        2.335  16.587  32.674  0.00  0.00    +0.214 C 
ATOM      9  N   LIG    1        2.899  16.666  31.413  0.00  0.00    -0.286 N 
ATOM     10  H   LIG    1        2.696  15.905  30.778  0.00  0.00    +0.155 HD
ATOM     11  O   LIG    1        2.394  17.424  33.566  0.00  0.00    -0.276 OA
ENDBRANCH   1   9
BRANCH   4  12
ATOM     12  O   LIG    1        6.010  20.754  29.263  0.00  0.00    -0.507 OA
ATOM     13  H   LIG    1        6.935  20.597  29.511  0.00  0.00    +0.292 HD
ENDBRANCH   4  12
TORSDOF 2
ENDMDL
MODEL 9
REMARK VINA RESULT:      -5.4      3.449      4.901
REMARK  Name = 
REMARK                            x       y       z     vdW  Elec       q    Type
REMARK                         _______ _______ _______ _____ _____    ______ ____
ROOT
ATOM      1  C   LIG    1        4.963  18.792  29.052  0.00  0.00    +0.034 A 
ATOM      2  C   LIG    1        5.062  18.564  27.678  0.00  0.00    +0.027 A 
ATOM      3  C   LIG    1        5.647  19.521  26.842  0.00  0.00    +0.047 A 
ATOM      4  C   LIG    1        6.134  20.705  27.378  0.00  0.00    +0.117 A 
ATOM      5  C   LIG    1        6.057  20.947  28.744  0.00  0.00    +0.047 A 
ATOM      6  C   LIG    1        5.469  19.989  29.578  0.00  0.00    +0.027 A 
ENDROOT
BRANCH   1   9
ATOM      7  C   LIG    1        2.772  16.810  31.389  0.00  0.00    +0.109 C 
ATOM      8  C   LIG    1        3.020  17.833  30.310  0.00  0.00    +0.214 C 
ATOM      9  N   LIG    1        4.356  17.895  29.956  0.00  0.00    -0.286 N 
ATOM     10  H   LIG    1        4.972  17.223  30.395  0.00  0.00    +0.155 HD
ATOM     11  O   LIG    1        2.100  18.500  29.852  0.00  0.00    -0.276 OA
ENDBRANCH   1   9
BRANCH   4  12
ATOM     12  O   LIG    1        6.681  21.614  26.524  0.00  0.00    -0.507 OA
ATOM     13  H   LIG    1        7.430  21.202  26.065  0.00  0.00    +0.292 HD
ENDBRANCH   4  12
TORSDOF 2
ENDMDL
