MODEL 1
REMARK VINA RESULT:      -6.1      0.000      0.000
REMARK  Name = 
REMARK                            x       y       z     vdW  Elec       q    Type
REMARK                         _______ _______ _______ _____ _____    ______ ____
ROOT
ATOM      1  C   LIG    1       20.626 -17.329  18.331  0.00  0.00    +0.034 A 
ATOM      2  C   LIG    1       20.784 -16.105  17.677  0.00  0.00    +0.027 A 
ATOM      3  C   LIG    1       19.796 -15.119  17.773  0.00  0.00    +0.047 A 
ATOM      4  C   LIG    1       18.651 -15.354  18.522  0.00  0.00    +0.117 A 
ATOM      5  C   LIG    1       18.480 -16.561  19.191  0.00  0.00    +0.047 A 
ATOM      6  C   LIG    1       19.468 -17.546  19.092  0.00  0.00    +0.027 A 
ENDROOT
BRANCH   1   9
ATOM      7  C   LIG    1       23.599 -19.638  18.184  0.00  0.00    +0.109 C 
ATOM      8  C   LIG    1       22.924 -18.317  18.458  0.00  0.00    +0.214 C 
ATOM      9  N   LIG    1       21.557 -18.386  18.257  0.00  0.00    -0.286 N 
ATOM     10  H   LIG    1       21.178 -19.296  18.029  0.00  0.00    +0.155 HD
ATOM     11  O   LIG    1       23.574 -17.339  18.808  0.00  0.00    -0.276 OA
ENDBRANCH   1   9
BRANCH   4  12
ATOM     12  O   LIG    1       17.710 -14.372  18.574  0.00  0.00    -0.507 OA
ATOM     13  H   LIG    1       17.860 -13.835  19.368  0.00  0.00    +0.292 HD
ENDBRANCH   4  12
TORSDOF 2
ENDMDL
MODEL 2
REMARK VINA RESULT:      -6.0      2.203      2.458
REMARK  Name = 
REMARK                            x       y       z     vdW  Elec       q    Type
REMARK                         _______ _______ _______ _____ _____    ______ ____
ROOT
ATOM      1  C   LIG    1       22.325 -15.605  17.643  0.00  0.00    +0.034 A 
ATOM      2  C   LIG    1       21.373 -14.944  16.863  0.00  0.00    +0.027 A 
ATOM      3  C   LIG    1       20.077 -14.741  17.350  0.00  0.00    +0.047 A 
ATOM      4  C   LIG    1       19.732 -15.196  18.615  0.00  0.00    +0.117 A 
ATOM      5  C   LIG    1       20.667 -15.845  19.412  0.00  0.00    +0.047 A 
ATOM      6  C   LIG    1       21.963 -16.049  18.922  0.00  0.00    +0.027 A 
ENDROOT
BRANCH   1   9
ATOM      7  C   LIG    1       25.574 -16.974  16.316  0.00  0.00    +0.109 C 
ATOM      8  C   LIG    1       24.077 -16.979  16.495  0.00  0.00    +0.214 C 
ATOM      9  N   LIG    1       23.640 -15.880  17.213  0.00  0.00    -0.286 N 
ATOM     10  H   LIG    1       24.341 -15.193  17.460  0.00  0.00    +0.155 HD
ATOM     11  O   LIG    1       23.392 -17.886  16.037  0.00  0.00    -0.276 OA
ENDBRANCH   1   9
BRANCH   4  12
ATOM     12  O   LIG    1       18.455 -14.990  19.040  0.00  0.00    -0.507 OA
ATOM     13  H   LIG    1       18.178 -14.098  18.779  0.00  0.00    +0.292 HD
ENDBRANCH   4  12
TORSDOF 2
ENDMDL
MODEL 3
REMARK VINA RESULT:      -5.9      3.807      4.525
REMARK  Name = 
REMARK                            x       y       z     vdW  Elec       q    Type
REMARK                         _______ _______ _______ _____ _____    ______ ____
ROOT
ATOM      1  C   LIG    1       23.315 -14.592  18.311  0.00  0.00    +0.034 A 
ATOM      2  C   LIG    1       23.248 -15.815  18.983  0.00  0.00    +0.027 A 
ATOM      3  C   LIG    1       22.205 -16.709  18.723  0.00  0.00    +0.047 A 
ATOM      4  C   LIG    1       21.228 -16.384  17.791  0.00  0.00    +0.117 A 
ATOM      5  C   LIG    1       21.282 -15.179  17.102  0.00  0.00    +0.047 A 
ATOM      6  C   LIG    1       22.326 -14.284  17.365  0.00  0.00    +0.027 A 
ENDROOT
BRANCH   1   9
ATOM      7  C   LIG    1       26.431 -12.522  18.752  0.00  0.00    +0.109 C 
ATOM      8  C   LIG    1       25.665 -13.727  18.266  0.00  0.00    +0.214 C 
ATOM      9  N   LIG    1       24.313 -13.622  18.540  0.00  0.00    -0.286 N 
ATOM     10  H   LIG    1       24.001 -12.753  18.953  0.00  0.00    +0.155 HD
ATOM     11  O   LIG    1       26.239 -14.655  17.708  0.00  0.00    -0.276 OA
ENDBRANCH   1   9
BRANCH   4  12
ATOM     12  O   LIG    1       20.223 -17.279  17.583  0.00  0.00    -0.507 OA
ATOM     13  H   LIG    1       19.385 -16.882  17.866  0.00  0.00    +0.292 HD
ENDBRANCH   4  12
TORSDOF 2
ENDMDL
MODEL 4
REMARK VINA RESULT:      -5.8      2.209      4.137
REMARK  Name = 
REMARK                            x       y       z     vdW  Elec       q    Type
REMARK                         _______ _______ _______ _____ _____    ______ ____
ROOT
ATOM      1  C   LIG    1       21.077 -16.295  17.937  0.00  0.00    +0.034 A 
ATOM      2  C   LIG    1       21.076 -15.094  17.225  0.00  0.00    +0.027 A 
ATOM      3  C   LIG    1       22.133 -14.188  17.364  0.00  0.00    +0.047 A 
ATOM      4  C   LIG    1       23.191 -14.482  18.212  0.00  0.00    +0.117 A 
ATOM      5  C   LIG    1       23.218 -15.677  18.921  0.00  0.00    +0.047 A 
ATOM      6  C   LIG    1       22.159 -16.581  18.782  0.00  0.00    +0.027 A 
ENDROOT
BRANCH   1   9
ATOM      7  C   LIG    1       17.999 -18.438  18.298  0.00  0.00    +0.109 C 
ATOM      8  C   LIG    1       18.806 -17.182  18.513  0.00  0.00    +0.214 C 
ATOM      9  N   LIG    1       20.034 -17.244  17.880  0.00  0.00    -0.286 N 
ATOM     10  H   LIG    1       20.209 -18.062  17.311  0.00  0.00    +0.155 HD
ATOM     11  O   LIG    1       18.364 -16.258  19.186  0.00  0.00    -0.276 OA
ENDBRANCH   1   9
BRANCH   4  12
ATOM     12  O   LIG    1       24.190 -13.564  18.328  0.00  0.00    -0.507 OA
ATOM     13  H   LIG    1       24.257 -13.067  17.497  0.00  0.00    +0.292 HD
ENDBRANCH   4  12
TORSDOF 2
ENDMDL
MODEL 5
REMARK VINA RESULT:      -5.8      5.410      7.410
REMARK  Name = 
REMARK                            x       y       z     vdW  Elec       q    Type
REMARK                         _______ _______ _______ _____ _____    ______ ____
ROOT
ATOM      1  C   LIG    1       25.560 -13.732  18.955  0.00  0.00    +0.034 A 
ATOM      2  C   LIG    1       25.841 -13.024  20.126  0.00  0.00    +0.027 A 
ATOM      3  C   LIG    1       27.071 -13.185  20.773  0.00  0.00    +0.047 A 
ATOM      4  C   LIG    1       28.021 -14.052  20.250  0.00  0.00    +0.117 A 
ATOM      5  C   LIG    1       27.767 -14.757  19.080  0.00  0.00    +0.047 A 
ATOM      6  C   LIG    1       26.535 -14.595  18.435  0.00  0.00    +0.027 A 
ENDROOT
BRANCH   1   9
ATOM      7  C   LIG    1       22.166 -14.164  17.380  0.00  0.00    +0.109 C 
ATOM      8  C   LIG    1       23.258 -14.518  18.357  0.00  0.00    +0.214 C 
ATOM      9  N   LIG    1       24.333 -13.652  18.263  0.00  0.00    -0.286 N 
ATOM     10  H   LIG    1       24.233 -12.872  17.627  0.00  0.00    +0.155 HD
ATOM     11  O   LIG    1       23.142 -15.478  19.110  0.00  0.00    -0.276 OA
ENDBRANCH   1   9
BRANCH   4  12
ATOM     12  O   LIG    1       29.197 -14.189  20.922  0.00  0.00    -0.507 OA
ATOM     13  H   LIG    1       29.314 -13.425  21.510  0.00  0.00    +0.292 HD
ENDBRANCH   4  12
TORSDOF 2
ENDMDL
MODEL 6
REMARK VINA RESULT:      -5.8      4.630      5.974
REMARK  Name = 
REMARK                            x       y       z     vdW  Elec       q    Type
REMARK                         _______ _______ _______ _____ _____    ______ ____
ROOT
ATOM      1  C   LIG    1       25.248 -16.373  17.208  0.00  0.00    +0.034 A 
ATOM      2  C   LIG    1       24.045 -16.462  16.504  0.00  0.00    +0.027 A 
ATOM      3  C   LIG    1       23.502 -17.711  16.185  0.00  0.00    +0.047 A 
ATOM      4  C   LIG    1       24.159 -18.872  16.571  0.00  0.00    +0.117 A 
ATOM      5  C   LIG    1       25.350 -18.806  17.283  0.00  0.00    +0.047 A 
ATOM      6  C   LIG    1       25.893 -17.555  17.599  0.00  0.00    +0.027 A 
ENDROOT
BRANCH   1   9
ATOM      7  C   LIG    1       26.322 -12.972  18.419  0.00  0.00    +0.109 C 
ATOM      8  C   LIG    1       25.425 -14.183  18.411  0.00  0.00    +0.214 C 
ATOM      9  N   LIG    1       25.879 -15.155  17.537  0.00  0.00    -0.286 N 
ATOM     10  H   LIG    1       26.762 -14.975  17.079  0.00  0.00    +0.155 HD
ATOM     11  O   LIG    1       24.424 -14.229  19.117  0.00  0.00    -0.276 OA
ENDBRANCH   1   9
BRANCH   4  12
ATOM     12  O   LIG    1       23.601 -20.065  16.225  0.00  0.00    -0.507 OA
ATOM     13  H   LIG    1       22.860 -20.250  16.825  0.00  0.00    +0.292 HD
ENDBRANCH   4  12
TORSDOF 2
ENDMDL
MODEL 7
REMARK VINA RESULT:      -5.8      2.492      4.587
REMARK  Name = 
REMARK                            x       y       z     vdW  Elec       q    Type
REMARK                         _______ _______ _______ _____ _____    ______ ____
ROOT
ATOM      1  C   LIG    1       18.964 -16.558  18.590  0.00  0.00    +0.034 A 
ATOM      2  C   LIG    1       20.096 -17.367  18.467  0.00  0.00    +0.027 A 
ATOM      3  C   LIG    1       21.239 -16.891  17.814  0.00  0.00    +0.047 A 
ATOM      4  C   LIG    1       21.252 -15.608  17.286  0.00  0.00    +0.117 A 
ATOM      5  C   LIG    1       20.141 -14.782  17.407  0.00  0.00    +0.047 A 
ATOM      6  C   LIG    1       18.998 -15.260  18.059  0.00  0.00    +0.027 A 
ENDROOT
BRANCH   1   9
ATOM      7  C   LIG    1       15.625 -17.981  19.598  0.00  0.00    +0.109 C 
ATOM      8  C   LIG    1       16.836 -17.874  18.706  0.00  0.00    +0.214 C 
ATOM      9  N   LIG    1       17.763 -16.974  19.201  0.00  0.00    -0.286 N 
ATOM     10  H   LIG    1       17.559 -16.564  20.103  0.00  0.00    +0.155 HD
ATOM     11  O   LIG    1       16.919 -18.533  17.676  0.00  0.00    -0.276 OA
ENDBRANCH   1   9
BRANCH   4  12
ATOM     12  O   LIG    1       22.380 -15.194  16.646  0.00  0.00    -0.507 OA
ATOM     13  H   LIG    1       22.834 -14.540  17.201  0.00  0.00    +0.292 HD
ENDBRANCH   4  12
TORSDOF 2
ENDMDL
MODEL 8
REMARK VINA RESULT:      -5.7      2.938      5.743
REMARK  Name = 
REMARK                            x       y       z     vdW  Elec       q    Type
REMARK                         _______ _______ _______ _____ _____    ______ ____
ROOT
ATOM      1  C   LIG    1       17.677 -15.493  18.598  0.00  0.00    +0.034 A 
ATOM      2  C   LIG    1       18.945 -15.174  18.108  0.00  0.00    +0.027 A 
ATOM      3  C   LIG    1       19.959 -16.138  18.089  0.00  0.00    +0.047 A 
ATOM      4  C   LIG    1       19.707 -17.420  18.557  0.00  0.00    +0.117 A 
ATOM      5  C   LIG    1       18.448 -17.762  19.038  0.00  0.00    +0.047 A 
ATOM      6  C   LIG    1       17.436 -16.795  19.058  0.00  0.00    +0.027 A 
ENDROOT
BRANCH   1   9
ATOM      7  C   LIG    1       14.589 -13.364  18.249  0.00  0.00    +0.109 C 
ATOM      8  C   LIG    1       15.437 -14.575  17.953  0.00  0.00    +0.214 C 
ATOM      9  N   LIG    1       16.612 -14.571  18.684  0.00  0.00    -0.286 N 
ATOM     10  H   LIG    1       16.726 -13.824  19.355  0.00  0.00    +0.155 HD
ATOM     11  O   LIG    1       15.068 -15.419  17.145  0.00  0.00    -0.276 OA
ENDBRANCH   1   9
BRANCH   4  12
ATOM     12  O   LIG    1       20.728 -18.320  18.534  0.00  0.00    -0.507 OA
ATOM     13  H   LIG    1       20.367 -19.200  18.339  0.00  0.00    +0.292 HD
ENDBRANCH   4  12
TORSDOF 2
ENDMDL
MODEL 9
REMARK VINA RESULT:      -5.7      1.859      2.457
REMARK  Name = 
REMARK                            x       y       z     vdW  Elec       q    Type
REMARK                         _______ _______ _______ _____ _____    ______ ____
ROOT
ATOM      1  C   LIG    1       22.004 -16.341  17.381  0.00  0.00    +0.034 A 
ATOM      2  C   LIG    1       21.386 -17.006  18.442  0.00  0.00    +0.027 A 
ATOM      3  C   LIG    1       20.187 -16.522  18.978  0.00  0.00    +0.047 A 
ATOM      4  C   LIG    1       19.606 -15.376  18.454  0.00  0.00    +0.117 A 
ATOM      5  C   LIG    1       20.198 -14.705  17.390  0.00  0.00    +0.047 A 
ATOM      6  C   LIG    1       21.398 -15.190  16.857  0.00  0.00    +0.027 A 
ENDROOT
BRANCH   1   9
ATOM      7  C   LIG    1       25.568 -17.038  16.378  0.00  0.00    +0.109 C 
ATOM      8  C   LIG    1       24.498 -16.575  17.334  0.00  0.00    +0.214 C 
ATOM      9  N   LIG    1       23.229 -16.742  16.808  0.00  0.00    -0.286 N 
ATOM     10  H   LIG    1       23.169 -17.203  15.910  0.00  0.00    +0.155 HD
ATOM     11  O   LIG    1       24.791 -16.109  18.429  0.00  0.00    -0.276 OA
ENDBRANCH   1   9
BRANCH   4  12
ATOM     12  O   LIG    1       18.448 -14.934  19.018  0.00  0.00    -0.507 OA
ATOM     13  H   LIG    1       18.449 -13.963  19.017  0.00  0.00    +0.292 HD
ENDBRANCH   4  12
TORSDOF 2
ENDMDL
