MODEL 1
REMARK VINA RESULT:      -5.7      0.000      0.000
REMARK  Name = 
REMARK                            x       y       z     vdW  Elec       q    Type
REMARK                         _______ _______ _______ _____ _____    ______ ____
ROOT
ATOM      1  C   LIG    1        3.135   7.879  -0.605  0.00  0.00    +0.034 A 
ATOM      2  C   LIG    1        2.393   7.566   0.536  0.00  0.00    +0.027 A 
ATOM      3  C   LIG    1        1.346   6.641   0.467  0.00  0.00    +0.047 A 
ATOM      4  C   LIG    1        1.040   6.028  -0.741  0.00  0.00    +0.117 A 
ATOM      5  C   LIG    1        1.773   6.317  -1.885  0.00  0.00    +0.047 A 
ATOM      6  C   LIG    1        2.819   7.244  -1.815  0.00  0.00    +0.027 A 
ENDROOT
BRANCH   1   9
ATOM      7  C   LIG    1        5.472  10.802  -1.035  0.00  0.00    +0.109 C 
ATOM      8  C   LIG    1        4.120  10.136  -1.066  0.00  0.00    +0.214 C 
ATOM      9  N   LIG    1        4.181   8.825  -0.627  0.00  0.00    -0.286 N 
ATOM     10  H   LIG    1        5.077   8.504  -0.285  0.00  0.00    +0.155 HD
ATOM     11  O   LIG    1        3.128  10.744  -1.451  0.00  0.00    -0.276 OA
ENDBRANCH   1   9
BRANCH   4  12
ATOM     12  O   LIG    1        0.002   5.146  -0.763  0.00  0.00    -0.507 OA
ATOM     13  H   LIG    1       -0.596   5.346  -0.025  0.00  0.00    +0.292 HD
ENDBRANCH   4  12
TORSDOF 2
ENDMDL
MODEL 2
REMARK VINA RESULT:      -5.7     15.819     16.438
REMARK  Name = 
REMARK                            x       y       z     vdW  Elec       q    Type
REMARK                         _______ _______ _______ _____ _____    ______ ____
ROOT
ATOM      1  C   LIG    1       15.057   0.849  -7.344  0.00  0.00    +0.034 A 
ATOM      2  C   LIG    1       16.267   0.689  -8.022  0.00  0.00    +0.027 A 
ATOM      3  C   LIG    1       16.289   0.152  -9.313  0.00  0.00    +0.047 A 
ATOM      4  C   LIG    1       15.102  -0.225  -9.928  0.00  0.00    +0.117 A 
ATOM      5  C   LIG    1       13.886  -0.063  -9.276  0.00  0.00    +0.047 A 
ATOM      6  C   LIG    1       13.867   0.474  -7.983  0.00  0.00    +0.027 A 
ENDROOT
BRANCH   1   9
ATOM      7  C   LIG    1       15.082   1.572  -3.647  0.00  0.00    +0.109 C 
ATOM      8  C   LIG    1       15.504   0.813  -4.879  0.00  0.00    +0.214 C 
ATOM      9  N   LIG    1       14.953   1.350  -6.029  0.00  0.00    -0.286 N 
ATOM     10  H   LIG    1       14.412   2.197  -5.918  0.00  0.00    +0.155 HD
ATOM     11  O   LIG    1       16.245  -0.160  -4.796  0.00  0.00    -0.276 OA
ENDBRANCH   1   9
BRANCH   4  12
ATOM     12  O   LIG    1       15.174  -0.757 -11.179  0.00  0.00    -0.507 OA
ATOM     13  H   LIG    1       14.702  -0.175 -11.796  0.00  0.00    +0.292 HD
ENDBRANCH   4  12
TORSDOF 2
ENDMDL
MODEL 3
REMARK VINA RESULT:      -5.5      3.504      4.070
REMARK  Name = 
REMARK                            x       y       z     vdW  Elec       q    Type
REMARK                         _______ _______ _______ _____ _____    ______ ____
ROOT
ATOM      1  C   LIG    1        3.446   7.065  -3.138  0.00  0.00    +0.034 A 
ATOM      2  C   LIG    1        4.728   6.852  -2.626  0.00  0.00    +0.027 A 
ATOM      3  C   LIG    1        4.963   5.820  -1.711  0.00  0.00    +0.047 A 
ATOM      4  C   LIG    1        3.918   5.000  -1.308  0.00  0.00    +0.117 A 
ATOM      5  C   LIG    1        2.637   5.187  -1.813  0.00  0.00    +0.047 A 
ATOM      6  C   LIG    1        2.404   6.221  -2.728  0.00  0.00    +0.027 A 
ENDROOT
BRANCH   1   9
ATOM      7  C   LIG    1        2.752   9.367  -6.037  0.00  0.00    +0.109 C 
ATOM      8  C   LIG    1        3.011   8.019  -5.412  0.00  0.00    +0.214 C 
ATOM      9  N   LIG    1        3.121   8.103  -4.035  0.00  0.00    -0.286 N 
ATOM     10  H   LIG    1        2.949   9.010  -3.622  0.00  0.00    +0.155 HD
ATOM     11  O   LIG    1        3.108   7.013  -6.104  0.00  0.00    -0.276 OA
ENDBRANCH   1   9
BRANCH   4  12
ATOM     12  O   LIG    1        4.190   4.018  -0.404  0.00  0.00    -0.507 OA
ATOM     13  H   LIG    1        3.641   3.244  -0.606  0.00  0.00    +0.292 HD
ENDBRANCH   4  12
TORSDOF 2
ENDMDL
MODEL 4
REMARK VINA RESULT:      -5.3      2.109      2.308
REMARK  Name = 
REMARK                            x       y       z     vdW  Elec       q    Type
REMARK                         _______ _______ _______ _____ _____    ______ ____
ROOT
ATOM      1  C   LIG    1        3.783   8.161  -1.367  0.00  0.00    +0.034 A 
ATOM      2  C   LIG    1        3.158   7.611  -0.245  0.00  0.00    +0.027 A 
ATOM      3  C   LIG    1        3.289   6.248   0.041  0.00  0.00    +0.047 A 
ATOM      4  C   LIG    1        4.045   5.434  -0.791  0.00  0.00    +0.117 A 
ATOM      5  C   LIG    1        4.685   5.963  -1.906  0.00  0.00    +0.047 A 
ATOM      6  C   LIG    1        4.551   7.326  -2.191  0.00  0.00    +0.027 A 
ENDROOT
BRANCH   1   9
ATOM      7  C   LIG    1        4.001  11.884  -1.896  0.00  0.00    +0.109 C 
ATOM      8  C   LIG    1        4.506  10.559  -1.384  0.00  0.00    +0.214 C 
ATOM      9  N   LIG    1        3.671   9.516  -1.744  0.00  0.00    -0.286 N 
ATOM     10  H   LIG    1        2.891   9.747  -2.344  0.00  0.00    +0.155 HD
ATOM     11  O   LIG    1        5.539  10.490  -0.728  0.00  0.00    -0.276 OA
ENDBRANCH   1   9
BRANCH   4  12
ATOM     12  O   LIG    1        4.131   4.111  -0.482  0.00  0.00    -0.507 OA
ATOM     13  H   LIG    1        3.892   3.589  -1.265  0.00  0.00    +0.292 HD
ENDBRANCH   4  12
TORSDOF 2
ENDMDL
MODEL 5
REMARK VINA RESULT:      -5.1      3.471      5.442
REMARK  Name = 
REMARK                            x       y       z     vdW  Elec       q    Type
REMARK                         _______ _______ _______ _____ _____    ______ ____
ROOT
ATOM      1  C   LIG    1        4.083   6.996  -3.667  0.00  0.00    +0.034 A 
ATOM      2  C   LIG    1        4.037   6.503  -4.973  0.00  0.00    +0.027 A 
ATOM      3  C   LIG    1        3.707   7.349  -6.037  0.00  0.00    +0.047 A 
ATOM      4  C   LIG    1        3.424   8.687  -5.799  0.00  0.00    +0.117 A 
ATOM      5  C   LIG    1        3.475   9.200  -4.509  0.00  0.00    +0.047 A 
ATOM      6  C   LIG    1        3.804   8.352  -3.445  0.00  0.00    +0.027 A 
ENDROOT
BRANCH   1   9
ATOM      7  C   LIG    1        4.154   4.769  -0.630  0.00  0.00    +0.109 C 
ATOM      8  C   LIG    1        3.507   5.368  -1.853  0.00  0.00    +0.214 C 
ATOM      9  N   LIG    1        4.372   6.203  -2.537  0.00  0.00    -0.286 N 
ATOM     10  H   LIG    1        5.321   6.255  -2.190  0.00  0.00    +0.155 HD
ATOM     11  O   LIG    1        2.345   5.105  -2.142  0.00  0.00    -0.276 OA
ENDBRANCH   1   9
BRANCH   4  12
ATOM     12  O   LIG    1        3.093   9.468  -6.863  0.00  0.00    -0.507 OA
ATOM     13  H   LIG    1        3.127   8.930  -7.670  0.00  0.00    +0.292 HD
ENDBRANCH   4  12
TORSDOF 2
ENDMDL
MODEL 6
REMARK VINA RESULT:      -5.1     11.027     12.458
REMARK  Name = 
REMARK                            x       y       z     vdW  Elec       q    Type
REMARK                         _______ _______ _______ _____ _____    ______ ____
ROOT
ATOM      1  C   LIG    1        9.493   9.525 -10.261  0.00  0.00    +0.034 A 
ATOM      2  C   LIG    1        9.967   8.234 -10.018  0.00  0.00    +0.027 A 
ATOM      3  C   LIG    1       10.390   7.424 -11.077  0.00  0.00    +0.047 A 
ATOM      4  C   LIG    1       10.342   7.903 -12.379  0.00  0.00    +0.117 A 
ATOM      5  C   LIG    1        9.885   9.188 -12.643  0.00  0.00    +0.047 A 
ATOM      6  C   LIG    1        9.461   9.997 -11.581  0.00  0.00    +0.027 A 
ENDROOT
BRANCH   1   9
ATOM      7  C   LIG    1        8.886  11.814  -7.332  0.00  0.00    +0.109 C 
ATOM      8  C   LIG    1        9.762  11.070  -8.308  0.00  0.00    +0.214 C 
ATOM      9  N   LIG    1        9.016  10.390  -9.255  0.00  0.00    -0.286 N 
ATOM     10  H   LIG    1        8.014  10.525  -9.224  0.00  0.00    +0.155 HD
ATOM     11  O   LIG    1       10.983  11.103  -8.210  0.00  0.00    -0.276 OA
ENDBRANCH   1   9
BRANCH   4  12
ATOM     12  O   LIG    1       10.750   7.073 -13.379  0.00  0.00    -0.507 OA
ATOM     13  H   LIG    1       11.300   7.577 -14.000  0.00  0.00    +0.292 HD
ENDBRANCH   4  12
TORSDOF 2
ENDMDL
MODEL 7
REMARK VINA RESULT:      -5.1     11.602     11.985
REMARK  Name = 
REMARK                            x       y       z     vdW  Elec       q    Type
REMARK                         _______ _______ _______ _____ _____    ______ ____
ROOT
ATOM      1  C   LIG    1       13.107   1.901  -2.550  0.00  0.00    +0.034 A 
ATOM      2  C   LIG    1       12.094   2.154  -1.623  0.00  0.00    +0.027 A 
ATOM      3  C   LIG    1       10.778   2.357  -2.051  0.00  0.00    +0.047 A 
ATOM      4  C   LIG    1       10.473   2.306  -3.404  0.00  0.00    +0.117 A 
ATOM      5  C   LIG    1       11.463   2.043  -4.343  0.00  0.00    +0.047 A 
ATOM      6  C   LIG    1       12.780   1.842  -3.912  0.00  0.00    +0.027 A 
ENDROOT
BRANCH   1   9
ATOM      7  C   LIG    1       16.772   2.122  -1.707  0.00  0.00    +0.109 C 
ATOM      8  C   LIG    1       15.398   2.703  -1.932  0.00  0.00    +0.214 C 
ATOM      9  N   LIG    1       14.463   1.720  -2.204  0.00  0.00    -0.286 N 
ATOM     10  H   LIG    1       14.783   0.762  -2.151  0.00  0.00    +0.155 HD
ATOM     11  O   LIG    1       15.209   3.912  -1.871  0.00  0.00    -0.276 OA
ENDBRANCH   1   9
BRANCH   4  12
ATOM     12  O   LIG    1        9.181   2.525  -3.775  0.00  0.00    -0.507 OA
ATOM     13  H   LIG    1        9.010   3.480  -3.768  0.00  0.00    +0.292 HD
ENDBRANCH   4  12
TORSDOF 2
ENDMDL
MODEL 8
REMARK VINA RESULT:      -5.1     12.114     13.348
REMARK  Name = 
REMARK                            x       y       z     vdW  Elec       q    Type
REMARK                         _______ _______ _______ _____ _____    ______ ____
ROOT
ATOM      1  C   LIG    1       10.247   8.585 -11.402  0.00  0.00    +0.034 A 
ATOM      2  C   LIG    1       10.438   7.222 -11.162  0.00  0.00    +0.027 A 
ATOM      3  C   LIG    1       10.378   6.717  -9.859  0.00  0.00    +0.047 A 
ATOM      4  C   LIG    1       10.125   7.572  -8.795  0.00  0.00    +0.117 A 
ATOM      5  C   LIG    1        9.920   8.929  -9.012  0.00  0.00    +0.047 A 
ATOM      6  C   LIG    1        9.982   9.433 -10.317  0.00  0.00    +0.027 A 
ENDROOT
BRANCH   1   9
ATOM      7  C   LIG    1       11.149  10.008 -14.771  0.00  0.00    +0.109 C 
ATOM      8  C   LIG    1       11.409   9.176 -13.541  0.00  0.00    +0.214 C 
ATOM      9  N   LIG    1       10.326   9.177 -12.680  0.00  0.00    -0.286 N 
ATOM     10  H   LIG    1        9.495   9.658 -12.998  0.00  0.00    +0.155 HD
ATOM     11  O   LIG    1       12.479   8.599 -13.386  0.00  0.00    -0.276 OA
ENDBRANCH   1   9
BRANCH   4  12
ATOM     12  O   LIG    1       10.091   7.039  -7.543  0.00  0.00    -0.507 OA
ATOM     13  H   LIG    1        9.211   7.189  -7.161  0.00  0.00    +0.292 HD
ENDBRANCH   4  12
TORSDOF 2
ENDMDL
MODEL 9
REMARK VINA RESULT:      -5.1      3.695      5.191
REMARK  Name = 
REMARK                            x       y       z     vdW  Elec       q    Type
REMARK                         _______ _______ _______ _____ _____    ______ ____
ROOT
ATOM      1  C   LIG    1        3.413   7.436  -3.440  0.00  0.00    +0.034 A 
ATOM      2  C   LIG    1        3.695   8.803  -3.481  0.00  0.00    +0.027 A 
ATOM      3  C   LIG    1        3.711   9.486  -4.701  0.00  0.00    +0.047 A 
ATOM      4  C   LIG    1        3.445   8.804  -5.881  0.00  0.00    +0.117 A 
ATOM      5  C   LIG    1        3.150   7.447  -5.862  0.00  0.00    +0.047 A 
ATOM      6  C   LIG    1        3.136   6.765  -4.639  0.00  0.00    +0.027 A 
ENDROOT
BRANCH   1   9
ATOM      7  C   LIG    1        4.044   5.162  -0.503  0.00  0.00    +0.109 C 
ATOM      8  C   LIG    1        4.461   5.940  -1.726  0.00  0.00    +0.214 C 
ATOM      9  N   LIG    1        3.411   6.668  -2.256  0.00  0.00    -0.286 N 
ATOM     10  H   LIG    1        2.542   6.650  -1.740  0.00  0.00    +0.155 HD
ATOM     11  O   LIG    1        5.611   5.881  -2.147  0.00  0.00    -0.276 OA
ENDBRANCH   1   9
BRANCH   4  12
ATOM     12  O   LIG    1        3.487   9.507  -7.047  0.00  0.00    -0.507 OA
ATOM     13  H   LIG    1        2.579   9.689  -7.337  0.00  0.00    +0.292 HD
ENDBRANCH   4  12
TORSDOF 2
ENDMDL
