MODEL 1
REMARK VINA RESULT:      -6.4      0.000      0.000
REMARK  Name = 
REMARK                            x       y       z     vdW  Elec       q    Type
REMARK                         _______ _______ _______ _____ _____    ______ ____
ROOT
ATOM      1  C   LIG    1        2.563  29.712   4.443  0.00  0.00    +0.034 A 
ATOM      2  C   LIG    1        1.830  28.533   4.291  0.00  0.00    +0.027 A 
ATOM      3  C   LIG    1        2.336  27.318   4.767  0.00  0.00    +0.047 A 
ATOM      4  C   LIG    1        3.573  27.281   5.395  0.00  0.00    +0.117 A 
ATOM      5  C   LIG    1        4.314  28.444   5.567  0.00  0.00    +0.047 A 
ATOM      6  C   LIG    1        3.806  29.658   5.089  0.00  0.00    +0.027 A 
ENDROOT
BRANCH   1   9
ATOM      7  C   LIG    1        0.923  33.008   3.647  0.00  0.00    +0.109 C 
ATOM      8  C   LIG    1        1.174  31.796   4.507  0.00  0.00    +0.214 C 
ATOM      9  N   LIG    1        2.140  30.968   3.961  0.00  0.00    -0.286 N 
ATOM     10  H   LIG    1        2.596  31.298   3.121  0.00  0.00    +0.155 HD
ATOM     11  O   LIG    1        0.555  31.625   5.551  0.00  0.00    -0.276 OA
ENDBRANCH   1   9
BRANCH   4  12
ATOM     12  O   LIG    1        4.032  26.074   5.828  0.00  0.00    -0.507 OA
ATOM     13  H   LIG    1        4.468  25.621   5.089  0.00  0.00    +0.292 HD
ENDBRANCH   4  12
TORSDOF 2
ENDMDL
MODEL 2
REMARK VINA RESULT:      -6.4      0.190      1.466
REMARK  Name = 
REMARK                            x       y       z     vdW  Elec       q    Type
REMARK                         _______ _______ _______ _____ _____    ______ ____
ROOT
ATOM      1  C   LIG    1        2.568  29.708   4.485  0.00  0.00    +0.034 A 
ATOM      2  C   LIG    1        3.820  29.615   5.095  0.00  0.00    +0.027 A 
ATOM      3  C   LIG    1        4.300  28.378   5.540  0.00  0.00    +0.047 A 
ATOM      4  C   LIG    1        3.530  27.235   5.375  0.00  0.00    +0.117 A 
ATOM      5  C   LIG    1        2.286  27.304   4.760  0.00  0.00    +0.047 A 
ATOM      6  C   LIG    1        1.807  28.542   4.317  0.00  0.00    +0.027 A 
ENDROOT
BRANCH   1   9
ATOM      7  C   LIG    1        0.649  32.895   3.886  0.00  0.00    +0.109 C 
ATOM      8  C   LIG    1        1.126  31.742   4.733  0.00  0.00    +0.214 C 
ATOM      9  N   LIG    1        1.998  30.920   4.041  0.00  0.00    -0.286 N 
ATOM     10  H   LIG    1        2.257  31.217   3.110  0.00  0.00    +0.155 HD
ATOM     11  O   LIG    1        0.741  31.609   5.889  0.00  0.00    -0.276 OA
ENDBRANCH   1   9
BRANCH   4  12
ATOM     12  O   LIG    1        4.031  26.057   5.838  0.00  0.00    -0.507 OA
ATOM     13  H   LIG    1        4.013  25.404   5.120  0.00  0.00    +0.292 HD
ENDBRANCH   4  12
TORSDOF 2
ENDMDL
MODEL 3
REMARK VINA RESULT:      -6.3      9.931     10.714
REMARK  Name = 
REMARK                            x       y       z     vdW  Elec       q    Type
REMARK                         _______ _______ _______ _____ _____    ______ ____
ROOT
ATOM      1  C   LIG    1        3.867  21.540  10.358  0.00  0.00    +0.034 A 
ATOM      2  C   LIG    1        2.566  21.581   9.853  0.00  0.00    +0.027 A 
ATOM      3  C   LIG    1        2.239  20.891   8.681  0.00  0.00    +0.047 A 
ATOM      4  C   LIG    1        3.211  20.159   8.013  0.00  0.00    +0.117 A 
ATOM      5  C   LIG    1        4.510  20.095   8.504  0.00  0.00    +0.047 A 
ATOM      6  C   LIG    1        4.835  20.788   9.676  0.00  0.00    +0.027 A 
ENDROOT
BRANCH   1   9
ATOM      7  C   LIG    1        4.961  22.758  13.751  0.00  0.00    +0.109 C 
ATOM      8  C   LIG    1        4.693  21.692  12.718  0.00  0.00    +0.214 C 
ATOM      9  N   LIG    1        4.286  22.235  11.512  0.00  0.00    -0.286 N 
ATOM     10  H   LIG    1        4.285  23.244  11.447  0.00  0.00    +0.155 HD
ATOM     11  O   LIG    1        4.834  20.505  12.987  0.00  0.00    -0.276 OA
ENDBRANCH   1   9
BRANCH   4  12
ATOM     12  O   LIG    1        2.851  19.516   6.868  0.00  0.00    -0.507 OA
ATOM     13  H   LIG    1        3.154  18.596   6.916  0.00  0.00    +0.292 HD
ENDBRANCH   4  12
TORSDOF 2
ENDMDL
MODEL 4
REMARK VINA RESULT:      -6.0      9.133     10.144
REMARK  Name = 
REMARK                            x       y       z     vdW  Elec       q    Type
REMARK                         _______ _______ _______ _____ _____    ______ ____
ROOT
ATOM      1  C   LIG    1        4.186  21.888   9.846  0.00  0.00    +0.034 A 
ATOM      2  C   LIG    1        4.030  23.185  10.339  0.00  0.00    +0.027 A 
ATOM      3  C   LIG    1        4.346  23.479  11.670  0.00  0.00    +0.047 A 
ATOM      4  C   LIG    1        4.819  22.479  12.507  0.00  0.00    +0.117 A 
ATOM      5  C   LIG    1        4.993  21.184  12.034  0.00  0.00    +0.047 A 
ATOM      6  C   LIG    1        4.675  20.892  10.703  0.00  0.00    +0.027 A 
ENDROOT
BRANCH   1   9
ATOM      7  C   LIG    1        2.754  20.535   6.635  0.00  0.00    +0.109 C 
ATOM      8  C   LIG    1        2.693  20.891   8.099  0.00  0.00    +0.214 C 
ATOM      9  N   LIG    1        3.857  21.502   8.529  0.00  0.00    -0.286 N 
ATOM     10  H   LIG    1        4.554  21.696   7.823  0.00  0.00    +0.155 HD
ATOM     11  O   LIG    1        1.699  20.633   8.768  0.00  0.00    -0.276 OA
ENDBRANCH   1   9
BRANCH   4  12
ATOM     12  O   LIG    1        5.100  22.808  13.799  0.00  0.00    -0.507 OA
ATOM     13  H   LIG    1        5.307  21.998  14.292  0.00  0.00    +0.292 HD
ENDBRANCH   4  12
TORSDOF 2
ENDMDL
MODEL 5
REMARK VINA RESULT:      -5.9      9.595     10.250
REMARK  Name = 
REMARK                            x       y       z     vdW  Elec       q    Type
REMARK                         _______ _______ _______ _____ _____    ______ ____
ROOT
ATOM      1  C   LIG    1        4.168  20.765   9.607  0.00  0.00    +0.034 A 
ATOM      2  C   LIG    1        4.960  19.908   8.840  0.00  0.00    +0.027 A 
ATOM      3  C   LIG    1        4.521  19.473   7.585  0.00  0.00    +0.047 A 
ATOM      4  C   LIG    1        3.292  19.895   7.095  0.00  0.00    +0.117 A 
ATOM      5  C   LIG    1        2.494  20.758   7.837  0.00  0.00    +0.047 A 
ATOM      6  C   LIG    1        2.935  21.190   9.093  0.00  0.00    +0.027 A 
ENDROOT
BRANCH   1   9
ATOM      7  C   LIG    1        5.166  22.616  12.733  0.00  0.00    +0.109 C 
ATOM      8  C   LIG    1        4.674  22.531  11.310  0.00  0.00    +0.214 C 
ATOM      9  N   LIG    1        4.522  21.220  10.895  0.00  0.00    -0.286 N 
ATOM     10  H   LIG    1        4.683  20.503  11.590  0.00  0.00    +0.155 HD
ATOM     11  O   LIG    1        4.462  23.546  10.656  0.00  0.00    -0.276 OA
ENDBRANCH   1   9
BRANCH   4  12
ATOM     12  O   LIG    1        2.900  19.434   5.875  0.00  0.00    -0.507 OA
ATOM     13  H   LIG    1        2.422  18.598   5.995  0.00  0.00    +0.292 HD
ENDBRANCH   4  12
TORSDOF 2
ENDMDL
MODEL 6
REMARK VINA RESULT:      -5.7      2.217      5.428
REMARK  Name = 
REMARK                            x       y       z     vdW  Elec       q    Type
REMARK                         _______ _______ _______ _____ _____    ______ ____
ROOT
ATOM      1  C   LIG    1        0.914  31.034   5.297  0.00  0.00    +0.034 A 
ATOM      2  C   LIG    1        0.291  31.610   4.188  0.00  0.00    +0.027 A 
ATOM      3  C   LIG    1       -0.539  32.725   4.342  0.00  0.00    +0.047 A 
ATOM      4  C   LIG    1       -0.747  33.267   5.604  0.00  0.00    +0.117 A 
ATOM      5  C   LIG    1       -0.127  32.716   6.720  0.00  0.00    +0.047 A 
ATOM      6  C   LIG    1        0.702  31.599   6.563  0.00  0.00    +0.027 A 
ENDROOT
BRANCH   1   9
ATOM      7  C   LIG    1        2.500  27.619   5.178  0.00  0.00    +0.109 C 
ATOM      8  C   LIG    1        1.334  28.572   5.103  0.00  0.00    +0.214 C 
ATOM      9  N   LIG    1        1.736  29.890   5.232  0.00  0.00    -0.286 N 
ATOM     10  H   LIG    1        2.732  30.056   5.286  0.00  0.00    +0.155 HD
ATOM     11  O   LIG    1        0.191  28.157   4.952  0.00  0.00    -0.276 OA
ENDBRANCH   1   9
BRANCH   4  12
ATOM     12  O   LIG    1       -1.575  34.342   5.708  0.00  0.00    -0.507 OA
ATOM     13  H   LIG    1       -1.963  34.355   6.597  0.00  0.00    +0.292 HD
ENDBRANCH   4  12
TORSDOF 2
ENDMDL
MODEL 7
REMARK VINA RESULT:      -5.6      9.143     10.121
REMARK  Name = 
REMARK                            x       y       z     vdW  Elec       q    Type
REMARK                         _______ _______ _______ _____ _____    ______ ____
ROOT
ATOM      1  C   LIG    1        3.661  21.687   9.711  0.00  0.00    +0.034 A 
ATOM      2  C   LIG    1        4.350  20.812  10.555  0.00  0.00    +0.027 A 
ATOM      3  C   LIG    1        4.958  21.287  11.722  0.00  0.00    +0.047 A 
ATOM      4  C   LIG    1        4.878  22.634  12.047  0.00  0.00    +0.117 A 
ATOM      5  C   LIG    1        4.187  23.519  11.229  0.00  0.00    +0.047 A 
ATOM      6  C   LIG    1        3.581  23.042  10.060  0.00  0.00    +0.027 A 
ENDROOT
BRANCH   1   9
ATOM      7  C   LIG    1        2.687  20.437   6.293  0.00  0.00    +0.109 C 
ATOM      8  C   LIG    1        3.620  20.565   7.472  0.00  0.00    +0.214 C 
ATOM      9  N   LIG    1        3.051  21.295   8.501  0.00  0.00    -0.286 N 
ATOM     10  H   LIG    1        2.091  21.584   8.374  0.00  0.00    +0.155 HD
ATOM     11  O   LIG    1        4.736  20.061   7.448  0.00  0.00    -0.276 OA
ENDBRANCH   1   9
BRANCH   4  12
ATOM     12  O   LIG    1        5.498  23.053  13.185  0.00  0.00    -0.507 OA
ATOM     13  H   LIG    1        6.178  23.704  12.950  0.00  0.00    +0.292 HD
ENDBRANCH   4  12
TORSDOF 2
ENDMDL
MODEL 8
REMARK VINA RESULT:      -5.6      3.119      3.837
REMARK  Name = 
REMARK                            x       y       z     vdW  Elec       q    Type
REMARK                         _______ _______ _______ _____ _____    ______ ____
ROOT
ATOM      1  C   LIG    1        1.155  32.537   5.341  0.00  0.00    +0.034 A 
ATOM      2  C   LIG    1        0.502  31.872   6.381  0.00  0.00    +0.027 A 
ATOM      3  C   LIG    1        0.129  30.532   6.241  0.00  0.00    +0.047 A 
ATOM      4  C   LIG    1        0.408  29.853   5.062  0.00  0.00    +0.117 A 
ATOM      5  C   LIG    1        1.067  30.492   4.019  0.00  0.00    +0.047 A 
ATOM      6  C   LIG    1        1.439  31.834   4.161  0.00  0.00    +0.027 A 
ENDROOT
BRANCH   1   9
ATOM      7  C   LIG    1        1.502  36.286   5.248  0.00  0.00    +0.109 C 
ATOM      8  C   LIG    1        0.714  35.000   5.242  0.00  0.00    +0.214 C 
ATOM      9  N   LIG    1        1.533  33.895   5.389  0.00  0.00    -0.286 N 
ATOM     10  H   LIG    1        2.515  34.077   5.549  0.00  0.00    +0.155 HD
ATOM     11  O   LIG    1       -0.504  35.009   5.112  0.00  0.00    -0.276 OA
ENDBRANCH   1   9
BRANCH   4  12
ATOM     12  O   LIG    1        0.012  28.554   4.965  0.00  0.00    -0.507 OA
ATOM     13  H   LIG    1       -0.719  28.402   5.585  0.00  0.00    +0.292 HD
ENDBRANCH   4  12
TORSDOF 2
ENDMDL
MODEL 9
REMARK VINA RESULT:      -5.5      2.877      3.405
REMARK  Name = 
REMARK                            x       y       z     vdW  Elec       q    Type
REMARK                         _______ _______ _______ _____ _____    ______ ____
ROOT
ATOM      1  C   LIG    1        1.216  32.058   5.385  0.00  0.00    +0.034 A 
ATOM      2  C   LIG    1        1.183  31.367   4.172  0.00  0.00    +0.027 A 
ATOM      3  C   LIG    1        0.861  30.006   4.141  0.00  0.00    +0.047 A 
ATOM      4  C   LIG    1        0.569  29.336   5.321  0.00  0.00    +0.117 A 
ATOM      5  C   LIG    1        0.584  30.007   6.538  0.00  0.00    +0.047 A 
ATOM      6  C   LIG    1        0.909  31.368   6.566  0.00  0.00    +0.027 A 
ENDROOT
BRANCH   1   9
ATOM      7  C   LIG    1        1.452  35.810   5.625  0.00  0.00    +0.109 C 
ATOM      8  C   LIG    1        0.708  34.499   5.632  0.00  0.00    +0.214 C 
ATOM      9  N   LIG    1        1.565  33.420   5.505  0.00  0.00    -0.286 N 
ATOM     10  H   LIG    1        2.555  33.627   5.495  0.00  0.00    +0.155 HD
ATOM     11  O   LIG    1       -0.513  34.468   5.735  0.00  0.00    -0.276 OA
ENDBRANCH   1   9
BRANCH   4  12
ATOM     12  O   LIG    1        0.276  28.008   5.245  0.00  0.00    -0.507 OA
ATOM     13  H   LIG    1        0.951  27.568   4.703  0.00  0.00    +0.292 HD
ENDBRANCH   4  12
TORSDOF 2
ENDMDL
