MODEL 1
REMARK VINA RESULT:      -5.5      0.000      0.000
REMARK  Name = 
REMARK                            x       y       z     vdW  Elec       q    Type
REMARK                         _______ _______ _______ _____ _____    ______ ____
ROOT
ATOM      1  C   LIG    1      -47.907   9.867 -41.467  0.00  0.00    +0.034 A 
ATOM      2  C   LIG    1      -47.927  11.025 -42.249  0.00  0.00    +0.027 A 
ATOM      3  C   LIG    1      -48.830  12.054 -41.966  0.00  0.00    +0.047 A 
ATOM      4  C   LIG    1      -49.714  11.929 -40.903  0.00  0.00    +0.117 A 
ATOM      5  C   LIG    1      -49.704  10.791 -40.105  0.00  0.00    +0.047 A 
ATOM      6  C   LIG    1      -48.800   9.762 -40.391  0.00  0.00    +0.027 A 
ENDROOT
BRANCH   1   9
ATOM      7  C   LIG    1      -46.137   6.723 -42.550  0.00  0.00    +0.109 C 
ATOM      8  C   LIG    1      -47.193   7.793 -42.676  0.00  0.00    +0.214 C 
ATOM      9  N   LIG    1      -47.053   8.771 -41.707  0.00  0.00    -0.286 N 
ATOM     10  H   LIG    1      -46.249   8.694 -41.099  0.00  0.00    +0.155 HD
ATOM     11  O   LIG    1      -48.047   7.734 -43.553  0.00  0.00    -0.276 OA
ENDBRANCH   1   9
BRANCH   4  12
ATOM     12  O   LIG    1      -50.586  12.950 -40.675  0.00  0.00    -0.507 OA
ATOM     13  H   LIG    1      -50.163  13.786 -40.928  0.00  0.00    +0.292 HD
ENDBRANCH   4  12
TORSDOF 2
ENDMDL
MODEL 2
REMARK VINA RESULT:      -5.5      2.580      3.347
REMARK  Name = 
REMARK                            x       y       z     vdW  Elec       q    Type
REMARK                         _______ _______ _______ _____ _____    ______ ____
ROOT
ATOM      1  C   LIG    1      -48.335  12.063 -42.749  0.00  0.00    +0.034 A 
ATOM      2  C   LIG    1      -48.303  10.992 -41.854  0.00  0.00    +0.027 A 
ATOM      3  C   LIG    1      -49.152  10.973 -40.743  0.00  0.00    +0.047 A 
ATOM      4  C   LIG    1      -50.034  12.023 -40.525  0.00  0.00    +0.117 A 
ATOM      5  C   LIG    1      -50.090  13.093 -41.410  0.00  0.00    +0.047 A 
ATOM      6  C   LIG    1      -49.238  13.111 -42.520  0.00  0.00    +0.027 A 
ENDROOT
BRANCH   1   9
ATOM      7  C   LIG    1      -46.457  11.819 -46.006  0.00  0.00    +0.109 C 
ATOM      8  C   LIG    1      -47.618  11.528 -45.089  0.00  0.00    +0.214 C 
ATOM      9  N   LIG    1      -47.489  12.175 -43.873  0.00  0.00    -0.286 N 
ATOM     10  H   LIG    1      -46.699  12.798 -43.773  0.00  0.00    +0.155 HD
ATOM     11  O   LIG    1      -48.531  10.791 -45.444  0.00  0.00    -0.276 OA
ENDBRANCH   1   9
BRANCH   4  12
ATOM     12  O   LIG    1      -50.830  11.969 -39.422  0.00  0.00    -0.507 OA
ATOM     13  H   LIG    1      -51.756  12.061 -39.698  0.00  0.00    +0.292 HD
ENDBRANCH   4  12
TORSDOF 2
ENDMDL
MODEL 3
REMARK VINA RESULT:      -5.4      1.936      2.381
REMARK  Name = 
REMARK                            x       y       z     vdW  Elec       q    Type
REMARK                         _______ _______ _______ _____ _____    ______ ____
ROOT
ATOM      1  C   LIG    1      -47.930  10.288 -41.953  0.00  0.00    +0.034 A 
ATOM      2  C   LIG    1      -48.457   9.718 -40.792  0.00  0.00    +0.027 A 
ATOM      3  C   LIG    1      -49.415  10.406 -40.038  0.00  0.00    +0.047 A 
ATOM      4  C   LIG    1      -49.847  11.661 -40.444  0.00  0.00    +0.117 A 
ATOM      5  C   LIG    1      -49.344  12.241 -41.602  0.00  0.00    +0.047 A 
ATOM      6  C   LIG    1      -48.385  11.552 -42.354  0.00  0.00    +0.027 A 
ENDROOT
BRANCH   1   9
ATOM      7  C   LIG    1      -44.836   9.099 -43.742  0.00  0.00    +0.109 C 
ATOM      8  C   LIG    1      -45.566   9.831 -42.645  0.00  0.00    +0.214 C 
ATOM      9  N   LIG    1      -46.938   9.677 -42.748  0.00  0.00    -0.286 N 
ATOM     10  H   LIG    1      -47.271   9.058 -43.475  0.00  0.00    +0.155 HD
ATOM     11  O   LIG    1      -44.953  10.471 -41.799  0.00  0.00    -0.276 OA
ENDBRANCH   1   9
BRANCH   4  12
ATOM     12  O   LIG    1      -50.769  12.299 -39.671  0.00  0.00    -0.507 OA
ATOM     13  H   LIG    1      -50.416  13.165 -39.412  0.00  0.00    +0.292 HD
ENDBRANCH   4  12
TORSDOF 2
ENDMDL
MODEL 4
REMARK VINA RESULT:      -5.3     12.872     14.499
REMARK  Name = 
REMARK                            x       y       z     vdW  Elec       q    Type
REMARK                         _______ _______ _______ _____ _____    ______ ____
ROOT
ATOM      1  C   LIG    1      -34.963   6.225 -37.518  0.00  0.00    +0.034 A 
ATOM      2  C   LIG    1      -36.110   7.022 -37.513  0.00  0.00    +0.027 A 
ATOM      3  C   LIG    1      -36.549   7.636 -38.691  0.00  0.00    +0.047 A 
ATOM      4  C   LIG    1      -35.845   7.454 -39.873  0.00  0.00    +0.117 A 
ATOM      5  C   LIG    1      -34.708   6.655 -39.902  0.00  0.00    +0.047 A 
ATOM      6  C   LIG    1      -34.269   6.043 -38.722  0.00  0.00    +0.027 A 
ENDROOT
BRANCH   1   9
ATOM      7  C   LIG    1      -34.129   4.141 -34.492  0.00  0.00    +0.109 C 
ATOM      8  C   LIG    1      -34.880   4.436 -35.766  0.00  0.00    +0.214 C 
ATOM      9  N   LIG    1      -34.435   5.600 -36.368  0.00  0.00    -0.286 N 
ATOM     10  H   LIG    1      -33.643   6.058 -35.939  0.00  0.00    +0.155 HD
ATOM     11  O   LIG    1      -35.771   3.691 -36.157  0.00  0.00    -0.276 OA
ENDBRANCH   1   9
BRANCH   4  12
ATOM     12  O   LIG    1      -36.301   8.084 -40.990  0.00  0.00    -0.507 OA
ATOM     13  H   LIG    1      -37.044   7.577 -41.355  0.00  0.00    +0.292 HD
ENDBRANCH   4  12
TORSDOF 2
ENDMDL
MODEL 5
REMARK VINA RESULT:      -5.2      1.462      2.236
REMARK  Name = 
REMARK                            x       y       z     vdW  Elec       q    Type
REMARK                         _______ _______ _______ _____ _____    ______ ____
ROOT
ATOM      1  C   LIG    1      -47.134   8.552 -40.892  0.00  0.00    +0.034 A 
ATOM      2  C   LIG    1      -47.226   8.544 -39.498  0.00  0.00    +0.027 A 
ATOM      3  C   LIG    1      -48.055   9.458 -38.839  0.00  0.00    +0.047 A 
ATOM      4  C   LIG    1      -48.792  10.379 -39.570  0.00  0.00    +0.117 A 
ATOM      5  C   LIG    1      -48.724  10.397 -40.958  0.00  0.00    +0.047 A 
ATOM      6  C   LIG    1      -47.893   9.483 -41.616  0.00  0.00    +0.027 A 
ENDROOT
BRANCH   1   9
ATOM      7  C   LIG    1      -45.491   6.089 -43.220  0.00  0.00    +0.109 C 
ATOM      8  C   LIG    1      -46.613   6.996 -42.784  0.00  0.00    +0.214 C 
ATOM      9  N   LIG    1      -46.296   7.689 -41.629  0.00  0.00    -0.286 N 
ATOM     10  H   LIG    1      -45.360   7.564 -41.269  0.00  0.00    +0.155 HD
ATOM     11  O   LIG    1      -47.658   7.056 -43.423  0.00  0.00    -0.276 OA
ENDBRANCH   1   9
BRANCH   4  12
ATOM     12  O   LIG    1      -49.573  11.260 -38.885  0.00  0.00    -0.507 OA
ATOM     13  H   LIG    1      -49.457  11.107 -37.933  0.00  0.00    +0.292 HD
ENDBRANCH   4  12
TORSDOF 2
ENDMDL
MODEL 6
REMARK VINA RESULT:      -5.1     10.596     11.959
REMARK  Name = 
REMARK                            x       y       z     vdW  Elec       q    Type
REMARK                         _______ _______ _______ _____ _____    ______ ____
ROOT
ATOM      1  C   LIG    1      -46.303  16.625 -33.180  0.00  0.00    +0.034 A 
ATOM      2  C   LIG    1      -45.845  17.223 -32.004  0.00  0.00    +0.027 A 
ATOM      3  C   LIG    1      -45.179  16.464 -31.037  0.00  0.00    +0.047 A 
ATOM      4  C   LIG    1      -44.969  15.107 -31.243  0.00  0.00    +0.117 A 
ATOM      5  C   LIG    1      -45.405  14.494 -32.412  0.00  0.00    +0.047 A 
ATOM      6  C   LIG    1      -46.073  15.256 -33.378  0.00  0.00    +0.027 A 
ENDROOT
BRANCH   1   9
ATOM      7  C   LIG    1      -48.762  18.349 -35.454  0.00  0.00    +0.109 C 
ATOM      8  C   LIG    1      -48.324  17.750 -34.141  0.00  0.00    +0.214 C 
ATOM      9  N   LIG    1      -47.012  17.312 -34.188  0.00  0.00    -0.286 N 
ATOM     10  H   LIG    1      -46.501  17.503 -35.039  0.00  0.00    +0.155 HD
ATOM     11  O   LIG    1      -49.094  17.686 -33.190  0.00  0.00    -0.276 OA
ENDBRANCH   1   9
BRANCH   4  12
ATOM     12  O   LIG    1      -44.330  14.405 -30.267  0.00  0.00    -0.507 OA
ATOM     13  H   LIG    1      -43.554  13.967 -30.652  0.00  0.00    +0.292 HD
ENDBRANCH   4  12
TORSDOF 2
ENDMDL
MODEL 7
REMARK VINA RESULT:      -4.9      1.984      2.384
REMARK  Name = 
REMARK                            x       y       z     vdW  Elec       q    Type
REMARK                         _______ _______ _______ _____ _____    ______ ____
ROOT
ATOM      1  C   LIG    1      -47.679   9.785 -43.175  0.00  0.00    +0.034 A 
ATOM      2  C   LIG    1      -47.744  10.324 -44.461  0.00  0.00    +0.027 A 
ATOM      3  C   LIG    1      -48.168  11.643 -44.655  0.00  0.00    +0.047 A 
ATOM      4  C   LIG    1      -48.527  12.424 -43.565  0.00  0.00    +0.117 A 
ATOM      5  C   LIG    1      -48.459  11.910 -42.275  0.00  0.00    +0.047 A 
ATOM      6  C   LIG    1      -48.036  10.590 -42.084  0.00  0.00    +0.027 A 
ENDROOT
BRANCH   1   9
ATOM      7  C   LIG    1      -46.052   6.412 -42.766  0.00  0.00    +0.109 C 
ATOM      8  C   LIG    1      -46.046   7.888 -43.072  0.00  0.00    +0.214 C 
ATOM      9  N   LIG    1      -47.296   8.456 -42.898  0.00  0.00    -0.286 N 
ATOM     10  H   LIG    1      -48.020   7.852 -42.532  0.00  0.00    +0.155 HD
ATOM     11  O   LIG    1      -45.019   8.451 -43.433  0.00  0.00    -0.276 OA
ENDBRANCH   1   9
BRANCH   4  12
ATOM     12  O   LIG    1      -48.949  13.696 -43.803  0.00  0.00    -0.507 OA
ATOM     13  H   LIG    1      -48.720  14.251 -43.040  0.00  0.00    +0.292 HD
ENDBRANCH   4  12
TORSDOF 2
ENDMDL
MODEL 8
REMARK VINA RESULT:      -4.8      9.473     10.766
REMARK  Name = 
REMARK                            x       y       z     vdW  Elec       q    Type
REMARK                         _______ _______ _______ _____ _____    ______ ____
ROOT
ATOM      1  C   LIG    1      -48.098  15.585 -34.025  0.00  0.00    +0.034 A 
ATOM      2  C   LIG    1      -47.036  15.035 -34.745  0.00  0.00    +0.027 A 
ATOM      3  C   LIG    1      -45.829  14.733 -34.107  0.00  0.00    +0.047 A 
ATOM      4  C   LIG    1      -45.682  14.978 -32.749  0.00  0.00    +0.117 A 
ATOM      5  C   LIG    1      -46.729  15.514 -32.010  0.00  0.00    +0.047 A 
ATOM      6  C   LIG    1      -47.936  15.817 -32.651  0.00  0.00    +0.027 A 
ENDROOT
BRANCH   1   9
ATOM      7  C   LIG    1      -51.189  17.223 -35.423  0.00  0.00    +0.109 C 
ATOM      8  C   LIG    1      -49.764  17.223 -34.927  0.00  0.00    +0.214 C 
ATOM      9  N   LIG    1      -49.334  15.949 -34.599  0.00  0.00    -0.286 N 
ATOM     10  H   LIG    1      -49.975  15.191 -34.791  0.00  0.00    +0.155 HD
ATOM     11  O   LIG    1      -49.126  18.266 -34.845  0.00  0.00    -0.276 OA
ENDBRANCH   1   9
BRANCH   4  12
ATOM     12  O   LIG    1      -44.483  14.683 -32.173  0.00  0.00    -0.507 OA
ATOM     13  H   LIG    1      -44.072  15.506 -31.864  0.00  0.00    +0.292 HD
ENDBRANCH   4  12
TORSDOF 2
ENDMDL
MODEL 9
REMARK VINA RESULT:      -4.7     11.314     13.089
REMARK  Name = 
REMARK                            x       y       z     vdW  Elec       q    Type
REMARK                         _______ _______ _______ _____ _____    ______ ____
ROOT
ATOM      1  C   LIG    1      -45.812  16.954 -31.543  0.00  0.00    +0.034 A 
ATOM      2  C   LIG    1      -45.070  15.834 -31.158  0.00  0.00    +0.027 A 
ATOM      3  C   LIG    1      -44.832  14.797 -32.065  0.00  0.00    +0.047 A 
ATOM      4  C   LIG    1      -45.333  14.877 -33.358  0.00  0.00    +0.117 A 
ATOM      5  C   LIG    1      -46.063  15.987 -33.765  0.00  0.00    +0.047 A 
ATOM      6  C   LIG    1      -46.302  17.023 -32.855  0.00  0.00    +0.027 A 
ENDROOT
BRANCH   1   9
ATOM      7  C   LIG    1      -47.303  19.533 -29.238  0.00  0.00    +0.109 C 
ATOM      8  C   LIG    1      -47.298  18.214 -29.968  0.00  0.00    +0.214 C 
ATOM      9  N   LIG    1      -46.126  18.024 -30.679  0.00  0.00    -0.286 N 
ATOM     10  H   LIG    1      -45.411  18.731 -30.571  0.00  0.00    +0.155 HD
ATOM     11  O   LIG    1      -48.256  17.453 -29.900  0.00  0.00    -0.276 OA
ENDBRANCH   1   9
BRANCH   4  12
ATOM     12  O   LIG    1      -45.089  13.837 -34.202  0.00  0.00    -0.507 OA
ATOM     13  H   LIG    1      -45.821  13.767 -34.834  0.00  0.00    +0.292 HD
ENDBRANCH   4  12
TORSDOF 2
ENDMDL
