MODEL 1
REMARK VINA RESULT:      -6.0      0.000      0.000
REMARK  Name = 
REMARK                            x       y       z     vdW  Elec       q    Type
REMARK                         _______ _______ _______ _____ _____    ______ ____
ROOT
ATOM      1  C   LIG    1       26.365 -25.992 -12.388  0.00  0.00    +0.034 A 
ATOM      2  C   LIG    1       25.106 -25.589 -11.937  0.00  0.00    +0.027 A 
ATOM      3  C   LIG    1       24.663 -24.280 -12.153  0.00  0.00    +0.047 A 
ATOM      4  C   LIG    1       25.476 -23.373 -12.819  0.00  0.00    +0.117 A 
ATOM      5  C   LIG    1       26.727 -23.756 -13.286  0.00  0.00    +0.047 A 
ATOM      6  C   LIG    1       27.169 -25.066 -13.068  0.00  0.00    +0.027 A 
ENDROOT
BRANCH   1   9
ATOM      7  C   LIG    1       27.861 -29.224 -11.159  0.00  0.00    +0.109 C 
ATOM      8  C   LIG    1       27.207 -27.878 -10.971  0.00  0.00    +0.214 C 
ATOM      9  N   LIG    1       26.899 -27.281 -12.180  0.00  0.00    -0.286 N 
ATOM     10  H   LIG    1       27.076 -27.827 -13.013  0.00  0.00    +0.155 HD
ATOM     11  O   LIG    1       27.009 -27.427  -9.849  0.00  0.00    -0.276 OA
ENDBRANCH   1   9
BRANCH   4  12
ATOM     12  O   LIG    1       25.009 -22.106 -12.992  0.00  0.00    -0.507 OA
ATOM     13  H   LIG    1       24.958 -21.669 -12.127  0.00  0.00    +0.292 HD
ENDBRANCH   4  12
TORSDOF 2
ENDMDL
MODEL 2
REMARK VINA RESULT:      -6.0      1.857      1.897
REMARK  Name = 
REMARK                            x       y       z     vdW  Elec       q    Type
REMARK                         _______ _______ _______ _____ _____    ______ ____
ROOT
ATOM      1  C   LIG    1       25.310 -25.780 -11.557  0.00  0.00    +0.034 A 
ATOM      2  C   LIG    1       24.162 -25.029 -11.815  0.00  0.00    +0.027 A 
ATOM      3  C   LIG    1       24.266 -23.691 -12.212  0.00  0.00    +0.047 A 
ATOM      4  C   LIG    1       25.516 -23.105 -12.353  0.00  0.00    +0.117 A 
ATOM      5  C   LIG    1       26.672 -23.838 -12.113  0.00  0.00    +0.047 A 
ATOM      6  C   LIG    1       26.565 -25.175 -11.715  0.00  0.00    +0.027 A 
ENDROOT
BRANCH   1   9
ATOM      7  C   LIG    1       25.085 -29.508 -11.063  0.00  0.00    +0.109 C 
ATOM      8  C   LIG    1       25.178 -28.258 -11.902  0.00  0.00    +0.214 C 
ATOM      9  N   LIG    1       25.291 -27.122 -11.120  0.00  0.00    -0.286 N 
ATOM     10  H   LIG    1       25.367 -27.264 -10.122  0.00  0.00    +0.155 HD
ATOM     11  O   LIG    1       25.144 -28.317 -13.125  0.00  0.00    -0.276 OA
ENDBRANCH   1   9
BRANCH   4  12
ATOM     12  O   LIG    1       25.568 -21.796 -12.726  0.00  0.00    -0.507 OA
ATOM     13  H   LIG    1       25.239 -21.248 -11.996  0.00  0.00    +0.292 HD
ENDBRANCH   4  12
TORSDOF 2
ENDMDL
MODEL 3
REMARK VINA RESULT:      -5.8      1.011      1.774
REMARK  Name = 
REMARK                            x       y       z     vdW  Elec       q    Type
REMARK                         _______ _______ _______ _____ _____    ______ ____
ROOT
ATOM      1  C   LIG    1       25.568 -25.909 -11.606  0.00  0.00    +0.034 A 
ATOM      2  C   LIG    1       26.627 -25.195 -12.172  0.00  0.00    +0.027 A 
ATOM      3  C   LIG    1       26.441 -23.879 -12.607  0.00  0.00    +0.047 A 
ATOM      4  C   LIG    1       25.198 -23.274 -12.476  0.00  0.00    +0.117 A 
ATOM      5  C   LIG    1       24.135 -23.962 -11.904  0.00  0.00    +0.047 A 
ATOM      6  C   LIG    1       24.323 -25.280 -11.471  0.00  0.00    +0.027 A 
ENDROOT
BRANCH   1   9
ATOM      7  C   LIG    1       26.354 -29.248 -10.048  0.00  0.00    +0.109 C 
ATOM      8  C   LIG    1       26.430 -27.744 -10.135  0.00  0.00    +0.214 C 
ATOM      9  N   LIG    1       25.664 -27.249 -11.176  0.00  0.00    -0.286 N 
ATOM     10  H   LIG    1       25.110 -27.921 -11.689  0.00  0.00    +0.155 HD
ATOM     11  O   LIG    1       27.114 -27.103  -9.347  0.00  0.00    -0.276 OA
ENDBRANCH   1   9
BRANCH   4  12
ATOM     12  O   LIG    1       25.060 -21.997 -12.927  0.00  0.00    -0.507 OA
ATOM     13  H   LIG    1       24.162 -21.883 -13.277  0.00  0.00    +0.292 HD
ENDBRANCH   4  12
TORSDOF 2
ENDMDL
MODEL 4
REMARK VINA RESULT:      -5.7      2.257      5.612
REMARK  Name = 
REMARK                            x       y       z     vdW  Elec       q    Type
REMARK                         _______ _______ _______ _____ _____    ______ ____
ROOT
ATOM      1  C   LIG    1       26.767 -28.522 -11.614  0.00  0.00    +0.034 A 
ATOM      2  C   LIG    1       27.466 -29.125 -10.566  0.00  0.00    +0.027 A 
ATOM      3  C   LIG    1       27.034 -30.346 -10.038  0.00  0.00    +0.047 A 
ATOM      4  C   LIG    1       25.905 -30.966 -10.556  0.00  0.00    +0.117 A 
ATOM      5  C   LIG    1       25.202 -30.389 -11.607  0.00  0.00    +0.047 A 
ATOM      6  C   LIG    1       25.635 -29.166 -12.132  0.00  0.00    +0.027 A 
ENDROOT
BRANCH   1   9
ATOM      7  C   LIG    1       27.194 -24.938 -12.693  0.00  0.00    +0.109 C 
ATOM      8  C   LIG    1       26.690 -26.023 -11.776  0.00  0.00    +0.214 C 
ATOM      9  N   LIG    1       27.116 -27.277 -12.178  0.00  0.00    -0.286 N 
ATOM     10  H   LIG    1       27.748 -27.309 -12.967  0.00  0.00    +0.155 HD
ATOM     11  O   LIG    1       25.986 -25.754 -10.810  0.00  0.00    -0.276 OA
ENDBRANCH   1   9
BRANCH   4  12
ATOM     12  O   LIG    1       25.514 -32.146 -10.000  0.00  0.00    -0.507 OA
ATOM     13  H   LIG    1       25.431 -32.028  -9.040  0.00  0.00    +0.292 HD
ENDBRANCH   4  12
TORSDOF 2
ENDMDL
MODEL 5
REMARK VINA RESULT:      -5.6      2.621      2.913
REMARK  Name = 
REMARK                            x       y       z     vdW  Elec       q    Type
REMARK                         _______ _______ _______ _____ _____    ______ ____
ROOT
ATOM      1  C   LIG    1       24.424 -26.195 -11.400  0.00  0.00    +0.034 A 
ATOM      2  C   LIG    1       23.615 -25.102 -11.718  0.00  0.00    +0.027 A 
ATOM      3  C   LIG    1       24.189 -23.867 -12.038  0.00  0.00    +0.047 A 
ATOM      4  C   LIG    1       25.569 -23.723 -12.040  0.00  0.00    +0.117 A 
ATOM      5  C   LIG    1       26.393 -24.801 -11.738  0.00  0.00    +0.047 A 
ATOM      6  C   LIG    1       25.817 -26.035 -11.417  0.00  0.00    +0.027 A 
ENDROOT
BRANCH   1   9
ATOM      7  C   LIG    1       22.912 -29.633 -11.107  0.00  0.00    +0.109 C 
ATOM      8  C   LIG    1       23.469 -28.462 -11.876  0.00  0.00    +0.214 C 
ATOM      9  N   LIG    1       23.925 -27.463 -11.033  0.00  0.00    -0.286 N 
ATOM     10  H   LIG    1       23.897 -27.659 -10.042  0.00  0.00    +0.155 HD
ATOM     11  O   LIG    1       23.480 -28.461 -13.101  0.00  0.00    -0.276 OA
ENDBRANCH   1   9
BRANCH   4  12
ATOM     12  O   LIG    1       26.082 -22.498 -12.342  0.00  0.00    -0.507 OA
ATOM     13  H   LIG    1       26.685 -22.226 -11.631  0.00  0.00    +0.292 HD
ENDBRANCH   4  12
TORSDOF 2
ENDMDL
MODEL 6
REMARK VINA RESULT:      -5.3      3.291      5.901
REMARK  Name = 
REMARK                            x       y       z     vdW  Elec       q    Type
REMARK                         _______ _______ _______ _____ _____    ______ ____
ROOT
ATOM      1  C   LIG    1       24.035 -28.072 -11.685  0.00  0.00    +0.034 A 
ATOM      2  C   LIG    1       25.089 -28.779 -12.268  0.00  0.00    +0.027 A 
ATOM      3  C   LIG    1       25.271 -30.137 -11.989  0.00  0.00    +0.047 A 
ATOM      4  C   LIG    1       24.399 -30.791 -11.130  0.00  0.00    +0.117 A 
ATOM      5  C   LIG    1       23.336 -30.111 -10.548  0.00  0.00    +0.047 A 
ATOM      6  C   LIG    1       23.158 -28.751 -10.827  0.00  0.00    +0.027 A 
ENDROOT
BRANCH   1   9
ATOM      7  C   LIG    1       23.814 -24.312 -11.639  0.00  0.00    +0.109 C 
ATOM      8  C   LIG    1       24.399 -25.638 -11.221  0.00  0.00    +0.214 C 
ATOM      9  N   LIG    1       23.804 -26.695 -11.887  0.00  0.00    -0.286 N 
ATOM     10  H   LIG    1       23.126 -26.458 -12.598  0.00  0.00    +0.155 HD
ATOM     11  O   LIG    1       25.289 -25.696 -10.381  0.00  0.00    -0.276 OA
ENDBRANCH   1   9
BRANCH   4  12
ATOM     12  O   LIG    1       24.624 -32.110 -10.876  0.00  0.00    -0.507 OA
ATOM     13  H   LIG    1       23.881 -32.462 -10.359  0.00  0.00    +0.292 HD
ENDBRANCH   4  12
TORSDOF 2
ENDMDL
MODEL 7
REMARK VINA RESULT:      -5.3      3.653      5.625
REMARK  Name = 
REMARK                            x       y       z     vdW  Elec       q    Type
REMARK                         _______ _______ _______ _____ _____    ______ ____
ROOT
ATOM      1  C   LIG    1       23.259 -27.031 -11.660  0.00  0.00    +0.034 A 
ATOM      2  C   LIG    1       23.359 -27.537 -10.362  0.00  0.00    +0.027 A 
ATOM      3  C   LIG    1       23.081 -28.883 -10.104  0.00  0.00    +0.047 A 
ATOM      4  C   LIG    1       22.704 -29.725 -11.141  0.00  0.00    +0.117 A 
ATOM      5  C   LIG    1       22.611 -29.246 -12.442  0.00  0.00    +0.047 A 
ATOM      6  C   LIG    1       22.888 -27.898 -12.698  0.00  0.00    +0.027 A 
ENDROOT
BRANCH   1   9
ATOM      7  C   LIG    1       24.535 -23.553 -12.342  0.00  0.00    +0.109 C 
ATOM      8  C   LIG    1       24.704 -25.022 -12.046  0.00  0.00    +0.214 C 
ATOM      9  N   LIG    1       23.489 -25.681 -11.998  0.00  0.00    -0.286 N 
ATOM     10  H   LIG    1       22.669 -25.136 -12.229  0.00  0.00    +0.155 HD
ATOM     11  O   LIG    1       25.817 -25.504 -11.873  0.00  0.00    -0.276 OA
ENDBRANCH   1   9
BRANCH   4  12
ATOM     12  O   LIG    1       22.428 -31.024 -10.840  0.00  0.00    -0.507 OA
ATOM     13  H   LIG    1       23.246 -31.460 -10.551  0.00  0.00    +0.292 HD
ENDBRANCH   4  12
TORSDOF 2
ENDMDL
MODEL 8
REMARK VINA RESULT:      -5.3      1.825      4.982
REMARK  Name = 
REMARK                            x       y       z     vdW  Elec       q    Type
REMARK                         _______ _______ _______ _____ _____    ______ ____
ROOT
ATOM      1  C   LIG    1       25.994 -26.361 -11.890  0.00  0.00    +0.034 A 
ATOM      2  C   LIG    1       25.680 -27.500 -12.635  0.00  0.00    +0.027 A 
ATOM      3  C   LIG    1       25.815 -28.773 -12.072  0.00  0.00    +0.047 A 
ATOM      4  C   LIG    1       26.261 -28.910 -10.765  0.00  0.00    +0.117 A 
ATOM      5  C   LIG    1       26.568 -27.790 -10.002  0.00  0.00    +0.047 A 
ATOM      6  C   LIG    1       26.434 -26.517 -10.568  0.00  0.00    +0.027 A 
ENDROOT
BRANCH   1   9
ATOM      7  C   LIG    1       25.125 -22.867 -12.997  0.00  0.00    +0.109 C 
ATOM      8  C   LIG    1       24.894 -24.134 -12.212  0.00  0.00    +0.214 C 
ATOM      9  N   LIG    1       25.919 -25.046 -12.394  0.00  0.00    -0.286 N 
ATOM     10  H   LIG    1       26.704 -24.739 -12.952  0.00  0.00    +0.155 HD
ATOM     11  O   LIG    1       23.892 -24.272 -11.521  0.00  0.00    -0.276 OA
ENDBRANCH   1   9
BRANCH   4  12
ATOM     12  O   LIG    1       26.392 -30.170 -10.265  0.00  0.00    -0.507 OA
ATOM     13  H   LIG    1       26.577 -30.781 -10.996  0.00  0.00    +0.292 HD
ENDBRANCH   4  12
TORSDOF 2
ENDMDL
MODEL 9
REMARK VINA RESULT:      -5.2      3.668      6.452
REMARK  Name = 
REMARK                            x       y       z     vdW  Elec       q    Type
REMARK                         _______ _______ _______ _____ _____    ______ ____
ROOT
ATOM      1  C   LIG    1       24.343 -28.329 -10.247  0.00  0.00    +0.034 A 
ATOM      2  C   LIG    1       25.593 -28.839  -9.890  0.00  0.00    +0.027 A 
ATOM      3  C   LIG    1       25.736 -30.188  -9.548  0.00  0.00    +0.047 A 
ATOM      4  C   LIG    1       24.631 -31.028  -9.563  0.00  0.00    +0.117 A 
ATOM      5  C   LIG    1       23.380 -30.544  -9.926  0.00  0.00    +0.047 A 
ATOM      6  C   LIG    1       23.239 -29.193 -10.266  0.00  0.00    +0.027 A 
ENDROOT
BRANCH   1   9
ATOM      7  C   LIG    1       23.517 -24.972 -11.743  0.00  0.00    +0.109 C 
ATOM      8  C   LIG    1       23.483 -26.479 -11.700  0.00  0.00    +0.214 C 
ATOM      9  N   LIG    1       24.109 -26.976 -10.570  0.00  0.00    -0.286 N 
ATOM     10  H   LIG    1       24.438 -26.295  -9.899  0.00  0.00    +0.155 HD
ATOM     11  O   LIG    1       22.953 -27.122 -12.598  0.00  0.00    -0.276 OA
ENDBRANCH   1   9
BRANCH   4  12
ATOM     12  O   LIG    1       24.815 -32.329  -9.207  0.00  0.00    -0.507 OA
ATOM     13  H   LIG    1       24.078 -32.607  -8.641  0.00  0.00    +0.292 HD
ENDBRANCH   4  12
TORSDOF 2
ENDMDL
