MODEL 1
REMARK VINA RESULT:      -6.2      0.000      0.000
REMARK  Name = 
REMARK                            x       y       z     vdW  Elec       q    Type
REMARK                         _______ _______ _______ _____ _____    ______ ____
ROOT
ATOM      1  C   LIG    1       13.969  46.207  28.525  0.00  0.00    +0.034 A 
ATOM      2  C   LIG    1       14.241  47.494  28.055  0.00  0.00    +0.027 A 
ATOM      3  C   LIG    1       13.201  48.324  27.625  0.00  0.00    +0.047 A 
ATOM      4  C   LIG    1       11.890  47.871  27.665  0.00  0.00    +0.117 A 
ATOM      5  C   LIG    1       11.596  46.599  28.141  0.00  0.00    +0.047 A 
ATOM      6  C   LIG    1       12.638  45.769  28.569  0.00  0.00    +0.027 A 
ENDROOT
BRANCH   1   9
ATOM      7  C   LIG    1       16.734  43.684  28.948  0.00  0.00    +0.109 C 
ATOM      8  C   LIG    1       15.916  44.674  28.158  0.00  0.00    +0.214 C 
ATOM      9  N   LIG    1       14.962  45.297  28.944  0.00  0.00    -0.286 N 
ATOM     10  H   LIG    1       14.974  45.076  29.931  0.00  0.00    +0.155 HD
ATOM     11  O   LIG    1       16.122  44.849  26.963  0.00  0.00    -0.276 OA
ENDBRANCH   1   9
BRANCH   4  12
ATOM     12  O   LIG    1       10.912  48.709  27.221  0.00  0.00    -0.507 OA
ATOM     13  H   LIG    1       10.054  48.263  27.307  0.00  0.00    +0.292 HD
ENDBRANCH   4  12
TORSDOF 2
ENDMDL
MODEL 2
REMARK VINA RESULT:      -6.2     11.004     11.589
REMARK  Name = 
REMARK                            x       y       z     vdW  Elec       q    Type
REMARK                         _______ _______ _______ _____ _____    ______ ____
ROOT
ATOM      1  C   LIG    1       17.390  49.332  17.493  0.00  0.00    +0.034 A 
ATOM      2  C   LIG    1       17.077  50.265  18.483  0.00  0.00    +0.027 A 
ATOM      3  C   LIG    1       16.295  49.895  19.583  0.00  0.00    +0.047 A 
ATOM      4  C   LIG    1       15.827  48.593  19.694  0.00  0.00    +0.117 A 
ATOM      5  C   LIG    1       16.136  47.645  18.726  0.00  0.00    +0.047 A 
ATOM      6  C   LIG    1       16.917  48.018  17.626  0.00  0.00    +0.027 A 
ENDROOT
BRANCH   1   9
ATOM      7  C   LIG    1       19.933  50.234  14.864  0.00  0.00    +0.109 C 
ATOM      8  C   LIG    1       19.510  49.820  16.251  0.00  0.00    +0.214 C 
ATOM      9  N   LIG    1       18.142  49.633  16.337  0.00  0.00    -0.286 N 
ATOM     10  H   LIG    1       17.617  49.723  15.477  0.00  0.00    +0.155 HD
ATOM     11  O   LIG    1       20.335  49.690  17.148  0.00  0.00    -0.276 OA
ENDBRANCH   1   9
BRANCH   4  12
ATOM     12  O   LIG    1       15.057  48.283  20.773  0.00  0.00    -0.507 OA
ATOM     13  H   LIG    1       14.474  47.543  20.540  0.00  0.00    +0.292 HD
ENDBRANCH   4  12
TORSDOF 2
ENDMDL
MODEL 3
REMARK VINA RESULT:      -6.1     10.950     11.581
REMARK  Name = 
REMARK                            x       y       z     vdW  Elec       q    Type
REMARK                         _______ _______ _______ _____ _____    ______ ____
ROOT
ATOM      1  C   LIG    1       17.310  49.158  17.446  0.00  0.00    +0.034 A 
ATOM      2  C   LIG    1       16.807  47.871  17.646  0.00  0.00    +0.027 A 
ATOM      3  C   LIG    1       16.053  47.575  18.786  0.00  0.00    +0.047 A 
ATOM      4  C   LIG    1       15.799  48.565  19.726  0.00  0.00    +0.117 A 
ATOM      5  C   LIG    1       16.279  49.856  19.540  0.00  0.00    +0.047 A 
ATOM      6  C   LIG    1       17.036  50.149  18.399  0.00  0.00    +0.027 A 
ENDROOT
BRANCH   1   9
ATOM      7  C   LIG    1       19.972  50.146  14.970  0.00  0.00    +0.109 C 
ATOM      8  C   LIG    1       19.488  49.609  16.293  0.00  0.00    +0.214 C 
ATOM      9  N   LIG    1       18.108  49.528  16.342  0.00  0.00    -0.286 N 
ATOM     10  H   LIG    1       17.610  49.761  15.493  0.00  0.00    +0.155 HD
ATOM     11  O   LIG    1       20.281  49.307  17.178  0.00  0.00    -0.276 OA
ENDBRANCH   1   9
BRANCH   4  12
ATOM     12  O   LIG    1       15.073  48.228  20.827  0.00  0.00    -0.507 OA
ATOM     13  H   LIG    1       15.615  47.661  21.399  0.00  0.00    +0.292 HD
ENDBRANCH   4  12
TORSDOF 2
ENDMDL
MODEL 4
REMARK VINA RESULT:      -6.1      1.426      2.236
REMARK  Name = 
REMARK                            x       y       z     vdW  Elec       q    Type
REMARK                         _______ _______ _______ _____ _____    ______ ____
ROOT
ATOM      1  C   LIG    1       14.643  47.302  28.307  0.00  0.00    +0.034 A 
ATOM      2  C   LIG    1       13.262  47.347  28.104  0.00  0.00    +0.027 A 
ATOM      3  C   LIG    1       12.611  48.572  27.929  0.00  0.00    +0.047 A 
ATOM      4  C   LIG    1       13.339  49.754  27.956  0.00  0.00    +0.117 A 
ATOM      5  C   LIG    1       14.715  49.732  28.145  0.00  0.00    +0.047 A 
ATOM      6  C   LIG    1       15.364  48.505  28.321  0.00  0.00    +0.027 A 
ENDROOT
BRANCH   1   9
ATOM      7  C   LIG    1       16.531  44.045  28.185  0.00  0.00    +0.109 C 
ATOM      8  C   LIG    1       15.925  45.281  27.569  0.00  0.00    +0.214 C 
ATOM      9  N   LIG    1       15.368  46.112  28.525  0.00  0.00    -0.286 N 
ATOM     10  H   LIG    1       15.492  45.838  29.490  0.00  0.00    +0.155 HD
ATOM     11  O   LIG    1       15.954  45.459  26.357  0.00  0.00    -0.276 OA
ENDBRANCH   1   9
BRANCH   4  12
ATOM     12  O   LIG    1       12.661  50.924  27.798  0.00  0.00    -0.507 OA
ATOM     13  H   LIG    1       13.108  51.457  27.121  0.00  0.00    +0.292 HD
ENDBRANCH   4  12
TORSDOF 2
ENDMDL
MODEL 5
REMARK VINA RESULT:      -5.8      2.148      5.185
REMARK  Name = 
REMARK                            x       y       z     vdW  Elec       q    Type
REMARK                         _______ _______ _______ _____ _____    ______ ____
ROOT
ATOM      1  C   LIG    1       13.622  47.937  27.752  0.00  0.00    +0.034 A 
ATOM      2  C   LIG    1       12.908  46.781  28.073  0.00  0.00    +0.027 A 
ATOM      3  C   LIG    1       13.567  45.663  28.595  0.00  0.00    +0.047 A 
ATOM      4  C   LIG    1       14.940  45.700  28.797  0.00  0.00    +0.117 A 
ATOM      5  C   LIG    1       15.669  46.844  28.496  0.00  0.00    +0.047 A 
ATOM      6  C   LIG    1       15.007  47.961  27.973  0.00  0.00    +0.027 A 
ENDROOT
BRANCH   1   9
ATOM      7  C   LIG    1       11.544  50.905  26.723  0.00  0.00    +0.109 C 
ATOM      8  C   LIG    1       11.932  49.783  27.652  0.00  0.00    +0.214 C 
ATOM      9  N   LIG    1       13.039  49.092  27.191  0.00  0.00    -0.286 N 
ATOM     10  H   LIG    1       13.482  49.453  26.356  0.00  0.00    +0.155 HD
ATOM     11  O   LIG    1       11.292  49.563  28.674  0.00  0.00    -0.276 OA
ENDBRANCH   1   9
BRANCH   4  12
ATOM     12  O   LIG    1       15.541  44.583  29.292  0.00  0.00    -0.507 OA
ATOM     13  H   LIG    1       14.862  43.913  29.470  0.00  0.00    +0.292 HD
ENDBRANCH   4  12
TORSDOF 2
ENDMDL
MODEL 6
REMARK VINA RESULT:      -5.8     11.174     12.200
REMARK  Name = 
REMARK                            x       y       z     vdW  Elec       q    Type
REMARK                         _______ _______ _______ _____ _____    ______ ____
ROOT
ATOM      1  C   LIG    1       18.342  49.075  18.279  0.00  0.00    +0.034 A 
ATOM      2  C   LIG    1       19.447  48.244  18.475  0.00  0.00    +0.027 A 
ATOM      3  C   LIG    1       20.564  48.342  17.638  0.00  0.00    +0.047 A 
ATOM      4  C   LIG    1       20.578  49.271  16.606  0.00  0.00    +0.117 A 
ATOM      5  C   LIG    1       19.494  50.116  16.401  0.00  0.00    +0.047 A 
ATOM      6  C   LIG    1       18.377  50.015  17.239  0.00  0.00    +0.027 A 
ENDROOT
BRANCH   1   9
ATOM      7  C   LIG    1       15.041  48.358  19.946  0.00  0.00    +0.109 C 
ATOM      8  C   LIG    1       16.212  48.014  19.060  0.00  0.00    +0.214 C 
ATOM      9  N   LIG    1       17.166  49.016  19.056  0.00  0.00    -0.286 N 
ATOM     10  H   LIG    1       17.005  49.797  19.678  0.00  0.00    +0.155 HD
ATOM     11  O   LIG    1       16.244  46.956  18.443  0.00  0.00    -0.276 OA
ENDBRANCH   1   9
BRANCH   4  12
ATOM     12  O   LIG    1       21.679  49.320  15.807  0.00  0.00    -0.507 OA
ATOM     13  H   LIG    1       22.467  49.426  16.364  0.00  0.00    +0.292 HD
ENDBRANCH   4  12
TORSDOF 2
ENDMDL
MODEL 7
REMARK VINA RESULT:      -5.7     11.330     12.314
REMARK  Name = 
REMARK                            x       y       z     vdW  Elec       q    Type
REMARK                         _______ _______ _______ _____ _____    ______ ____
ROOT
ATOM      1  C   LIG    1       18.197  49.123  17.955  0.00  0.00    +0.034 A 
ATOM      2  C   LIG    1       18.200  49.789  16.727  0.00  0.00    +0.027 A 
ATOM      3  C   LIG    1       19.362  49.835  15.949  0.00  0.00    +0.047 A 
ATOM      4  C   LIG    1       20.520  49.214  16.396  0.00  0.00    +0.117 A 
ATOM      5  C   LIG    1       20.536  48.536  17.608  0.00  0.00    +0.047 A 
ATOM      6  C   LIG    1       19.373  48.493  18.386  0.00  0.00    +0.027 A 
ENDROOT
BRANCH   1   9
ATOM      7  C   LIG    1       15.067  48.352  19.904  0.00  0.00    +0.109 C 
ATOM      8  C   LIG    1       16.202  48.003  18.974  0.00  0.00    +0.214 C 
ATOM      9  N   LIG    1       17.080  49.060  18.813  0.00  0.00    -0.286 N 
ATOM     10  H   LIG    1       16.902  49.885  19.372  0.00  0.00    +0.155 HD
ATOM     11  O   LIG    1       16.271  46.895  18.454  0.00  0.00    -0.276 OA
ENDBRANCH   1   9
BRANCH   4  12
ATOM     12  O   LIG    1       21.631  49.298  15.613  0.00  0.00    -0.507 OA
ATOM     13  H   LIG    1       21.982  50.202  15.661  0.00  0.00    +0.292 HD
ENDBRANCH   4  12
TORSDOF 2
ENDMDL
MODEL 8
REMARK VINA RESULT:      -5.7     11.883     12.412
REMARK  Name = 
REMARK                            x       y       z     vdW  Elec       q    Type
REMARK                         _______ _______ _______ _____ _____    ______ ____
ROOT
ATOM      1  C   LIG    1       18.574  48.597  17.010  0.00  0.00    +0.034 A 
ATOM      2  C   LIG    1       18.669  48.079  18.303  0.00  0.00    +0.027 A 
ATOM      3  C   LIG    1       18.074  48.746  19.378  0.00  0.00    +0.047 A 
ATOM      4  C   LIG    1       17.383  49.930  19.163  0.00  0.00    +0.117 A 
ATOM      5  C   LIG    1       17.265  50.458  17.883  0.00  0.00    +0.047 A 
ATOM      6  C   LIG    1       17.863  49.789  16.808  0.00  0.00    +0.027 A 
ENDROOT
BRANCH   1   9
ATOM      7  C   LIG    1       20.732  47.429  14.151  0.00  0.00    +0.109 C 
ATOM      8  C   LIG    1       20.492  48.119  15.470  0.00  0.00    +0.214 C 
ATOM      9  N   LIG    1       19.174  48.005  15.879  0.00  0.00    -0.286 N 
ATOM     10  H   LIG    1       18.570  47.434  15.303  0.00  0.00    +0.155 HD
ATOM     11  O   LIG    1       21.401  48.698  16.052  0.00  0.00    -0.276 OA
ENDBRANCH   1   9
BRANCH   4  12
ATOM     12  O   LIG    1       16.833  50.553  20.242  0.00  0.00    -0.507 OA
ATOM     13  H   LIG    1       15.956  50.173  20.411  0.00  0.00    +0.292 HD
ENDBRANCH   4  12
TORSDOF 2
ENDMDL
MODEL 9
REMARK VINA RESULT:      -5.6     12.594     13.630
REMARK  Name = 
REMARK                            x       y       z     vdW  Elec       q    Type
REMARK                         _______ _______ _______ _____ _____    ______ ____
ROOT
ATOM      1  C   LIG    1       19.454  49.770  16.946  0.00  0.00    +0.034 A 
ATOM      2  C   LIG    1       20.747  49.342  17.253  0.00  0.00    +0.027 A 
ATOM      3  C   LIG    1       21.547  48.744  16.273  0.00  0.00    +0.047 A 
ATOM      4  C   LIG    1       21.056  48.575  14.986  0.00  0.00    +0.117 A 
ATOM      5  C   LIG    1       19.776  49.004  14.656  0.00  0.00    +0.047 A 
ATOM      6  C   LIG    1       18.977  49.600  15.638  0.00  0.00    +0.027 A 
ENDROOT
BRANCH   1   9
ATOM      7  C   LIG    1       16.918  50.644  19.591  0.00  0.00    +0.109 C 
ATOM      8  C   LIG    1       17.823  49.695  18.846  0.00  0.00    +0.214 C 
ATOM      9  N   LIG    1       18.573  50.348  17.884  0.00  0.00    -0.286 N 
ATOM     10  H   LIG    1       18.482  51.355  17.845  0.00  0.00    +0.155 HD
ATOM     11  O   LIG    1       17.836  48.499  19.112  0.00  0.00    -0.276 OA
ENDBRANCH   1   9
BRANCH   4  12
ATOM     12  O   LIG    1       21.864  47.974  14.069  0.00  0.00    -0.507 OA
ATOM     13  H   LIG    1       21.320  47.421  13.486  0.00  0.00    +0.292 HD
ENDBRANCH   4  12
TORSDOF 2
ENDMDL
