REMARK  Name = 
REMARK                            x       y       z     vdW  Elec       q    Type
REMARK                         _______ _______ _______ _____ _____    ______ ____
ROOT
ATOM      1  C   LIG    1        4.641  -0.760  -0.742  0.00  0.00    +0.034 A 
ATOM      2  C   LIG    1        5.465  -0.213   0.244  0.00  0.00    +0.027 A 
ATOM      3  C   LIG    1        6.850  -0.402   0.194  0.00  0.00    +0.047 A 
ATOM      4  C   LIG    1        7.413  -1.136  -0.841  0.00  0.00    +0.117 A 
ATOM      5  C   LIG    1        6.613  -1.679  -1.839  0.00  0.00    +0.047 A 
ATOM      6  C   LIG    1        5.227  -1.490  -1.786  0.00  0.00    +0.027 A 
ENDROOT
BRANCH   1   9
ATOM      7  C   LIG    1        0.977  -0.152  -0.113  0.00  0.00    +0.109 C 
ATOM      8  C   LIG    1        2.447   0.048   0.157  0.00  0.00    +0.214 C 
ATOM      9  N   LIG    1        3.235  -0.645  -0.745  0.00  0.00    -0.286 N 
ATOM     10  H   LIG    1        2.752  -1.126  -1.492  0.00  0.00    +0.155 HD
ATOM     11  O   LIG    1        2.826   0.750   1.087  0.00  0.00    -0.276 OA
ENDBRANCH   1   9
BRANCH   4  12
ATOM     12  O   LIG    1        8.764  -1.307  -0.840  0.00  0.00    -0.507 OA
ATOM     13  H   LIG    1        9.009  -1.876  -1.587  0.00  0.00    +0.292 HD
ENDBRANCH   4  12
TORSDOF 2
