MODEL 1
REMARK VINA RESULT:      -7.3      0.000      0.000
REMARK  Name = 
REMARK                            x       y       z     vdW  Elec       q    Type
REMARK                         _______ _______ _______ _____ _____    ______ ____
ROOT
ATOM      1  C   LIG    1       -9.536  -1.736  12.063  0.00  0.00    +0.352 C 
ENDROOT
BRANCH   1   4
ATOM      2  O   LIG    1       -7.713  -1.787   9.807  0.00  0.00    -0.270 OA
ATOM      3  C   LIG    1       -8.426  -2.727  10.108  0.00  0.00    +0.252 C 
ATOM      4  N   LIG    1       -9.316  -2.820  11.131  0.00  0.00    -0.200 N 
ATOM      5  C   LIG    1       -9.923  -4.036  11.124  0.00  0.00    +0.252 C 
ATOM      6  O   LIG    1      -10.770  -4.506  11.862  0.00  0.00    -0.270 OA
ATOM      7  C   LIG    1       -9.359  -4.779   9.994  0.00  0.00    +0.023 C 
ATOM      8  C   LIG    1       -9.727  -6.151   9.610  0.00  0.00    +0.041 C 
ATOM      9  C   LIG    1       -8.923  -6.705   8.427  0.00  0.00    +0.005 C 
ATOM     10  C   LIG    1       -7.977  -5.768   7.651  0.00  0.00    +0.005 C 
ATOM     11  C   LIG    1       -7.661  -4.372   8.213  0.00  0.00    +0.041 C 
ATOM     12  C   LIG    1       -8.465  -4.004   9.389  0.00  0.00    +0.023 C 
ENDBRANCH   1   4
BRANCH   1  13
ATOM     13  O   LIG    1       -9.224  -2.160  13.379  0.00  0.00    -0.444 OA
BRANCH  13  14
ATOM     14  C   LIG    1       -8.040  -2.792  13.518  0.00  0.00    +0.313 C 
ATOM     15  O   LIG    1       -6.965  -2.407  13.077  0.00  0.00    -0.250 OA
BRANCH  14  16
ATOM     16  C   LIG    1       -8.219  -4.008  14.344  0.00  0.00    +0.111 C 
ATOM     17  C   LIG    1       -7.161  -4.660  15.219  0.00  0.00    -0.014 C 
ATOM     18  C   LIG    1       -7.650  -5.323  16.490  0.00  0.00    +0.012 C 
ATOM     19  C   LIG    1       -5.793  -4.046  15.378  0.00  0.00    +0.012 C 
ATOM     20  C   LIG    1       -7.581  -5.320  13.917  0.00  0.00    +0.032 C 
BRANCH  20  21
ATOM     21  C   LIG    1       -6.713  -5.357  12.729  0.00  0.00    -0.023 C 
ATOM     22  C   LIG    1       -6.659  -6.331  11.798  0.00  0.00    -0.079 C 
ATOM     23  C   LIG    1       -5.722  -6.239  10.624  0.00  0.00    +0.038 C 
ATOM     24  C   LIG    1       -7.498  -7.579  11.836  0.00  0.00    +0.038 C 
ENDBRANCH  20  21
ENDBRANCH  14  16
ENDBRANCH  13  14
ENDBRANCH   1  13
TORSDOF 5
ENDMDL
MODEL 2
REMARK VINA RESULT:      -7.2      2.051      4.819
REMARK  Name = 
REMARK                            x       y       z     vdW  Elec       q    Type
REMARK                         _______ _______ _______ _____ _____    ______ ____
ROOT
ATOM      1  C   LIG    1       -8.891  -5.690   8.668  0.00  0.00    +0.352 C 
ENDROOT
BRANCH   1   4
ATOM      2  O   LIG    1      -10.418  -5.860  11.128  0.00  0.00    -0.270 OA
ATOM      3  C   LIG    1       -9.834  -4.852  10.775  0.00  0.00    +0.252 C 
ATOM      4  N   LIG    1       -9.097  -4.651   9.652  0.00  0.00    -0.200 N 
ATOM      5  C   LIG    1       -8.615  -3.380   9.620  0.00  0.00    +0.252 C 
ATOM      6  O   LIG    1       -7.921  -2.813   8.796  0.00  0.00    -0.270 OA
ATOM      7  C   LIG    1       -9.091  -2.722  10.840  0.00  0.00    +0.023 C 
ATOM      8  C   LIG    1       -8.804  -1.330  11.222  0.00  0.00    +0.041 C 
ATOM      9  C   LIG    1       -9.372  -0.928  12.589  0.00  0.00    +0.005 C 
ATOM     10  C   LIG    1      -10.310  -1.899  13.332  0.00  0.00    +0.005 C 
ATOM     11  C   LIG    1      -10.469  -3.340  12.824  0.00  0.00    +0.041 C 
ATOM     12  C   LIG    1       -9.814  -3.596  11.531  0.00  0.00    +0.023 C 
ENDBRANCH   1   4
BRANCH   1  13
ATOM     13  O   LIG    1       -7.911  -6.604   9.128  0.00  0.00    -0.444 OA
BRANCH  13  14
ATOM     14  C   LIG    1       -6.632  -6.187   9.018  0.00  0.00    +0.313 C 
ATOM     15  O   LIG    1       -6.235  -5.270   8.311  0.00  0.00    -0.250 OA
BRANCH  14  16
ATOM     16  C   LIG    1       -5.771  -6.971   9.933  0.00  0.00    +0.111 C 
ATOM     17  C   LIG    1       -6.232  -7.722  11.171  0.00  0.00    -0.014 C 
ATOM     18  C   LIG    1       -5.490  -9.001  11.500  0.00  0.00    +0.012 C 
ATOM     19  C   LIG    1       -7.691  -7.788  11.546  0.00  0.00    +0.012 C 
ATOM     20  C   LIG    1       -5.440  -6.434  11.315  0.00  0.00    +0.032 C 
BRANCH  20  21
ATOM     21  C   LIG    1       -6.047  -5.175  11.775  0.00  0.00    -0.023 C 
ATOM     22  C   LIG    1       -5.816  -4.546  12.945  0.00  0.00    -0.079 C 
ATOM     23  C   LIG    1       -6.507  -3.254  13.287  0.00  0.00    +0.038 C 
ATOM     24  C   LIG    1       -4.877  -5.057  14.004  0.00  0.00    +0.038 C 
ENDBRANCH  20  21
ENDBRANCH  14  16
ENDBRANCH  13  14
ENDBRANCH   1  13
TORSDOF 5
ENDMDL
MODEL 3
REMARK VINA RESULT:      -7.2      0.417      1.848
REMARK  Name = 
REMARK                            x       y       z     vdW  Elec       q    Type
REMARK                         _______ _______ _______ _____ _____    ______ ____
ROOT
ATOM      1  C   LIG    1       -9.774  -2.363  12.640  0.00  0.00    +0.352 C 
ENDROOT
BRANCH   1   4
ATOM      2  O   LIG    1      -10.624  -5.080  12.081  0.00  0.00    -0.270 OA
ATOM      3  C   LIG    1       -9.889  -4.447  11.345  0.00  0.00    +0.252 C 
ATOM      4  N   LIG    1       -9.422  -3.181  11.500  0.00  0.00    -0.200 N 
ATOM      5  C   LIG    1       -8.618  -2.839  10.458  0.00  0.00    +0.252 C 
ATOM      6  O   LIG    1       -8.012  -1.809  10.226  0.00  0.00    -0.270 OA
ATOM      7  C   LIG    1       -8.578  -3.998   9.563  0.00  0.00    +0.023 C 
ATOM      8  C   LIG    1       -7.826  -4.072   8.300  0.00  0.00    +0.041 C 
ATOM      9  C   LIG    1       -8.026  -5.384   7.530  0.00  0.00    +0.005 C 
ATOM     10  C   LIG    1       -8.804  -6.537   8.192  0.00  0.00    +0.005 C 
ATOM     11  C   LIG    1       -9.576  -6.283   9.496  0.00  0.00    +0.041 C 
ATOM     12  C   LIG    1       -9.337  -4.956  10.085  0.00  0.00    +0.023 C 
ENDBRANCH   1   4
BRANCH   1  13
ATOM     13  O   LIG    1       -8.603  -1.822  13.227  0.00  0.00    -0.444 OA
BRANCH  13  14
ATOM     14  C   LIG    1       -7.567  -2.680  13.350  0.00  0.00    +0.313 C 
ATOM     15  O   LIG    1       -6.449  -2.527  12.876  0.00  0.00    -0.250 OA
BRANCH  14  16
ATOM     16  C   LIG    1       -7.966  -3.824  14.201  0.00  0.00    +0.111 C 
ATOM     17  C   LIG    1       -7.061  -4.594  15.149  0.00  0.00    -0.014 C 
ATOM     18  C   LIG    1       -7.703  -5.127  16.413  0.00  0.00    +0.012 C 
ATOM     19  C   LIG    1       -5.624  -4.186  15.358  0.00  0.00    +0.012 C 
ATOM     20  C   LIG    1       -7.516  -5.232  13.848  0.00  0.00    +0.032 C 
BRANCH  20  21
ATOM     21  C   LIG    1       -6.610  -5.444  12.708  0.00  0.00    -0.023 C 
ATOM     22  C   LIG    1       -6.643  -6.466  11.828  0.00  0.00    -0.079 C 
ATOM     23  C   LIG    1       -5.653  -6.557  10.699  0.00  0.00    +0.038 C 
ATOM     24  C   LIG    1       -7.638  -7.594  11.885  0.00  0.00    +0.038 C 
ENDBRANCH  20  21
ENDBRANCH  14  16
ENDBRANCH  13  14
ENDBRANCH   1  13
TORSDOF 5
ENDMDL
MODEL 4
REMARK VINA RESULT:      -7.2      2.223      5.859
REMARK  Name = 
REMARK                            x       y       z     vdW  Elec       q    Type
REMARK                         _______ _______ _______ _____ _____    ______ ____
ROOT
ATOM      1  C   LIG    1       -6.006  -6.678  10.501  0.00  0.00    +0.352 C 
ENDROOT
BRANCH   1   4
ATOM      2  O   LIG    1       -3.855  -5.459  12.019  0.00  0.00    -0.270 OA
ATOM      3  C   LIG    1       -4.991  -5.567  12.443  0.00  0.00    +0.252 C 
ATOM      4  N   LIG    1       -6.073  -6.118  11.833  0.00  0.00    -0.200 N 
ATOM      5  C   LIG    1       -7.162  -6.051  12.644  0.00  0.00    +0.252 C 
ATOM      6  O   LIG    1       -8.306  -6.429  12.471  0.00  0.00    -0.270 OA
ATOM      7  C   LIG    1       -6.724  -5.394  13.879  0.00  0.00    +0.023 C 
ATOM      8  C   LIG    1       -7.582  -5.110  15.040  0.00  0.00    +0.041 C 
ATOM      9  C   LIG    1       -6.874  -4.346  16.166  0.00  0.00    +0.005 C 
ATOM     10  C   LIG    1       -5.353  -4.115  16.083  0.00  0.00    +0.005 C 
ATOM     11  C   LIG    1       -4.608  -4.427  14.775  0.00  0.00    +0.041 C 
ATOM     12  C   LIG    1       -5.434  -5.101  13.761  0.00  0.00    +0.023 C 
ENDBRANCH   1   4
BRANCH   1  13
ATOM     13  O   LIG    1       -6.387  -5.702   9.547  0.00  0.00    -0.444 OA
BRANCH  13  14
ATOM     14  C   LIG    1       -7.662  -5.785   9.111  0.00  0.00    +0.313 C 
ATOM     15  O   LIG    1       -8.336  -6.805   9.055  0.00  0.00    -0.250 OA
BRANCH  14  16
ATOM     16  C   LIG    1       -8.157  -4.434   8.757  0.00  0.00    +0.111 C 
ATOM     17  C   LIG    1       -8.116  -3.205   9.650  0.00  0.00    -0.014 C 
ATOM     18  C   LIG    1       -7.914  -1.873   8.956  0.00  0.00    +0.012 C 
ATOM     19  C   LIG    1       -7.471  -3.250  11.012  0.00  0.00    +0.012 C 
ATOM     20  C   LIG    1       -9.437  -3.904   9.381  0.00  0.00    +0.032 C 
BRANCH  20  21
ATOM     21  C   LIG    1      -10.136  -4.701  10.402  0.00  0.00    -0.023 C 
ATOM     22  C   LIG    1      -10.647  -4.252  11.567  0.00  0.00    -0.079 C 
ATOM     23  C   LIG    1      -11.345  -5.181  12.523  0.00  0.00    +0.038 C 
ATOM     24  C   LIG    1      -10.567  -2.821  12.025  0.00  0.00    +0.038 C 
ENDBRANCH  20  21
ENDBRANCH  14  16
ENDBRANCH  13  14
ENDBRANCH   1  13
TORSDOF 5
ENDMDL
MODEL 5
REMARK VINA RESULT:      -7.1      1.176      2.915
REMARK  Name = 
REMARK                            x       y       z     vdW  Elec       q    Type
REMARK                         _______ _______ _______ _____ _____    ______ ____
ROOT
ATOM      1  C   LIG    1       -9.417  -2.091  12.542  0.00  0.00    +0.352 C 
ENDROOT
BRANCH   1   4
ATOM      2  O   LIG    1       -7.808  -1.807  10.145  0.00  0.00    -0.270 OA
ATOM      3  C   LIG    1       -8.437  -2.816  10.410  0.00  0.00    +0.252 C 
ATOM      4  N   LIG    1       -9.223  -3.064  11.490  0.00  0.00    -0.200 N 
ATOM      5  C   LIG    1       -9.758  -4.311  11.412  0.00  0.00    +0.252 C 
ATOM      6  O   LIG    1      -10.506  -4.903  12.169  0.00  0.00    -0.270 OA
ATOM      7  C   LIG    1       -9.260  -4.904  10.169  0.00  0.00    +0.023 C 
ATOM      8  C   LIG    1       -9.584  -6.254   9.681  0.00  0.00    +0.041 C 
ATOM      9  C   LIG    1       -8.861  -6.638   8.383  0.00  0.00    +0.005 C 
ATOM     10  C   LIG    1       -8.044  -5.572   7.628  0.00  0.00    +0.005 C 
ATOM     11  C   LIG    1       -7.758  -4.219   8.299  0.00  0.00    +0.041 C 
ATOM     12  C   LIG    1       -8.470  -4.019   9.571  0.00  0.00    +0.023 C 
ENDBRANCH   1   4
BRANCH   1  13
ATOM     13  O   LIG    1       -8.241  -1.985  13.325  0.00  0.00    -0.444 OA
BRANCH  13  14
ATOM     14  C   LIG    1       -7.773  -3.147  13.829  0.00  0.00    +0.313 C 
ATOM     15  O   LIG    1       -8.352  -3.865  14.632  0.00  0.00    -0.250 OA
BRANCH  14  16
ATOM     16  C   LIG    1       -6.462  -3.463  13.215  0.00  0.00    +0.111 C 
ATOM     17  C   LIG    1       -6.012  -4.827  12.719  0.00  0.00    -0.014 C 
ATOM     18  C   LIG    1       -5.097  -4.837  11.512  0.00  0.00    +0.012 C 
ATOM     19  C   LIG    1       -6.941  -6.014  12.749  0.00  0.00    +0.012 C 
ATOM     20  C   LIG    1       -5.426  -4.253  13.996  0.00  0.00    +0.032 C 
BRANCH  20  21
ATOM     21  C   LIG    1       -5.761  -4.779  15.330  0.00  0.00    -0.023 C 
ATOM     22  C   LIG    1       -4.954  -4.815  16.410  0.00  0.00    -0.079 C 
ATOM     23  C   LIG    1       -5.430  -5.380  17.721  0.00  0.00    +0.038 C 
ATOM     24  C   LIG    1       -3.533  -4.320  16.417  0.00  0.00    +0.038 C 
ENDBRANCH  20  21
ENDBRANCH  14  16
ENDBRANCH  13  14
ENDBRANCH   1  13
TORSDOF 5
ENDMDL
MODEL 6
REMARK VINA RESULT:      -7.0      1.669      5.810
REMARK  Name = 
REMARK                            x       y       z     vdW  Elec       q    Type
REMARK                         _______ _______ _______ _____ _____    ______ ____
ROOT
ATOM      1  C   LIG    1       -7.406  -2.945  11.768  0.00  0.00    +0.352 C 
ENDROOT
BRANCH   1   4
ATOM      2  O   LIG    1       -8.867  -3.808  14.120  0.00  0.00    -0.270 OA
ATOM      3  C   LIG    1       -7.652  -3.823  14.048  0.00  0.00    +0.252 C 
ATOM      4  N   LIG    1       -6.861  -3.443  13.011  0.00  0.00    -0.200 N 
ATOM      5  C   LIG    1       -5.549  -3.607  13.328  0.00  0.00    +0.252 C 
ATOM      6  O   LIG    1       -4.541  -3.385  12.682  0.00  0.00    -0.270 OA
ATOM      7  C   LIG    1       -5.512  -4.143  14.691  0.00  0.00    +0.023 C 
ATOM      8  C   LIG    1       -4.290  -4.477  15.440  0.00  0.00    +0.041 C 
ATOM      9  C   LIG    1       -4.553  -5.090  16.822  0.00  0.00    +0.005 C 
ATOM     10  C   LIG    1       -5.993  -5.131  17.369  0.00  0.00    +0.005 C 
ATOM     11  C   LIG    1       -7.169  -4.792  16.439  0.00  0.00    +0.041 C 
ATOM     12  C   LIG    1       -6.762  -4.277  15.122  0.00  0.00    +0.023 C 
ENDBRANCH   1   4
BRANCH   1  13
ATOM     13  O   LIG    1       -6.998  -3.776  10.694  0.00  0.00    -0.444 OA
BRANCH  13  14
ATOM     14  C   LIG    1       -7.577  -3.510   9.504  0.00  0.00    +0.313 C 
ATOM     15  O   LIG    1       -8.049  -2.434   9.160  0.00  0.00    -0.250 OA
BRANCH  14  16
ATOM     16  C   LIG    1       -7.508  -4.709   8.637  0.00  0.00    +0.111 C 
ATOM     17  C   LIG    1       -8.183  -6.045   8.901  0.00  0.00    -0.014 C 
ATOM     18  C   LIG    1       -8.657  -6.814   7.685  0.00  0.00    +0.012 C 
ATOM     19  C   LIG    1       -9.083  -6.241  10.096  0.00  0.00    +0.012 C 
ATOM     20  C   LIG    1       -6.679  -5.910   9.062  0.00  0.00    +0.032 C 
BRANCH  20  21
ATOM     21  C   LIG    1       -6.018  -5.912  10.377  0.00  0.00    -0.023 C 
ATOM     22  C   LIG    1       -5.771  -6.985  11.156  0.00  0.00    -0.079 C 
ATOM     23  C   LIG    1       -5.079  -6.844  12.484  0.00  0.00    +0.038 C 
ATOM     24  C   LIG    1       -6.158  -8.394  10.795  0.00  0.00    +0.038 C 
ENDBRANCH  20  21
ENDBRANCH  14  16
ENDBRANCH  13  14
ENDBRANCH   1  13
TORSDOF 5
ENDMDL
MODEL 7
REMARK VINA RESULT:      -6.9      1.975      5.812
REMARK  Name = 
REMARK                            x       y       z     vdW  Elec       q    Type
REMARK                         _______ _______ _______ _____ _____    ______ ____
ROOT
ATOM      1  C   LIG    1       -8.733  -4.129  13.617  0.00  0.00    +0.352 C 
ENDROOT
BRANCH   1   4
ATOM      2  O   LIG    1       -6.008  -3.358  12.988  0.00  0.00    -0.270 OA
ATOM      3  C   LIG    1       -6.320  -3.915  14.025  0.00  0.00    +0.252 C 
ATOM      4  N   LIG    1       -7.551  -4.326  14.427  0.00  0.00    -0.200 N 
ATOM      5  C   LIG    1       -7.480  -4.915  15.650  0.00  0.00    +0.252 C 
ATOM      6  O   LIG    1       -8.348  -5.409  16.346  0.00  0.00    -0.270 OA
ATOM      7  C   LIG    1       -6.073  -4.867  16.056  0.00  0.00    +0.023 C 
ATOM      8  C   LIG    1       -5.535  -5.392  17.321  0.00  0.00    +0.041 C 
ATOM      9  C   LIG    1       -4.034  -5.140  17.514  0.00  0.00    +0.005 C 
ATOM     10  C   LIG    1       -3.210  -4.558  16.349  0.00  0.00    +0.005 C 
ATOM     11  C   LIG    1       -3.931  -4.011  15.107  0.00  0.00    +0.041 C 
ATOM     12  C   LIG    1       -5.380  -4.269  15.093  0.00  0.00    +0.023 C 
ENDBRANCH   1   4
BRANCH   1  13
ATOM     13  O   LIG    1       -8.930  -5.248  12.770  0.00  0.00    -0.444 OA
BRANCH  13  14
ATOM     14  C   LIG    1       -9.363  -4.961  11.523  0.00  0.00    +0.313 C 
ATOM     15  O   LIG    1      -10.398  -5.367  11.012  0.00  0.00    -0.250 OA
BRANCH  14  16
ATOM     16  C   LIG    1       -8.419  -4.025  10.872  0.00  0.00    +0.111 C 
ATOM     17  C   LIG    1       -8.352  -3.708   9.387  0.00  0.00    -0.014 C 
ATOM     18  C   LIG    1       -7.953  -2.295   9.015  0.00  0.00    +0.012 C 
ATOM     19  C   LIG    1       -9.343  -4.302   8.418  0.00  0.00    +0.012 C 
ATOM     20  C   LIG    1       -7.272  -4.560  10.030  0.00  0.00    +0.032 C 
BRANCH  20  21
ATOM     21  C   LIG    1       -7.156  -6.007   9.792  0.00  0.00    -0.023 C 
ATOM     22  C   LIG    1       -6.403  -6.883  10.488  0.00  0.00    -0.079 C 
ATOM     23  C   LIG    1       -6.380  -8.346  10.137  0.00  0.00    +0.038 C 
ATOM     24  C   LIG    1       -5.525  -6.502  11.649  0.00  0.00    +0.038 C 
ENDBRANCH  20  21
ENDBRANCH  14  16
ENDBRANCH  13  14
ENDBRANCH   1  13
TORSDOF 5
ENDMDL
MODEL 8
REMARK VINA RESULT:      -6.9      2.308      6.270
REMARK  Name = 
REMARK                            x       y       z     vdW  Elec       q    Type
REMARK                         _______ _______ _______ _____ _____    ______ ____
ROOT
ATOM      1  C   LIG    1       -5.477  -4.243  11.685  0.00  0.00    +0.352 C 
ENDROOT
BRANCH   1   4
ATOM      2  O   LIG    1       -3.322  -5.122  13.416  0.00  0.00    -0.270 OA
ATOM      3  C   LIG    1       -4.439  -4.860  13.824  0.00  0.00    +0.252 C 
ATOM      4  N   LIG    1       -5.523  -4.447  13.116  0.00  0.00    -0.200 N 
ATOM      5  C   LIG    1       -6.589  -4.268  13.940  0.00  0.00    +0.252 C 
ATOM      6  O   LIG    1       -7.728  -3.911  13.700  0.00  0.00    -0.270 OA
ATOM      7  C   LIG    1       -6.132  -4.596  15.293  0.00  0.00    +0.023 C 
ATOM      8  C   LIG    1       -6.961  -4.539  16.507  0.00  0.00    +0.041 C 
ATOM      9  C   LIG    1       -6.201  -4.867  17.798  0.00  0.00    +0.005 C 
ATOM     10  C   LIG    1       -4.753  -5.389  17.711  0.00  0.00    +0.005 C 
ATOM     11  C   LIG    1       -4.009  -5.341  16.368  0.00  0.00    +0.041 C 
ATOM     12  C   LIG    1       -4.852  -4.945  15.228  0.00  0.00    +0.023 C 
ENDBRANCH   1   4
BRANCH   1  13
ATOM     13  O   LIG    1       -5.591  -5.487  11.015  0.00  0.00    -0.444 OA
BRANCH  13  14
ATOM     14  C   LIG    1       -6.591  -5.569  10.112  0.00  0.00    +0.313 C 
ATOM     15  O   LIG    1       -6.456  -5.697   8.903  0.00  0.00    -0.250 OA
BRANCH  14  16
ATOM     16  C   LIG    1       -7.897  -5.539  10.810  0.00  0.00    +0.111 C 
ATOM     17  C   LIG    1       -9.258  -5.769  10.174  0.00  0.00    -0.014 C 
ATOM     18  C   LIG    1      -10.300  -6.450  11.037  0.00  0.00    +0.012 C 
ATOM     19  C   LIG    1       -9.386  -6.135   8.717  0.00  0.00    +0.012 C 
ATOM     20  C   LIG    1       -8.846  -4.371  10.602  0.00  0.00    +0.032 C 
BRANCH  20  21
ATOM     21  C   LIG    1       -8.503  -3.315   9.636  0.00  0.00    -0.023 C 
ATOM     22  C   LIG    1       -8.246  -2.020   9.913  0.00  0.00    -0.079 C 
ATOM     23  C   LIG    1       -7.901  -1.041   8.823  0.00  0.00    +0.038 C 
ATOM     24  C   LIG    1       -8.283  -1.431  11.297  0.00  0.00    +0.038 C 
ENDBRANCH  20  21
ENDBRANCH  14  16
ENDBRANCH  13  14
ENDBRANCH   1  13
TORSDOF 5
ENDMDL
MODEL 9
REMARK VINA RESULT:      -6.8      1.674      5.559
REMARK  Name = 
REMARK                            x       y       z     vdW  Elec       q    Type
REMARK                         _______ _______ _______ _____ _____    ______ ____
ROOT
ATOM      1  C   LIG    1       -7.312  -2.870  11.761  0.00  0.00    +0.352 C 
ENDROOT
BRANCH   1   4
ATOM      2  O   LIG    1       -4.591  -3.335  12.653  0.00  0.00    -0.270 OA
ATOM      3  C   LIG    1       -5.567  -3.583  13.336  0.00  0.00    +0.252 C 
ATOM      4  N   LIG    1       -6.880  -3.414  13.029  0.00  0.00    -0.200 N 
ATOM      5  C   LIG    1       -7.665  -3.820  14.062  0.00  0.00    +0.252 C 
ATOM      6  O   LIG    1       -8.877  -3.833  14.181  0.00  0.00    -0.270 OA
ATOM      7  C   LIG    1       -6.762  -4.284  15.118  0.00  0.00    +0.023 C 
ATOM      8  C   LIG    1       -7.183  -4.812  16.425  0.00  0.00    +0.041 C 
ATOM      9  C   LIG    1       -6.019  -5.155  17.364  0.00  0.00    +0.005 C 
ATOM     10  C   LIG    1       -4.576  -5.105  16.827  0.00  0.00    +0.005 C 
ATOM     11  C   LIG    1       -4.298  -4.481  15.451  0.00  0.00    +0.041 C 
ATOM     12  C   LIG    1       -5.513  -4.141  14.691  0.00  0.00    +0.023 C 
ENDBRANCH   1   4
BRANCH   1  13
ATOM     13  O   LIG    1       -7.007  -3.777  10.716  0.00  0.00    -0.444 OA
BRANCH  13  14
ATOM     14  C   LIG    1       -7.586  -3.506   9.527  0.00  0.00    +0.313 C 
ATOM     15  O   LIG    1       -8.054  -2.429   9.186  0.00  0.00    -0.250 OA
BRANCH  14  16
ATOM     16  C   LIG    1       -7.520  -4.703   8.657  0.00  0.00    +0.111 C 
ATOM     17  C   LIG    1       -8.189  -6.042   8.924  0.00  0.00    -0.014 C 
ATOM     18  C   LIG    1       -8.671  -6.810   7.711  0.00  0.00    +0.012 C 
ATOM     19  C   LIG    1       -9.078  -6.244  10.126  0.00  0.00    +0.012 C 
ATOM     20  C   LIG    1       -6.684  -5.903   9.073  0.00  0.00    +0.032 C 
BRANCH  20  21
ATOM     21  C   LIG    1       -6.012  -5.906  10.382  0.00  0.00    -0.023 C 
ATOM     22  C   LIG    1       -5.761  -6.979  11.159  0.00  0.00    -0.079 C 
ATOM     23  C   LIG    1       -5.057  -6.839  12.481  0.00  0.00    +0.038 C 
ATOM     24  C   LIG    1       -6.154  -8.387  10.802  0.00  0.00    +0.038 C 
ENDBRANCH  20  21
ENDBRANCH  14  16
ENDBRANCH  13  14
ENDBRANCH   1  13
TORSDOF 5
ENDMDL
