MODEL 1
REMARK VINA RESULT:      -8.7      0.000      0.000
REMARK  Name = 
REMARK                            x       y       z     vdW  Elec       q    Type
REMARK                         _______ _______ _______ _____ _____    ______ ____
ROOT
ATOM      1  C   LIG    1       64.179  45.745  28.453  0.00  0.00    +0.352 C 
ENDROOT
BRANCH   1   4
ATOM      2  O   LIG    1       62.132  43.855  29.261  0.00  0.00    -0.270 OA
ATOM      3  C   LIG    1       61.903  45.029  29.036  0.00  0.00    +0.252 C 
ATOM      4  N   LIG    1       62.770  46.002  28.650  0.00  0.00    -0.200 N 
ATOM      5  C   LIG    1       62.119  47.185  28.495  0.00  0.00    +0.252 C 
ATOM      6  O   LIG    1       62.531  48.282  28.163  0.00  0.00    -0.270 OA
ATOM      7  C   LIG    1       60.712  46.934  28.817  0.00  0.00    +0.023 C 
ATOM      8  C   LIG    1       59.640  47.941  28.785  0.00  0.00    +0.041 C 
ATOM      9  C   LIG    1       58.273  47.412  29.240  0.00  0.00    +0.005 C 
ATOM     10  C   LIG    1       58.094  45.904  29.500  0.00  0.00    +0.005 C 
ATOM     11  C   LIG    1       59.328  44.989  29.542  0.00  0.00    +0.041 C 
ATOM     12  C   LIG    1       60.580  45.653  29.143  0.00  0.00    +0.023 C 
ENDBRANCH   1   4
BRANCH   1  13
ATOM     13  O   LIG    1       64.901  46.082  29.625  0.00  0.00    -0.444 OA
BRANCH  13  14
ATOM     14  C   LIG    1       65.267  45.039  30.400  0.00  0.00    +0.313 C 
ATOM     15  O   LIG    1       65.280  43.864  30.061  0.00  0.00    -0.250 OA
BRANCH  14  16
ATOM     16  C   LIG    1       65.713  45.534  31.722  0.00  0.00    +0.111 C 
ATOM     17  C   LIG    1       65.391  44.907  33.069  0.00  0.00    -0.014 C 
ATOM     18  C   LIG    1       66.459  45.015  34.137  0.00  0.00    +0.012 C 
ATOM     19  C   LIG    1       64.608  43.621  33.163  0.00  0.00    +0.012 C 
ATOM     20  C   LIG    1       64.722  46.207  32.658  0.00  0.00    +0.032 C 
BRANCH  20  21
ATOM     21  C   LIG    1       63.301  46.285  32.283  0.00  0.00    -0.023 C 
ATOM     22  C   LIG    1       62.257  46.493  33.111  0.00  0.00    -0.079 C 
ATOM     23  C   LIG    1       60.847  46.555  32.590  0.00  0.00    +0.038 C 
ATOM     24  C   LIG    1       62.386  46.670  34.600  0.00  0.00    +0.038 C 
ENDBRANCH  20  21
ENDBRANCH  14  16
ENDBRANCH  13  14
ENDBRANCH   1  13
TORSDOF 5
ENDMDL
MODEL 2
REMARK VINA RESULT:      -8.4      1.866      2.693
REMARK  Name = 
REMARK                            x       y       z     vdW  Elec       q    Type
REMARK                         _______ _______ _______ _____ _____    ______ ____
ROOT
ATOM      1  C   LIG    1       62.000  47.040  30.079  0.00  0.00    +0.352 C 
ENDROOT
BRANCH   1   4
ATOM      2  O   LIG    1       60.212  46.799  27.807  0.00  0.00    -0.270 OA
ATOM      3  C   LIG    1       59.882  46.525  28.946  0.00  0.00    +0.252 C 
ATOM      4  N   LIG    1       60.622  46.600  30.083  0.00  0.00    -0.200 N 
ATOM      5  C   LIG    1       59.885  46.211  31.157  0.00  0.00    +0.252 C 
ATOM      6  O   LIG    1       60.178  46.138  32.337  0.00  0.00    -0.270 OA
ATOM      7  C   LIG    1       58.559  45.854  30.648  0.00  0.00    +0.023 C 
ATOM      8  C   LIG    1       57.435  45.373  31.467  0.00  0.00    +0.041 C 
ATOM      9  C   LIG    1       56.185  45.006  30.657  0.00  0.00    +0.005 C 
ATOM     10  C   LIG    1       56.137  45.330  29.152  0.00  0.00    +0.005 C 
ATOM     11  C   LIG    1       57.417  45.785  28.432  0.00  0.00    +0.041 C 
ATOM     12  C   LIG    1       58.554  46.036  29.332  0.00  0.00    +0.023 C 
ENDBRANCH   1   4
BRANCH   1  13
ATOM     13  O   LIG    1       62.616  46.714  31.313  0.00  0.00    -0.444 OA
BRANCH  13  14
ATOM     14  C   LIG    1       63.502  45.696  31.267  0.00  0.00    +0.313 C 
ATOM     15  O   LIG    1       63.426  44.712  30.544  0.00  0.00    -0.250 OA
BRANCH  14  16
ATOM     16  C   LIG    1       64.627  45.974  32.189  0.00  0.00    +0.111 C 
ATOM     17  C   LIG    1       65.046  45.120  33.374  0.00  0.00    -0.014 C 
ATOM     18  C   LIG    1       66.528  45.078  33.685  0.00  0.00    +0.012 C 
ATOM     19  C   LIG    1       64.354  43.814  33.677  0.00  0.00    +0.012 C 
ATOM     20  C   LIG    1       64.352  46.450  33.605  0.00  0.00    +0.032 C 
BRANCH  20  21
ATOM     21  C   LIG    1       62.965  46.550  34.086  0.00  0.00    -0.023 C 
ATOM     22  C   LIG    1       62.486  47.418  35.000  0.00  0.00    -0.079 C 
ATOM     23  C   LIG    1       61.035  47.412  35.399  0.00  0.00    +0.038 C 
ATOM     24  C   LIG    1       63.328  48.447  35.705  0.00  0.00    +0.038 C 
ENDBRANCH  20  21
ENDBRANCH  14  16
ENDBRANCH  13  14
ENDBRANCH   1  13
TORSDOF 5
ENDMDL
MODEL 3
REMARK VINA RESULT:      -8.3      1.340      5.814
REMARK  Name = 
REMARK                            x       y       z     vdW  Elec       q    Type
REMARK                         _______ _______ _______ _____ _____    ______ ____
ROOT
ATOM      1  C   LIG    1       63.542  44.070  28.766  0.00  0.00    +0.352 C 
ENDROOT
BRANCH   1   4
ATOM      2  O   LIG    1       64.946  46.311  29.960  0.00  0.00    -0.270 OA
ATOM      3  C   LIG    1       64.668  45.296  30.573  0.00  0.00    +0.252 C 
ATOM      4  N   LIG    1       64.022  44.188  30.125  0.00  0.00    -0.200 N 
ATOM      5  C   LIG    1       63.912  43.268  31.120  0.00  0.00    +0.252 C 
ATOM      6  O   LIG    1       63.408  42.159  31.124  0.00  0.00    -0.270 OA
ATOM      7  C   LIG    1       64.544  43.854  32.304  0.00  0.00    +0.023 C 
ATOM      8  C   LIG    1       64.652  43.203  33.620  0.00  0.00    +0.041 C 
ATOM      9  C   LIG    1       65.300  44.080  34.698  0.00  0.00    +0.005 C 
ATOM     10  C   LIG    1       65.927  45.430  34.299  0.00  0.00    +0.005 C 
ATOM     11  C   LIG    1       65.684  45.993  32.890  0.00  0.00    +0.041 C 
ATOM     12  C   LIG    1       64.991  45.062  31.984  0.00  0.00    +0.023 C 
ENDBRANCH   1   4
BRANCH   1  13
ATOM     13  O   LIG    1       62.130  44.184  28.740  0.00  0.00    -0.444 OA
BRANCH  13  14
ATOM     14  C   LIG    1       61.651  45.440  28.620  0.00  0.00    +0.313 C 
ATOM     15  O   LIG    1       62.238  46.385  28.109  0.00  0.00    -0.250 OA
BRANCH  14  16
ATOM     16  C   LIG    1       60.270  45.501  29.151  0.00  0.00    +0.111 C 
ATOM     17  C   LIG    1       59.430  46.756  29.321  0.00  0.00    -0.014 C 
ATOM     18  C   LIG    1       57.937  46.602  29.115  0.00  0.00    +0.012 C 
ATOM     19  C   LIG    1       59.940  48.102  28.872  0.00  0.00    +0.012 C 
ATOM     20  C   LIG    1       60.011  46.060  30.539  0.00  0.00    +0.032 C 
BRANCH  20  21
ATOM     21  C   LIG    1       61.125  46.624  31.319  0.00  0.00    -0.023 C 
ATOM     22  C   LIG    1       61.215  46.696  32.663  0.00  0.00    -0.079 C 
ATOM     23  C   LIG    1       62.421  47.298  33.333  0.00  0.00    +0.038 C 
ATOM     24  C   LIG    1       60.149  46.208  33.606  0.00  0.00    +0.038 C 
ENDBRANCH  20  21
ENDBRANCH  14  16
ENDBRANCH  13  14
ENDBRANCH   1  13
TORSDOF 5
ENDMDL
MODEL 4
REMARK VINA RESULT:      -8.2      1.359      5.513
REMARK  Name = 
REMARK                            x       y       z     vdW  Elec       q    Type
REMARK                         _______ _______ _______ _____ _____    ______ ____
ROOT
ATOM      1  C   LIG    1       63.704  44.166  28.897  0.00  0.00    +0.352 C 
ENDROOT
BRANCH   1   4
ATOM      2  O   LIG    1       63.511  42.162  30.985  0.00  0.00    -0.270 OA
ATOM      3  C   LIG    1       63.946  43.283  31.176  0.00  0.00    +0.252 C 
ATOM      4  N   LIG    1       64.080  44.301  30.286  0.00  0.00    -0.200 N 
ATOM      5  C   LIG    1       64.602  45.399  30.895  0.00  0.00    +0.252 C 
ATOM      6  O   LIG    1       64.871  46.501  30.452  0.00  0.00    -0.270 OA
ATOM      7  C   LIG    1       64.818  45.037  32.298  0.00  0.00    +0.023 C 
ATOM      8  C   LIG    1       65.374  45.927  33.330  0.00  0.00    +0.041 C 
ATOM      9  C   LIG    1       65.557  45.258  34.698  0.00  0.00    +0.005 C 
ATOM     10  C   LIG    1       64.999  43.840  34.927  0.00  0.00    +0.005 C 
ATOM     11  C   LIG    1       64.491  43.021  33.730  0.00  0.00    +0.041 C 
ATOM     12  C   LIG    1       64.433  43.777  32.468  0.00  0.00    +0.023 C 
ENDBRANCH   1   4
BRANCH   1  13
ATOM     13  O   LIG    1       62.295  44.247  28.767  0.00  0.00    -0.444 OA
BRANCH  13  14
ATOM     14  C   LIG    1       61.791  45.498  28.691  0.00  0.00    +0.313 C 
ATOM     15  O   LIG    1       62.371  46.478  28.244  0.00  0.00    -0.250 OA
BRANCH  14  16
ATOM     16  C   LIG    1       60.394  45.503  29.180  0.00  0.00    +0.111 C 
ATOM     17  C   LIG    1       59.493  46.721  29.306  0.00  0.00    -0.014 C 
ATOM     18  C   LIG    1       58.016  46.496  29.058  0.00  0.00    +0.012 C 
ATOM     19  C   LIG    1       59.955  48.082  28.852  0.00  0.00    +0.012 C 
ATOM     20  C   LIG    1       60.068  46.069  30.552  0.00  0.00    +0.032 C 
BRANCH  20  21
ATOM     21  C   LIG    1       61.131  46.693  31.355  0.00  0.00    -0.023 C 
ATOM     22  C   LIG    1       61.190  46.766  32.701  0.00  0.00    -0.079 C 
ATOM     23  C   LIG    1       62.345  47.434  33.397  0.00  0.00    +0.038 C 
ATOM     24  C   LIG    1       60.136  46.214  33.621  0.00  0.00    +0.038 C 
ENDBRANCH  20  21
ENDBRANCH  14  16
ENDBRANCH  13  14
ENDBRANCH   1  13
TORSDOF 5
ENDMDL
MODEL 5
REMARK VINA RESULT:      -8.2      2.374      4.309
REMARK  Name = 
REMARK                            x       y       z     vdW  Elec       q    Type
REMARK                         _______ _______ _______ _____ _____    ______ ____
ROOT
ATOM      1  C   LIG    1       60.943  46.138  30.420  0.00  0.00    +0.352 C 
ENDROOT
BRANCH   1   4
ATOM      2  O   LIG    1       59.283  46.569  28.081  0.00  0.00    -0.270 OA
ATOM      3  C   LIG    1       58.835  46.236  29.163  0.00  0.00    +0.252 C 
ATOM      4  N   LIG    1       59.506  46.010  30.323  0.00  0.00    -0.200 N 
ATOM      5  C   LIG    1       58.641  45.662  31.312  0.00  0.00    +0.252 C 
ATOM      6  O   LIG    1       58.840  45.383  32.481  0.00  0.00    -0.270 OA
ATOM      7  C   LIG    1       57.302  45.665  30.718  0.00  0.00    +0.023 C 
ATOM      8  C   LIG    1       56.055  45.343  31.430  0.00  0.00    +0.041 C 
ATOM      9  C   LIG    1       54.806  45.357  30.539  0.00  0.00    +0.005 C 
ATOM     10  C   LIG    1       54.918  45.866  29.089  0.00  0.00    +0.005 C 
ATOM     11  C   LIG    1       56.305  46.117  28.477  0.00  0.00    +0.041 C 
ATOM     12  C   LIG    1       57.414  46.003  29.438  0.00  0.00    +0.023 C 
ENDBRANCH   1   4
BRANCH   1  13
ATOM     13  O   LIG    1       61.279  47.016  31.481  0.00  0.00    -0.444 OA
BRANCH  13  14
ATOM     14  C   LIG    1       62.313  46.620  32.255  0.00  0.00    +0.313 C 
ATOM     15  O   LIG    1       63.460  46.428  31.875  0.00  0.00    -0.250 OA
BRANCH  14  16
ATOM     16  C   LIG    1       61.866  46.505  33.662  0.00  0.00    +0.111 C 
ATOM     17  C   LIG    1       62.071  47.542  34.754  0.00  0.00    -0.014 C 
ATOM     18  C   LIG    1       60.977  47.651  35.796  0.00  0.00    +0.012 C 
ATOM     19  C   LIG    1       62.719  48.871  34.456  0.00  0.00    +0.012 C 
ATOM     20  C   LIG    1       62.880  46.257  34.766  0.00  0.00    +0.032 C 
BRANCH  20  21
ATOM     21  C   LIG    1       64.315  46.220  34.444  0.00  0.00    -0.023 C 
ATOM     22  C   LIG    1       65.101  45.125  34.379  0.00  0.00    -0.079 C 
ATOM     23  C   LIG    1       66.561  45.231  34.032  0.00  0.00    +0.038 C 
ATOM     24  C   LIG    1       64.618  43.726  34.648  0.00  0.00    +0.038 C 
ENDBRANCH  20  21
ENDBRANCH  14  16
ENDBRANCH  13  14
ENDBRANCH   1  13
TORSDOF 5
ENDMDL
MODEL 6
REMARK VINA RESULT:      -8.2      1.816      5.997
REMARK  Name = 
REMARK                            x       y       z     vdW  Elec       q    Type
REMARK                         _______ _______ _______ _____ _____    ______ ____
ROOT
ATOM      1  C   LIG    1       64.469  43.942  29.411  0.00  0.00    +0.352 C 
ENDROOT
BRANCH   1   4
ATOM      2  O   LIG    1       65.046  46.422  30.800  0.00  0.00    -0.270 OA
ATOM      3  C   LIG    1       64.789  45.380  31.376  0.00  0.00    +0.252 C 
ATOM      4  N   LIG    1       64.509  44.164  30.839  0.00  0.00    -0.200 N 
ATOM      5  C   LIG    1       64.284  43.251  31.821  0.00  0.00    +0.252 C 
ATOM      6  O   LIG    1       64.008  42.067  31.757  0.00  0.00    -0.270 OA
ATOM      7  C   LIG    1       64.434  43.960  33.094  0.00  0.00    +0.023 C 
ATOM      8  C   LIG    1       64.275  43.357  34.427  0.00  0.00    +0.041 C 
ATOM      9  C   LIG    1       64.418  44.354  35.584  0.00  0.00    +0.005 C 
ATOM     10  C   LIG    1       64.881  45.794  35.288  0.00  0.00    +0.005 C 
ATOM     11  C   LIG    1       64.955  46.284  33.834  0.00  0.00    +0.041 C 
ATOM     12  C   LIG    1       64.731  45.228  32.833  0.00  0.00    +0.023 C 
ENDBRANCH   1   4
BRANCH   1  13
ATOM     13  O   LIG    1       63.712  44.963  28.784  0.00  0.00    -0.444 OA
BRANCH  13  14
ATOM     14  C   LIG    1       62.378  44.754  28.744  0.00  0.00    +0.313 C 
ATOM     15  O   LIG    1       61.789  43.793  29.219  0.00  0.00    -0.250 OA
BRANCH  14  16
ATOM     16  C   LIG    1       61.714  45.902  28.085  0.00  0.00    +0.111 C 
ATOM     17  C   LIG    1       61.441  47.260  28.711  0.00  0.00    -0.014 C 
ATOM     18  C   LIG    1       61.504  48.456  27.784  0.00  0.00    +0.012 C 
ATOM     19  C   LIG    1       61.914  47.584  30.106  0.00  0.00    +0.012 C 
ATOM     20  C   LIG    1       60.297  46.290  28.474  0.00  0.00    +0.032 C 
BRANCH  20  21
ATOM     21  C   LIG    1       59.620  45.577  29.569  0.00  0.00    -0.023 C 
ATOM     22  C   LIG    1       58.292  45.516  29.794  0.00  0.00    -0.079 C 
ATOM     23  C   LIG    1       57.731  44.743  30.957  0.00  0.00    +0.038 C 
ATOM     24  C   LIG    1       57.261  46.200  28.938  0.00  0.00    +0.038 C 
ENDBRANCH  20  21
ENDBRANCH  14  16
ENDBRANCH  13  14
ENDBRANCH   1  13
TORSDOF 5
ENDMDL
MODEL 7
REMARK VINA RESULT:      -8.2      1.829      5.715
REMARK  Name = 
REMARK                            x       y       z     vdW  Elec       q    Type
REMARK                         _______ _______ _______ _____ _____    ______ ____
ROOT
ATOM      1  C   LIG    1       64.403  43.873  29.367  0.00  0.00    +0.352 C 
ENDROOT
BRANCH   1   4
ATOM      2  O   LIG    1       63.961  42.079  31.604  0.00  0.00    -0.270 OA
ATOM      3  C   LIG    1       64.251  43.254  31.739  0.00  0.00    +0.252 C 
ATOM      4  N   LIG    1       64.477  44.186  30.777  0.00  0.00    -0.200 N 
ATOM      5  C   LIG    1       64.768  45.389  31.339  0.00  0.00    +0.252 C 
ATOM      6  O   LIG    1       65.027  46.463  30.827  0.00  0.00    -0.270 OA
ATOM      7  C   LIG    1       64.725  45.195  32.790  0.00  0.00    +0.023 C 
ATOM      8  C   LIG    1       64.982  46.238  33.795  0.00  0.00    +0.041 C 
ATOM      9  C   LIG    1       64.939  45.733  35.244  0.00  0.00    +0.005 C 
ATOM     10  C   LIG    1       64.469  44.293  35.529  0.00  0.00    +0.005 C 
ATOM     11  C   LIG    1       64.287  43.309  34.363  0.00  0.00    +0.041 C 
ATOM     12  C   LIG    1       64.422  43.924  33.032  0.00  0.00    +0.023 C 
ENDBRANCH   1   4
BRANCH   1  13
ATOM     13  O   LIG    1       63.668  44.875  28.686  0.00  0.00    -0.444 OA
BRANCH  13  14
ATOM     14  C   LIG    1       62.326  44.730  28.716  0.00  0.00    +0.313 C 
ATOM     15  O   LIG    1       61.716  43.802  29.230  0.00  0.00    -0.250 OA
BRANCH  14  16
ATOM     16  C   LIG    1       61.684  45.902  28.078  0.00  0.00    +0.111 C 
ATOM     17  C   LIG    1       61.467  47.263  28.718  0.00  0.00    -0.014 C 
ATOM     18  C   LIG    1       61.547  48.463  27.797  0.00  0.00    +0.012 C 
ATOM     19  C   LIG    1       61.980  47.564  30.104  0.00  0.00    +0.012 C 
ATOM     20  C   LIG    1       60.288  46.331  28.500  0.00  0.00    +0.032 C 
BRANCH  20  21
ATOM     21  C   LIG    1       59.613  45.632  29.605  0.00  0.00    -0.023 C 
ATOM     22  C   LIG    1       58.283  45.490  29.778  0.00  0.00    -0.079 C 
ATOM     23  C   LIG    1       57.724  44.743  30.960  0.00  0.00    +0.038 C 
ATOM     24  C   LIG    1       57.247  46.053  28.843  0.00  0.00    +0.038 C 
ENDBRANCH  20  21
ENDBRANCH  14  16
ENDBRANCH  13  14
ENDBRANCH   1  13
TORSDOF 5
ENDMDL
MODEL 8
REMARK VINA RESULT:      -8.2      2.241      3.636
REMARK  Name = 
REMARK                            x       y       z     vdW  Elec       q    Type
REMARK                         _______ _______ _______ _____ _____    ______ ____
ROOT
ATOM      1  C   LIG    1       61.329  46.960  30.950  0.00  0.00    +0.352 C 
ENDROOT
BRANCH   1   4
ATOM      2  O   LIG    1       59.308  45.890  32.735  0.00  0.00    -0.270 OA
ATOM      3  C   LIG    1       59.135  46.024  31.537  0.00  0.00    +0.252 C 
ATOM      4  N   LIG    1       60.000  46.506  30.606  0.00  0.00    -0.200 N 
ATOM      5  C   LIG    1       59.429  46.488  29.373  0.00  0.00    +0.252 C 
ATOM      6  O   LIG    1       59.867  46.829  28.289  0.00  0.00    -0.270 OA
ATOM      7  C   LIG    1       58.078  45.948  29.545  0.00  0.00    +0.023 C 
ATOM      8  C   LIG    1       57.097  45.753  28.465  0.00  0.00    +0.041 C 
ATOM      9  C   LIG    1       55.734  45.238  28.946  0.00  0.00    +0.005 C 
ATOM     10  C   LIG    1       55.565  44.807  30.416  0.00  0.00    +0.005 C 
ATOM     11  C   LIG    1       56.672  45.124  31.433  0.00  0.00    +0.041 C 
ATOM     12  C   LIG    1       57.898  45.675  30.832  0.00  0.00    +0.023 C 
ENDBRANCH   1   4
BRANCH   1  13
ATOM     13  O   LIG    1       62.075  45.893  31.510  0.00  0.00    -0.444 OA
BRANCH  13  14
ATOM     14  C   LIG    1       62.836  46.215  32.578  0.00  0.00    +0.313 C 
ATOM     15  O   LIG    1       62.714  47.218  33.268  0.00  0.00    -0.250 OA
BRANCH  14  16
ATOM     16  C   LIG    1       63.817  45.137  32.833  0.00  0.00    +0.111 C 
ATOM     17  C   LIG    1       65.296  45.324  33.131  0.00  0.00    -0.014 C 
ATOM     18  C   LIG    1       65.927  44.321  34.074  0.00  0.00    +0.012 C 
ATOM     19  C   LIG    1       65.897  46.700  33.265  0.00  0.00    +0.012 C 
ATOM     20  C   LIG    1       64.856  44.785  31.781  0.00  0.00    +0.032 C 
BRANCH  20  21
ATOM     21  C   LIG    1       64.939  45.578  30.544  0.00  0.00    -0.023 C 
ATOM     22  C   LIG    1       64.453  45.239  29.332  0.00  0.00    -0.079 C 
ATOM     23  C   LIG    1       64.605  46.152  28.146  0.00  0.00    +0.038 C 
ATOM     24  C   LIG    1       63.737  43.947  29.044  0.00  0.00    +0.038 C 
ENDBRANCH  20  21
ENDBRANCH  14  16
ENDBRANCH  13  14
ENDBRANCH   1  13
TORSDOF 5
ENDMDL
MODEL 9
REMARK VINA RESULT:      -8.0      1.946      5.581
REMARK  Name = 
REMARK                            x       y       z     vdW  Elec       q    Type
REMARK                         _______ _______ _______ _____ _____    ______ ____
ROOT
ATOM      1  C   LIG    1       64.195  43.602  31.257  0.00  0.00    +0.352 C 
ENDROOT
BRANCH   1   4
ATOM      2  O   LIG    1       65.437  43.599  33.879  0.00  0.00    -0.270 OA
ATOM      3  C   LIG    1       64.616  44.429  33.532  0.00  0.00    +0.252 C 
ATOM      4  N   LIG    1       63.967  44.531  32.342  0.00  0.00    -0.200 N 
ATOM      5  C   LIG    1       63.121  45.595  32.352  0.00  0.00    +0.252 C 
ATOM      6  O   LIG    1       62.370  46.020  31.493  0.00  0.00    -0.270 OA
ATOM      7  C   LIG    1       63.253  46.223  33.669  0.00  0.00    +0.023 C 
ATOM      8  C   LIG    1       62.519  47.416  34.118  0.00  0.00    +0.041 C 
ATOM      9  C   LIG    1       62.910  47.897  35.522  0.00  0.00    +0.005 C 
ATOM     10  C   LIG    1       63.851  47.031  36.383  0.00  0.00    +0.005 C 
ATOM     11  C   LIG    1       64.577  45.836  35.747  0.00  0.00    +0.041 C 
ATOM     12  C   LIG    1       64.145  45.534  34.372  0.00  0.00    +0.023 C 
ENDBRANCH   1   4
BRANCH   1  13
ATOM     13  O   LIG    1       64.375  44.311  30.044  0.00  0.00    -0.444 OA
BRANCH  13  14
ATOM     14  C   LIG    1       63.456  44.064  29.086  0.00  0.00    +0.313 C 
ATOM     15  O   LIG    1       62.527  43.272  29.172  0.00  0.00    -0.250 OA
BRANCH  14  16
ATOM     16  C   LIG    1       63.701  44.944  27.921  0.00  0.00    +0.111 C 
ATOM     17  C   LIG    1       63.898  46.450  27.962  0.00  0.00    -0.014 C 
ATOM     18  C   LIG    1       64.847  47.035  26.936  0.00  0.00    +0.012 C 
ATOM     19  C   LIG    1       63.930  47.197  29.271  0.00  0.00    +0.012 C 
ATOM     20  C   LIG    1       62.605  45.868  27.419  0.00  0.00    +0.032 C 
BRANCH  20  21
ATOM     21  C   LIG    1       61.329  45.951  28.148  0.00  0.00    -0.023 C 
ATOM     22  C   LIG    1       60.508  47.019  28.222  0.00  0.00    -0.079 C 
ATOM     23  C   LIG    1       59.224  46.964  29.004  0.00  0.00    +0.038 C 
ATOM     24  C   LIG    1       60.785  48.341  27.558  0.00  0.00    +0.038 C 
ENDBRANCH  20  21
ENDBRANCH  14  16
ENDBRANCH  13  14
ENDBRANCH   1  13
TORSDOF 5
ENDMDL
