MODEL 1
REMARK VINA RESULT:     -10.2      0.000      0.000
REMARK  Name = 
REMARK                            x       y       z     vdW  Elec       q    Type
REMARK                         _______ _______ _______ _____ _____    ______ ____
ROOT
ATOM      1  C   LIG    1       41.968  -0.350  17.914  0.00  0.00    +0.352 C 
ENDROOT
BRANCH   1   4
ATOM      2  O   LIG    1       44.505  -1.175  19.054  0.00  0.00    -0.270 OA
ATOM      3  C   LIG    1       43.921  -1.812  18.196  0.00  0.00    +0.252 C 
ATOM      4  N   LIG    1       42.740  -1.528  17.587  0.00  0.00    -0.200 N 
ATOM      5  C   LIG    1       42.431  -2.489  16.677  0.00  0.00    +0.252 C 
ATOM      6  O   LIG    1       41.474  -2.601  15.933  0.00  0.00    -0.270 OA
ATOM      7  C   LIG    1       43.518  -3.471  16.719  0.00  0.00    +0.023 C 
ATOM      8  C   LIG    1       43.597  -4.688  15.896  0.00  0.00    +0.041 C 
ATOM      9  C   LIG    1       44.813  -5.571  16.202  0.00  0.00    +0.005 C 
ATOM     10  C   LIG    1       45.901  -5.053  17.162  0.00  0.00    +0.005 C 
ATOM     11  C   LIG    1       45.644  -3.781  17.985  0.00  0.00    +0.041 C 
ATOM     12  C   LIG    1       44.405  -3.074  17.625  0.00  0.00    +0.023 C 
ENDBRANCH   1   4
BRANCH   1  13
ATOM     13  O   LIG    1       40.710  -0.728  18.445  0.00  0.00    -0.444 OA
BRANCH  13  14
ATOM     14  C   LIG    1       39.642  -0.425  17.677  0.00  0.00    +0.313 C 
ATOM     15  O   LIG    1       38.769  -1.205  17.323  0.00  0.00    -0.250 OA
BRANCH  14  16
ATOM     16  C   LIG    1       39.647   1.023  17.366  0.00  0.00    +0.111 C 
ATOM     17  C   LIG    1       38.461   1.840  16.881  0.00  0.00    -0.014 C 
ATOM     18  C   LIG    1       38.398   3.281  17.344  0.00  0.00    +0.012 C 
ATOM     19  C   LIG    1       37.094   1.219  16.737  0.00  0.00    +0.012 C 
ATOM     20  C   LIG    1       39.587   1.494  15.923  0.00  0.00    +0.032 C 
BRANCH  20  21
ATOM     21  C   LIG    1       39.434   0.509  14.840  0.00  0.00    -0.023 C 
ATOM     22  C   LIG    1       38.893   0.724  13.623  0.00  0.00    -0.079 C 
ATOM     23  C   LIG    1       38.802  -0.378  12.603  0.00  0.00    +0.038 C 
ATOM     24  C   LIG    1       38.330   2.045  13.173  0.00  0.00    +0.038 C 
ENDBRANCH  20  21
ENDBRANCH  14  16
ENDBRANCH  13  14
ENDBRANCH   1  13
TORSDOF 5
ENDMDL
MODEL 2
REMARK VINA RESULT:     -10.0      1.379      3.173
REMARK  Name = 
REMARK                            x       y       z     vdW  Elec       q    Type
REMARK                         _______ _______ _______ _____ _____    ______ ____
ROOT
ATOM      1  C   LIG    1       41.970  -0.969  17.981  0.00  0.00    +0.352 C 
ENDROOT
BRANCH   1   4
ATOM      2  O   LIG    1       42.189  -3.290  16.255  0.00  0.00    -0.270 OA
ATOM      3  C   LIG    1       43.066  -2.950  17.028  0.00  0.00    +0.252 C 
ATOM      4  N   LIG    1       43.077  -1.894  17.883  0.00  0.00    -0.200 N 
ATOM      5  C   LIG    1       44.242  -1.862  18.584  0.00  0.00    +0.252 C 
ATOM      6  O   LIG    1       44.635  -1.087  19.437  0.00  0.00    -0.270 OA
ATOM      7  C   LIG    1       45.039  -3.003  18.125  0.00  0.00    +0.023 C 
ATOM      8  C   LIG    1       46.381  -3.354  18.614  0.00  0.00    +0.041 C 
ATOM      9  C   LIG    1       47.009  -4.559  17.902  0.00  0.00    +0.005 C 
ATOM     10  C   LIG    1       46.158  -5.382  16.915  0.00  0.00    +0.005 C 
ATOM     11  C   LIG    1       44.787  -4.851  16.469  0.00  0.00    +0.041 C 
ATOM     12  C   LIG    1       44.344  -3.650  17.196  0.00  0.00    +0.023 C 
ENDBRANCH   1   4
BRANCH   1  13
ATOM     13  O   LIG    1       42.109   0.055  17.011  0.00  0.00    -0.444 OA
BRANCH  13  14
ATOM     14  C   LIG    1       41.135   0.104  16.077  0.00  0.00    +0.313 C 
ATOM     15  O   LIG    1       41.286   0.398  14.899  0.00  0.00    -0.250 OA
BRANCH  14  16
ATOM     16  C   LIG    1       39.847  -0.312  16.679  0.00  0.00    +0.111 C 
ATOM     17  C   LIG    1       38.476  -0.184  16.036  0.00  0.00    -0.014 C 
ATOM     18  C   LIG    1       37.472  -1.269  16.366  0.00  0.00    +0.012 C 
ATOM     19  C   LIG    1       38.319   0.341  14.631  0.00  0.00    +0.012 C 
ATOM     20  C   LIG    1       38.867   0.735  17.180  0.00  0.00    +0.032 C 
BRANCH  20  21
ATOM     21  C   LIG    1       39.162   2.164  16.986  0.00  0.00    -0.023 C 
ATOM     22  C   LIG    1       38.288   3.188  17.068  0.00  0.00    -0.079 C 
ATOM     23  C   LIG    1       38.728   4.610  16.850  0.00  0.00    +0.038 C 
ATOM     24  C   LIG    1       36.822   3.022  17.368  0.00  0.00    +0.038 C 
ENDBRANCH  20  21
ENDBRANCH  14  16
ENDBRANCH  13  14
ENDBRANCH   1  13
TORSDOF 5
ENDMDL
MODEL 3
REMARK VINA RESULT:     -10.0      1.356      2.389
REMARK  Name = 
REMARK                            x       y       z     vdW  Elec       q    Type
REMARK                         _______ _______ _______ _____ _____    ______ ____
ROOT
ATOM      1  C   LIG    1       41.476  -0.292  17.804  0.00  0.00    +0.352 C 
ENDROOT
BRANCH   1   4
ATOM      2  O   LIG    1       44.057  -0.999  18.923  0.00  0.00    -0.270 OA
ATOM      3  C   LIG    1       43.490  -1.671  18.080  0.00  0.00    +0.252 C 
ATOM      4  N   LIG    1       42.291  -1.442  17.483  0.00  0.00    -0.200 N 
ATOM      5  C   LIG    1       42.011  -2.427  16.588  0.00  0.00    +0.252 C 
ATOM      6  O   LIG    1       41.050  -2.587  15.858  0.00  0.00    -0.270 OA
ATOM      7  C   LIG    1       43.137  -3.363  16.629  0.00  0.00    +0.023 C 
ATOM      8  C   LIG    1       43.256  -4.586  15.820  0.00  0.00    +0.041 C 
ATOM      9  C   LIG    1       44.510  -5.415  16.122  0.00  0.00    +0.005 C 
ATOM     10  C   LIG    1       45.588  -4.841  17.062  0.00  0.00    +0.005 C 
ATOM     11  C   LIG    1       45.289  -3.570  17.873  0.00  0.00    +0.041 C 
ATOM     12  C   LIG    1       44.018  -2.918  17.519  0.00  0.00    +0.023 C 
ENDBRANCH   1   4
BRANCH   1  13
ATOM     13  O   LIG    1       40.106  -0.601  17.610  0.00  0.00    -0.444 OA
BRANCH  13  14
ATOM     14  C   LIG    1       39.326   0.435  17.234  0.00  0.00    +0.313 C 
ATOM     15  O   LIG    1       39.517   1.612  17.508  0.00  0.00    -0.250 OA
BRANCH  14  16
ATOM     16  C   LIG    1       38.220  -0.058  16.382  0.00  0.00    +0.111 C 
ATOM     17  C   LIG    1       38.117   0.093  14.873  0.00  0.00    -0.014 C 
ATOM     18  C   LIG    1       37.440  -1.038  14.126  0.00  0.00    +0.012 C 
ATOM     19  C   LIG    1       39.227   0.730  14.075  0.00  0.00    +0.012 C 
ATOM     20  C   LIG    1       37.225   0.921  15.781  0.00  0.00    +0.032 C 
BRANCH  20  21
ATOM     21  C   LIG    1       37.416   2.367  15.977  0.00  0.00    -0.023 C 
ATOM     22  C   LIG    1       37.004   3.355  15.156  0.00  0.00    -0.079 C 
ATOM     23  C   LIG    1       37.263   4.801  15.482  0.00  0.00    +0.038 C 
ATOM     24  C   LIG    1       36.273   3.123  13.862  0.00  0.00    +0.038 C 
ENDBRANCH  20  21
ENDBRANCH  14  16
ENDBRANCH  13  14
ENDBRANCH   1  13
TORSDOF 5
ENDMDL
MODEL 4
REMARK VINA RESULT:     -10.0      1.743      3.203
REMARK  Name = 
REMARK                            x       y       z     vdW  Elec       q    Type
REMARK                         _______ _______ _______ _____ _____    ______ ____
ROOT
ATOM      1  C   LIG    1       40.145  -1.029  17.146  0.00  0.00    +0.352 C 
ENDROOT
BRANCH   1   4
ATOM      2  O   LIG    1       40.852  -3.306  15.494  0.00  0.00    -0.270 OA
ATOM      3  C   LIG    1       41.602  -2.828  16.325  0.00  0.00    +0.252 C 
ATOM      4  N   LIG    1       41.384  -1.774  17.154  0.00  0.00    -0.200 N 
ATOM      5  C   LIG    1       42.471  -1.556  17.942  0.00  0.00    +0.252 C 
ATOM      6  O   LIG    1       42.673  -0.721  18.804  0.00  0.00    -0.270 OA
ATOM      7  C   LIG    1       43.466  -2.565  17.570  0.00  0.00    +0.023 C 
ATOM      8  C   LIG    1       44.803  -2.702  18.170  0.00  0.00    +0.041 C 
ATOM      9  C   LIG    1       45.662  -3.803  17.535  0.00  0.00    +0.005 C 
ATOM     10  C   LIG    1       45.028  -4.756  16.504  0.00  0.00    +0.005 C 
ATOM     11  C   LIG    1       43.631  -4.448  15.942  0.00  0.00    +0.041 C 
ATOM     12  C   LIG    1       42.954  -3.321  16.606  0.00  0.00    +0.023 C 
ENDBRANCH   1   4
BRANCH   1  13
ATOM     13  O   LIG    1       40.394   0.319  16.782  0.00  0.00    -0.444 OA
BRANCH  13  14
ATOM     14  C   LIG    1       39.347   1.159  16.924  0.00  0.00    +0.313 C 
ATOM     15  O   LIG    1       39.374   2.251  17.475  0.00  0.00    -0.250 OA
BRANCH  14  16
ATOM     16  C   LIG    1       38.155   0.587  16.257  0.00  0.00    +0.111 C 
ATOM     17  C   LIG    1       37.868   0.608  14.765  0.00  0.00    -0.014 C 
ATOM     18  C   LIG    1       37.126  -0.587  14.203  0.00  0.00    +0.012 C 
ATOM     19  C   LIG    1       38.862   1.182  13.787  0.00  0.00    +0.012 C 
ATOM     20  C   LIG    1       37.078   1.504  15.702  0.00  0.00    +0.032 C 
BRANCH  20  21
ATOM     21  C   LIG    1       37.265   2.963  15.751  0.00  0.00    -0.023 C 
ATOM     22  C   LIG    1       36.733   3.875  14.911  0.00  0.00    -0.079 C 
ATOM     23  C   LIG    1       37.005   5.345  15.080  0.00  0.00    +0.038 C 
ATOM     24  C   LIG    1       35.846   3.529  13.746  0.00  0.00    +0.038 C 
ENDBRANCH  20  21
ENDBRANCH  14  16
ENDBRANCH  13  14
ENDBRANCH   1  13
TORSDOF 5
ENDMDL
MODEL 5
REMARK VINA RESULT:      -9.9      1.386      2.607
REMARK  Name = 
REMARK                            x       y       z     vdW  Elec       q    Type
REMARK                         _______ _______ _______ _____ _____    ______ ____
ROOT
ATOM      1  C   LIG    1       41.755  -0.400  17.383  0.00  0.00    +0.352 C 
ENDROOT
BRANCH   1   4
ATOM      2  O   LIG    1       44.344  -0.913  18.588  0.00  0.00    -0.270 OA
ATOM      3  C   LIG    1       43.788  -1.699  17.842  0.00  0.00    +0.252 C 
ATOM      4  N   LIG    1       42.588  -1.570  17.219  0.00  0.00    -0.200 N 
ATOM      5  C   LIG    1       42.324  -2.669  16.463  0.00  0.00    +0.252 C 
ATOM      6  O   LIG    1       41.367  -2.939  15.760  0.00  0.00    -0.270 OA
ATOM      7  C   LIG    1       43.463  -3.575  16.630  0.00  0.00    +0.023 C 
ATOM      8  C   LIG    1       43.601  -4.894  15.991  0.00  0.00    +0.041 C 
ATOM      9  C   LIG    1       44.867  -5.657  16.402  0.00  0.00    +0.005 C 
ATOM     10  C   LIG    1       45.934  -4.946  17.258  0.00  0.00    +0.005 C 
ATOM     11  C   LIG    1       45.615  -3.583  17.891  0.00  0.00    +0.041 C 
ATOM     12  C   LIG    1       44.335  -3.003  17.453  0.00  0.00    +0.023 C 
ENDBRANCH   1   4
BRANCH   1  13
ATOM     13  O   LIG    1       41.838   0.418  16.229  0.00  0.00    -0.444 OA
BRANCH  13  14
ATOM     14  C   LIG    1       40.707   0.500  15.495  0.00  0.00    +0.313 C 
ATOM     15  O   LIG    1       40.636   0.843  14.323  0.00  0.00    -0.250 OA
BRANCH  14  16
ATOM     16  C   LIG    1       39.553   0.053  16.308  0.00  0.00    +0.111 C 
ATOM     17  C   LIG    1       38.088   0.161  15.918  0.00  0.00    -0.014 C 
ATOM     18  C   LIG    1       37.176  -0.947  16.405  0.00  0.00    +0.012 C 
ATOM     19  C   LIG    1       37.676   0.697  14.570  0.00  0.00    +0.012 C 
ATOM     20  C   LIG    1       38.658   1.075  16.989  0.00  0.00    +0.032 C 
BRANCH  20  21
ATOM     21  C   LIG    1       38.889   2.511  16.765  0.00  0.00    -0.023 C 
ATOM     22  C   LIG    1       38.021   3.516  17.001  0.00  0.00    -0.079 C 
ATOM     23  C   LIG    1       38.391   4.949  16.730  0.00  0.00    +0.038 C 
ATOM     24  C   LIG    1       36.628   3.317  17.536  0.00  0.00    +0.038 C 
ENDBRANCH  20  21
ENDBRANCH  14  16
ENDBRANCH  13  14
ENDBRANCH   1  13
TORSDOF 5
ENDMDL
MODEL 6
REMARK VINA RESULT:      -9.7      1.585      3.316
REMARK  Name = 
REMARK                            x       y       z     vdW  Elec       q    Type
REMARK                         _______ _______ _______ _____ _____    ______ ____
ROOT
ATOM      1  C   LIG    1       42.519  -1.570  15.785  0.00  0.00    +0.352 C 
ENDROOT
BRANCH   1   4
ATOM      2  O   LIG    1       44.442  -3.394  14.606  0.00  0.00    -0.270 OA
ATOM      3  C   LIG    1       44.462  -3.073  15.780  0.00  0.00    +0.252 C 
ATOM      4  N   LIG    1       43.620  -2.238  16.443  0.00  0.00    -0.200 N 
ATOM      5  C   LIG    1       43.975  -2.144  17.752  0.00  0.00    +0.252 C 
ATOM      6  O   LIG    1       43.482  -1.509  18.666  0.00  0.00    -0.270 OA
ATOM      7  C   LIG    1       45.153  -2.998  17.928  0.00  0.00    +0.023 C 
ATOM      8  C   LIG    1       45.877  -3.197  19.193  0.00  0.00    +0.041 C 
ATOM      9  C   LIG    1       47.118  -4.090  19.068  0.00  0.00    +0.005 C 
ATOM     10  C   LIG    1       47.390  -4.825  17.741  0.00  0.00    +0.005 C 
ATOM     11  C   LIG    1       46.567  -4.469  16.493  0.00  0.00    +0.041 C 
ATOM     12  C   LIG    1       45.448  -3.549  16.756  0.00  0.00    +0.023 C 
ENDBRANCH   1   4
BRANCH   1  13
ATOM     13  O   LIG    1       41.349  -2.365  15.873  0.00  0.00    -0.444 OA
BRANCH  13  14
ATOM     14  C   LIG    1       40.317  -1.803  16.538  0.00  0.00    +0.313 C 
ATOM     15  O   LIG    1       40.383  -1.245  17.625  0.00  0.00    -0.250 OA
BRANCH  14  16
ATOM     16  C   LIG    1       39.083  -1.911  15.726  0.00  0.00    +0.111 C 
ATOM     17  C   LIG    1       38.751  -1.093  14.489  0.00  0.00    -0.014 C 
ATOM     18  C   LIG    1       37.946  -1.791  13.413  0.00  0.00    +0.012 C 
ATOM     19  C   LIG    1       39.736  -0.102  13.922  0.00  0.00    +0.012 C 
ATOM     20  C   LIG    1       38.026  -0.822  15.796  0.00  0.00    +0.032 C 
BRANCH  20  21
ATOM     21  C   LIG    1       38.271   0.382  16.605  0.00  0.00    -0.023 C 
ATOM     22  C   LIG    1       37.829   1.631  16.351  0.00  0.00    -0.079 C 
ATOM     23  C   LIG    1       38.153   2.777  17.271  0.00  0.00    +0.038 C 
ATOM     24  C   LIG    1       36.999   2.002  15.152  0.00  0.00    +0.038 C 
ENDBRANCH  20  21
ENDBRANCH  14  16
ENDBRANCH  13  14
ENDBRANCH   1  13
TORSDOF 5
ENDMDL
MODEL 7
REMARK VINA RESULT:      -9.6      2.057      3.270
REMARK  Name = 
REMARK                            x       y       z     vdW  Elec       q    Type
REMARK                         _______ _______ _______ _____ _____    ______ ____
ROOT
ATOM      1  C   LIG    1       43.459  -0.653  15.346  0.00  0.00    +0.352 C 
ENDROOT
BRANCH   1   4
ATOM      2  O   LIG    1       45.152  -2.763  14.297  0.00  0.00    -0.270 OA
ATOM      3  C   LIG    1       45.073  -2.500  15.483  0.00  0.00    +0.252 C 
ATOM      4  N   LIG    1       44.319  -1.547  16.090  0.00  0.00    -0.200 N 
ATOM      5  C   LIG    1       44.506  -1.578  17.436  0.00  0.00    +0.252 C 
ATOM      6  O   LIG    1       44.021  -0.899  18.322  0.00  0.00    -0.270 OA
ATOM      7  C   LIG    1       45.471  -2.649  17.700  0.00  0.00    +0.023 C 
ATOM      8  C   LIG    1       45.969  -3.036  19.029  0.00  0.00    +0.041 C 
ATOM      9  C   LIG    1       47.029  -4.145  19.000  0.00  0.00    +0.005 C 
ATOM     10  C   LIG    1       47.335  -4.863  17.671  0.00  0.00    +0.005 C 
ATOM     11  C   LIG    1       46.767  -4.304  16.357  0.00  0.00    +0.041 C 
ATOM     12  C   LIG    1       45.813  -3.198  16.540  0.00  0.00    +0.023 C 
ENDBRANCH   1   4
BRANCH   1  13
ATOM     13  O   LIG    1       42.136  -1.160  15.327  0.00  0.00    -0.444 OA
BRANCH  13  14
ATOM     14  C   LIG    1       41.163  -0.246  15.532  0.00  0.00    +0.313 C 
ATOM     15  O   LIG    1       40.449   0.247  14.670  0.00  0.00    -0.250 OA
BRANCH  14  16
ATOM     16  C   LIG    1       41.043   0.036  16.981  0.00  0.00    +0.111 C 
ATOM     17  C   LIG    1       40.093  -0.648  17.951  0.00  0.00    -0.014 C 
ATOM     18  C   LIG    1       40.593  -0.831  19.369  0.00  0.00    +0.012 C 
ATOM     19  C   LIG    1       39.201  -1.777  17.502  0.00  0.00    +0.012 C 
ATOM     20  C   LIG    1       39.832   0.783  17.514  0.00  0.00    +0.032 C 
BRANCH  20  21
ATOM     21  C   LIG    1       38.738   1.147  16.600  0.00  0.00    -0.023 C 
ATOM     22  C   LIG    1       38.241   2.382  16.386  0.00  0.00    -0.079 C 
ATOM     23  C   LIG    1       37.116   2.614  15.413  0.00  0.00    +0.038 C 
ATOM     24  C   LIG    1       38.736   3.621  17.081  0.00  0.00    +0.038 C 
ENDBRANCH  20  21
ENDBRANCH  14  16
ENDBRANCH  13  14
ENDBRANCH   1  13
TORSDOF 5
ENDMDL
MODEL 8
REMARK VINA RESULT:      -9.6      2.212      8.099
REMARK  Name = 
REMARK                            x       y       z     vdW  Elec       q    Type
REMARK                         _______ _______ _______ _____ _____    ______ ____
ROOT
ATOM      1  C   LIG    1       40.397  -0.391  15.248  0.00  0.00    +0.352 C 
ENDROOT
BRANCH   1   4
ATOM      2  O   LIG    1       38.716   0.610  13.106  0.00  0.00    -0.270 OA
ATOM      3  C   LIG    1       38.687   1.055  14.239  0.00  0.00    +0.252 C 
ATOM      4  N   LIG    1       39.422   0.675  15.317  0.00  0.00    -0.200 N 
ATOM      5  C   LIG    1       39.097   1.425  16.403  0.00  0.00    +0.252 C 
ATOM      6  O   LIG    1       39.523   1.399  17.543  0.00  0.00    -0.270 OA
ATOM      7  C   LIG    1       38.058   2.363  15.969  0.00  0.00    +0.023 C 
ATOM      8  C   LIG    1       37.408   3.367  16.825  0.00  0.00    +0.041 C 
ATOM      9  C   LIG    1       36.302   4.164  16.122  0.00  0.00    +0.005 C 
ATOM     10  C   LIG    1       36.097   3.995  14.604  0.00  0.00    +0.005 C 
ATOM     11  C   LIG    1       36.823   2.864  13.860  0.00  0.00    +0.041 C 
ATOM     12  C   LIG    1       37.809   2.143  14.683  0.00  0.00    +0.023 C 
ENDBRANCH   1   4
BRANCH   1  13
ATOM     13  O   LIG    1       41.706   0.144  15.347  0.00  0.00    -0.444 OA
BRANCH  13  14
ATOM     14  C   LIG    1       42.469  -0.372  16.335  0.00  0.00    +0.313 C 
ATOM     15  O   LIG    1       42.214  -0.336  17.531  0.00  0.00    -0.250 OA
BRANCH  14  16
ATOM     16  C   LIG    1       43.650  -1.048  15.750  0.00  0.00    +0.111 C 
ATOM     17  C   LIG    1       43.927  -2.542  15.771  0.00  0.00    -0.014 C 
ATOM     18  C   LIG    1       44.651  -3.111  14.568  0.00  0.00    +0.012 C 
ATOM     19  C   LIG    1       42.934  -3.512  16.359  0.00  0.00    +0.012 C 
ATOM     20  C   LIG    1       44.734  -1.608  16.655  0.00  0.00    +0.032 C 
BRANCH  20  21
ATOM     21  C   LIG    1       44.565  -1.554  18.116  0.00  0.00    -0.023 C 
ATOM     22  C   LIG    1       45.202  -2.312  19.032  0.00  0.00    -0.079 C 
ATOM     23  C   LIG    1       44.935  -2.149  20.504  0.00  0.00    +0.038 C 
ATOM     24  C   LIG    1       46.210  -3.376  18.690  0.00  0.00    +0.038 C 
ENDBRANCH  20  21
ENDBRANCH  14  16
ENDBRANCH  13  14
ENDBRANCH   1  13
TORSDOF 5
ENDMDL
MODEL 9
REMARK VINA RESULT:      -9.5      1.479      1.926
REMARK  Name = 
REMARK                            x       y       z     vdW  Elec       q    Type
REMARK                         _______ _______ _______ _____ _____    ______ ____
ROOT
ATOM      1  C   LIG    1       42.086  -0.323  15.855  0.00  0.00    +0.352 C 
ENDROOT
BRANCH   1   4
ATOM      2  O   LIG    1       42.728  -0.578  18.673  0.00  0.00    -0.270 OA
ATOM      3  C   LIG    1       43.346  -1.152  17.794  0.00  0.00    +0.252 C 
ATOM      4  N   LIG    1       43.144  -1.108  16.451  0.00  0.00    -0.200 N 
ATOM      5  C   LIG    1       44.055  -1.886  15.808  0.00  0.00    +0.252 C 
ATOM      6  O   LIG    1       44.211  -2.112  14.622  0.00  0.00    -0.270 OA
ATOM      7  C   LIG    1       44.906  -2.477  16.844  0.00  0.00    +0.023 C 
ATOM      8  C   LIG    1       46.030  -3.395  16.598  0.00  0.00    +0.041 C 
ATOM      9  C   LIG    1       46.701  -3.915  17.876  0.00  0.00    +0.005 C 
ATOM     10  C   LIG    1       46.294  -3.322  19.239  0.00  0.00    +0.005 C 
ATOM     11  C   LIG    1       45.063  -2.407  19.332  0.00  0.00    +0.041 C 
ATOM     12  C   LIG    1       44.485  -2.045  18.027  0.00  0.00    +0.023 C 
ENDBRANCH   1   4
BRANCH   1  13
ATOM     13  O   LIG    1       40.846  -0.993  16.003  0.00  0.00    -0.444 OA
BRANCH  13  14
ATOM     14  C   LIG    1       39.868  -0.277  16.598  0.00  0.00    +0.313 C 
ATOM     15  O   LIG    1       39.170  -0.652  17.530  0.00  0.00    -0.250 OA
BRANCH  14  16
ATOM     16  C   LIG    1       39.798   1.071  15.989  0.00  0.00    +0.111 C 
ATOM     17  C   LIG    1       38.598   2.005  16.015  0.00  0.00    -0.014 C 
ATOM     18  C   LIG    1       38.898   3.488  16.074  0.00  0.00    +0.012 C 
ATOM     19  C   LIG    1       37.341   1.639  16.763  0.00  0.00    +0.012 C 
ATOM     20  C   LIG    1       38.982   1.297  14.727  0.00  0.00    +0.032 C 
BRANCH  20  21
ATOM     21  C   LIG    1       38.190   0.192  14.162  0.00  0.00    -0.023 C 
ATOM     22  C   LIG    1       38.591  -0.694  13.228  0.00  0.00    -0.079 C 
ATOM     23  C   LIG    1       37.675  -1.784  12.740  0.00  0.00    +0.038 C 
ATOM     24  C   LIG    1       39.952  -0.682  12.586  0.00  0.00    +0.038 C 
ENDBRANCH  20  21
ENDBRANCH  14  16
ENDBRANCH  13  14
ENDBRANCH   1  13
TORSDOF 5
ENDMDL
