MODEL 1
REMARK VINA RESULT:      -7.9      0.000      0.000
REMARK  Name = 
REMARK                            x       y       z     vdW  Elec       q    Type
REMARK                         _______ _______ _______ _____ _____    ______ ____
ROOT
ATOM      1  C   LIG    1       20.425  28.227   9.982  0.00  0.00    +0.352 C 
ENDROOT
BRANCH   1   4
ATOM      2  O   LIG    1       19.946  30.276  11.979  0.00  0.00    -0.270 OA
ATOM      3  C   LIG    1       19.168  30.033  11.075  0.00  0.00    +0.252 C 
ATOM      4  N   LIG    1       19.279  29.102  10.091  0.00  0.00    -0.200 N 
ATOM      5  C   LIG    1       18.191  29.140   9.277  0.00  0.00    +0.252 C 
ATOM      6  O   LIG    1       17.910  28.477   8.295  0.00  0.00    -0.270 OA
ATOM      7  C   LIG    1       17.316  30.194   9.795  0.00  0.00    +0.023 C 
ATOM      8  C   LIG    1       16.020  30.584   9.217  0.00  0.00    +0.041 C 
ATOM      9  C   LIG    1       15.353  31.770   9.925  0.00  0.00    +0.005 C 
ATOM     10  C   LIG    1       15.963  32.311  11.233  0.00  0.00    +0.005 C 
ATOM     11  C   LIG    1       17.352  31.829  11.679  0.00  0.00    +0.041 C 
ATOM     12  C   LIG    1       17.896  30.730  10.863  0.00  0.00    +0.023 C 
ENDBRANCH   1   4
BRANCH   1  13
ATOM     13  O   LIG    1       21.467  28.882   9.279  0.00  0.00    -0.444 OA
BRANCH  13  14
ATOM     14  C   LIG    1       21.619  28.509   7.990  0.00  0.00    +0.313 C 
ATOM     15  O   LIG    1       21.014  27.607   7.429  0.00  0.00    -0.250 OA
BRANCH  14  16
ATOM     16  C   LIG    1       22.597  29.402   7.327  0.00  0.00    +0.111 C 
ATOM     17  C   LIG    1       23.070  29.298   5.886  0.00  0.00    -0.014 C 
ATOM     18  C   LIG    1       23.392  30.602   5.186  0.00  0.00    +0.012 C 
ATOM     19  C   LIG    1       22.495  28.266   4.949  0.00  0.00    +0.012 C 
ATOM     20  C   LIG    1       23.999  28.902   7.020  0.00  0.00    +0.032 C 
BRANCH  20  21
ATOM     21  C   LIG    1       24.354  27.502   7.303  0.00  0.00    -0.023 C 
ATOM     22  C   LIG    1       25.530  27.047   7.781  0.00  0.00    -0.079 C 
ATOM     23  C   LIG    1       25.758  25.581   8.031  0.00  0.00    +0.038 C 
ATOM     24  C   LIG    1       26.708  27.929   8.098  0.00  0.00    +0.038 C 
ENDBRANCH  20  21
ENDBRANCH  14  16
ENDBRANCH  13  14
ENDBRANCH   1  13
TORSDOF 5
ENDMDL
MODEL 2
REMARK VINA RESULT:      -7.8      0.054      1.814
REMARK  Name = 
REMARK                            x       y       z     vdW  Elec       q    Type
REMARK                         _______ _______ _______ _____ _____    ______ ____
ROOT
ATOM      1  C   LIG    1       20.390  28.239   9.953  0.00  0.00    +0.352 C 
ENDROOT
BRANCH   1   4
ATOM      2  O   LIG    1       18.012  28.497   8.312  0.00  0.00    -0.270 OA
ATOM      3  C   LIG    1       18.218  29.181   9.298  0.00  0.00    +0.252 C 
ATOM      4  N   LIG    1       19.287  29.156  10.136  0.00  0.00    -0.200 N 
ATOM      5  C   LIG    1       19.143  30.086  11.118  0.00  0.00    +0.252 C 
ATOM      6  O   LIG    1       19.871  30.377  12.050  0.00  0.00    -0.270 OA
ATOM      7  C   LIG    1       17.863  30.756  10.876  0.00  0.00    +0.023 C 
ATOM      8  C   LIG    1       17.300  31.836  11.700  0.00  0.00    +0.041 C 
ATOM      9  C   LIG    1       15.907  32.301  11.254  0.00  0.00    +0.005 C 
ATOM     10  C   LIG    1       15.319  31.764   9.935  0.00  0.00    +0.005 C 
ATOM     11  C   LIG    1       16.010  30.597   9.213  0.00  0.00    +0.041 C 
ATOM     12  C   LIG    1       17.308  30.217   9.796  0.00  0.00    +0.023 C 
ENDBRANCH   1   4
BRANCH   1  13
ATOM     13  O   LIG    1       21.446  28.884   9.263  0.00  0.00    -0.444 OA
BRANCH  13  14
ATOM     14  C   LIG    1       21.621  28.499   7.981  0.00  0.00    +0.313 C 
ATOM     15  O   LIG    1       21.028  27.588   7.419  0.00  0.00    -0.250 OA
BRANCH  14  16
ATOM     16  C   LIG    1       22.606  29.387   7.324  0.00  0.00    +0.111 C 
ATOM     17  C   LIG    1       23.094  29.277   5.888  0.00  0.00    -0.014 C 
ATOM     18  C   LIG    1       23.424  30.578   5.186  0.00  0.00    +0.012 C 
ATOM     19  C   LIG    1       22.529  28.241   4.950  0.00  0.00    +0.012 C 
ATOM     20  C   LIG    1       24.011  28.885   7.033  0.00  0.00    +0.032 C 
BRANCH  20  21
ATOM     21  C   LIG    1       24.361  27.486   7.327  0.00  0.00    -0.023 C 
ATOM     22  C   LIG    1       25.545  27.028   7.783  0.00  0.00    -0.079 C 
ATOM     23  C   LIG    1       25.767  25.563   8.046  0.00  0.00    +0.038 C 
ATOM     24  C   LIG    1       26.737  27.904   8.060  0.00  0.00    +0.038 C 
ENDBRANCH  20  21
ENDBRANCH  14  16
ENDBRANCH  13  14
ENDBRANCH   1  13
TORSDOF 5
ENDMDL
MODEL 3
REMARK VINA RESULT:      -7.8      2.070      7.756
REMARK  Name = 
REMARK                            x       y       z     vdW  Elec       q    Type
REMARK                         _______ _______ _______ _____ _____    ______ ____
ROOT
ATOM      1  C   LIG    1       20.419  28.894   9.375  0.00  0.00    +0.352 C 
ENDROOT
BRANCH   1   4
ATOM      2  O   LIG    1       21.312  31.059   7.663  0.00  0.00    -0.270 OA
ATOM      3  C   LIG    1       21.802  29.945   7.638  0.00  0.00    +0.252 C 
ATOM      4  N   LIG    1       21.469  28.857   8.381  0.00  0.00    -0.200 N 
ATOM      5  C   LIG    1       22.251  27.796   8.048  0.00  0.00    +0.252 C 
ATOM      6  O   LIG    1       22.268  26.656   8.475  0.00  0.00    -0.270 OA
ATOM      7  C   LIG    1       23.163  28.261   6.999  0.00  0.00    +0.023 C 
ATOM      8  C   LIG    1       24.191  27.440   6.342  0.00  0.00    +0.041 C 
ATOM      9  C   LIG    1       25.050  28.208   5.330  0.00  0.00    +0.005 C 
ATOM     10  C   LIG    1       24.669  29.654   4.959  0.00  0.00    +0.005 C 
ATOM     11  C   LIG    1       23.597  30.391   5.776  0.00  0.00    +0.041 C 
ATOM     12  C   LIG    1       22.901  29.540   6.755  0.00  0.00    +0.023 C 
ENDBRANCH   1   4
BRANCH   1  13
ATOM     13  O   LIG    1       20.978  29.097  10.661  0.00  0.00    -0.444 OA
BRANCH  13  14
ATOM     14  C   LIG    1       20.543  28.255  11.622  0.00  0.00    +0.313 C 
ATOM     15  O   LIG    1       20.345  27.055  11.488  0.00  0.00    -0.250 OA
BRANCH  14  16
ATOM     16  C   LIG    1       20.394  28.990  12.899  0.00  0.00    +0.111 C 
ATOM     17  C   LIG    1       19.250  28.842  13.889  0.00  0.00    -0.014 C 
ATOM     18  C   LIG    1       19.598  29.013  15.353  0.00  0.00    +0.012 C 
ATOM     19  C   LIG    1       18.155  27.828  13.670  0.00  0.00    +0.012 C 
ATOM     20  C   LIG    1       19.352  30.089  13.028  0.00  0.00    +0.032 C 
BRANCH  20  21
ATOM     21  C   LIG    1       18.434  30.359  11.910  0.00  0.00    -0.023 C 
ATOM     22  C   LIG    1       17.345  31.155  11.933  0.00  0.00    -0.079 C 
ATOM     23  C   LIG    1       16.491  31.347  10.709  0.00  0.00    +0.038 C 
ATOM     24  C   LIG    1       16.875  31.905  13.151  0.00  0.00    +0.038 C 
ENDBRANCH  20  21
ENDBRANCH  14  16
ENDBRANCH  13  14
ENDBRANCH   1  13
TORSDOF 5
ENDMDL
MODEL 4
REMARK VINA RESULT:      -7.8      2.200      7.642
REMARK  Name = 
REMARK                            x       y       z     vdW  Elec       q    Type
REMARK                         _______ _______ _______ _____ _____    ______ ____
ROOT
ATOM      1  C   LIG    1       21.489  27.909   7.824  0.00  0.00    +0.352 C 
ENDROOT
BRANCH   1   4
ATOM      2  O   LIG    1       24.062  26.606   8.133  0.00  0.00    -0.270 OA
ATOM      3  C   LIG    1       23.917  27.663   7.547  0.00  0.00    +0.252 C 
ATOM      4  N   LIG    1       22.773  28.367   7.342  0.00  0.00    -0.200 N 
ATOM      5  C   LIG    1       23.033  29.505   6.646  0.00  0.00    +0.252 C 
ATOM      6  O   LIG    1       22.290  30.393   6.268  0.00  0.00    -0.270 OA
ATOM      7  C   LIG    1       24.475  29.516   6.384  0.00  0.00    +0.023 C 
ATOM      8  C   LIG    1       25.198  30.567   5.652  0.00  0.00    +0.041 C 
ATOM      9  C   LIG    1       26.694  30.282   5.466  0.00  0.00    +0.005 C 
ATOM     10  C   LIG    1       27.328  29.075   6.185  0.00  0.00    +0.005 C 
ATOM     11  C   LIG    1       26.425  28.039   6.871  0.00  0.00    +0.041 C 
ATOM     12  C   LIG    1       25.003  28.419   6.916  0.00  0.00    +0.023 C 
ENDBRANCH   1   4
BRANCH   1  13
ATOM     13  O   LIG    1       21.182  28.540   9.056  0.00  0.00    -0.444 OA
BRANCH  13  14
ATOM     14  C   LIG    1       20.074  29.311   9.051  0.00  0.00    +0.313 C 
ATOM     15  O   LIG    1       20.051  30.534   9.001  0.00  0.00    -0.250 OA
BRANCH  14  16
ATOM     16  C   LIG    1       18.868  28.451   9.056  0.00  0.00    +0.111 C 
ATOM     17  C   LIG    1       17.433  28.922   9.231  0.00  0.00    -0.014 C 
ATOM     18  C   LIG    1       16.372  28.145   8.479  0.00  0.00    +0.012 C 
ATOM     19  C   LIG    1       17.102  30.388   9.349  0.00  0.00    +0.012 C 
ATOM     20  C   LIG    1       18.131  28.180  10.357  0.00  0.00    +0.032 C 
BRANCH  20  21
ATOM     21  C   LIG    1       18.567  28.844  11.596  0.00  0.00    -0.023 C 
ATOM     22  C   LIG    1       18.584  28.313  12.835  0.00  0.00    -0.079 C 
ATOM     23  C   LIG    1       19.062  29.108  14.020  0.00  0.00    +0.038 C 
ATOM     24  C   LIG    1       18.132  26.914  13.158  0.00  0.00    +0.038 C 
ENDBRANCH  20  21
ENDBRANCH  14  16
ENDBRANCH  13  14
ENDBRANCH   1  13
TORSDOF 5
ENDMDL
MODEL 5
REMARK VINA RESULT:      -7.7      2.336      7.713
REMARK  Name = 
REMARK                            x       y       z     vdW  Elec       q    Type
REMARK                         _______ _______ _______ _____ _____    ______ ____
ROOT
ATOM      1  C   LIG    1       21.843  27.902   7.476  0.00  0.00    +0.352 C 
ENDROOT
BRANCH   1   4
ATOM      2  O   LIG    1       22.558  30.338   6.074  0.00  0.00    -0.270 OA
ATOM      3  C   LIG    1       23.379  29.527   6.461  0.00  0.00    +0.252 C 
ATOM      4  N   LIG    1       23.168  28.358   7.120  0.00  0.00    -0.200 N 
ATOM      5  C   LIG    1       24.349  27.733   7.371  0.00  0.00    +0.252 C 
ATOM      6  O   LIG    1       24.588  26.678   7.930  0.00  0.00    -0.270 OA
ATOM      7  C   LIG    1       25.402  28.592   6.822  0.00  0.00    +0.023 C 
ATOM      8  C   LIG    1       26.844  28.306   6.871  0.00  0.00    +0.041 C 
ATOM      9  C   LIG    1       27.722  29.417   6.281  0.00  0.00    +0.005 C 
ATOM     10  C   LIG    1       27.055  30.598   5.549  0.00  0.00    +0.005 C 
ATOM     11  C   LIG    1       25.531  30.779   5.631  0.00  0.00    +0.041 C 
ATOM     12  C   LIG    1       24.829  29.663   6.283  0.00  0.00    +0.023 C 
ENDBRANCH   1   4
BRANCH   1  13
ATOM     13  O   LIG    1       21.495  28.385   8.763  0.00  0.00    -0.444 OA
BRANCH  13  14
ATOM     14  C   LIG    1       20.418  29.198   8.804  0.00  0.00    +0.313 C 
ATOM     15  O   LIG    1       20.437  30.418   8.709  0.00  0.00    -0.250 OA
BRANCH  14  16
ATOM     16  C   LIG    1       19.186  28.386   8.926  0.00  0.00    +0.111 C 
ATOM     17  C   LIG    1       17.831  28.881   9.407  0.00  0.00    -0.014 C 
ATOM     18  C   LIG    1       16.614  28.240   8.772  0.00  0.00    +0.012 C 
ATOM     19  C   LIG    1       17.608  30.333   9.749  0.00  0.00    +0.012 C 
ATOM     20  C   LIG    1       18.671  27.982  10.298  0.00  0.00    +0.032 C 
BRANCH  20  21
ATOM     21  C   LIG    1       19.351  28.474  11.506  0.00  0.00    -0.023 C 
ATOM     22  C   LIG    1       19.134  28.074  12.776  0.00  0.00    -0.079 C 
ATOM     23  C   LIG    1       19.909  28.661  13.924  0.00  0.00    +0.038 C 
ATOM     24  C   LIG    1       18.118  27.035  13.168  0.00  0.00    +0.038 C 
ENDBRANCH  20  21
ENDBRANCH  14  16
ENDBRANCH  13  14
ENDBRANCH   1  13
TORSDOF 5
ENDMDL
MODEL 6
REMARK VINA RESULT:      -7.4      2.173      7.798
REMARK  Name = 
REMARK                            x       y       z     vdW  Elec       q    Type
REMARK                         _______ _______ _______ _____ _____    ______ ____
ROOT
ATOM      1  C   LIG    1       21.636  28.073   7.385  0.00  0.00    +0.352 C 
ENDROOT
BRANCH   1   4
ATOM      2  O   LIG    1       22.556  30.427   5.961  0.00  0.00    -0.270 OA
ATOM      3  C   LIG    1       23.311  29.590   6.421  0.00  0.00    +0.252 C 
ATOM      4  N   LIG    1       23.002  28.453   7.099  0.00  0.00    -0.200 N 
ATOM      5  C   LIG    1       24.132  27.780   7.440  0.00  0.00    +0.252 C 
ATOM      6  O   LIG    1       24.283  26.733   8.042  0.00  0.00    -0.270 OA
ATOM      7  C   LIG    1       25.258  28.569   6.933  0.00  0.00    +0.023 C 
ATOM      8  C   LIG    1       26.679  28.215   7.080  0.00  0.00    +0.041 C 
ATOM      9  C   LIG    1       27.645  29.264   6.514  0.00  0.00    +0.005 C 
ATOM     10  C   LIG    1       27.084  30.452   5.709  0.00  0.00    +0.005 C 
ATOM     11  C   LIG    1       25.569  30.709   5.690  0.00  0.00    +0.041 C 
ATOM     12  C   LIG    1       24.773  29.649   6.330  0.00  0.00    +0.023 C 
ENDBRANCH   1   4
BRANCH   1  13
ATOM     13  O   LIG    1       21.176  28.756   8.539  0.00  0.00    -0.444 OA
BRANCH  13  14
ATOM     14  C   LIG    1       21.064  28.001   9.653  0.00  0.00    +0.313 C 
ATOM     15  O   LIG    1       21.313  26.806   9.736  0.00  0.00    -0.250 OA
BRANCH  14  16
ATOM     16  C   LIG    1       20.646  28.851  10.791  0.00  0.00    +0.111 C 
ATOM     17  C   LIG    1       20.033  28.365  12.094  0.00  0.00    -0.014 C 
ATOM     18  C   LIG    1       20.381  29.154  13.339  0.00  0.00    +0.012 C 
ATOM     19  C   LIG    1       19.859  26.893  12.373  0.00  0.00    +0.012 C 
ATOM     20  C   LIG    1       19.170  29.079  11.069  0.00  0.00    +0.032 C 
BRANCH  20  21
ATOM     21  C   LIG    1       18.157  28.383  10.260  0.00  0.00    -0.023 C 
ATOM     22  C   LIG    1       17.382  28.921   9.297  0.00  0.00    -0.079 C 
ATOM     23  C   LIG    1       16.384  28.088   8.539  0.00  0.00    +0.038 C 
ATOM     24  C   LIG    1       17.423  30.371   8.895  0.00  0.00    +0.038 C 
ENDBRANCH  20  21
ENDBRANCH  14  16
ENDBRANCH  13  14
ENDBRANCH   1  13
TORSDOF 5
ENDMDL
MODEL 7
REMARK VINA RESULT:      -7.0      2.494      3.693
REMARK  Name = 
REMARK                            x       y       z     vdW  Elec       q    Type
REMARK                         _______ _______ _______ _____ _____    ______ ____
ROOT
ATOM      1  C   LIG    1       21.874  28.225   7.141  0.00  0.00    +0.352 C 
ENDROOT
BRANCH   1   4
ATOM      2  O   LIG    1       21.240  26.108   9.020  0.00  0.00    -0.270 OA
ATOM      3  C   LIG    1       20.923  27.271   9.194  0.00  0.00    +0.252 C 
ATOM      4  N   LIG    1       21.158  28.341   8.391  0.00  0.00    -0.200 N 
ATOM      5  C   LIG    1       20.635  29.470   8.939  0.00  0.00    +0.252 C 
ATOM      6  O   LIG    1       20.631  30.620   8.538  0.00  0.00    -0.270 OA
ATOM      7  C   LIG    1       20.017  29.073  10.207  0.00  0.00    +0.023 C 
ATOM      8  C   LIG    1       19.330  29.981  11.138  0.00  0.00    +0.041 C 
ATOM      9  C   LIG    1       18.841  29.303  12.425  0.00  0.00    +0.005 C 
ATOM     10  C   LIG    1       18.933  27.770  12.552  0.00  0.00    +0.005 C 
ATOM     11  C   LIG    1       19.728  26.967  11.511  0.00  0.00    +0.041 C 
ATOM     12  C   LIG    1       20.190  27.766  10.364  0.00  0.00    +0.023 C 
ENDBRANCH   1   4
BRANCH   1  13
ATOM     13  O   LIG    1       23.258  28.044   7.391  0.00  0.00    -0.444 OA
BRANCH  13  14
ATOM     14  C   LIG    1       24.064  28.183   6.317  0.00  0.00    +0.313 C 
ATOM     15  O   LIG    1       24.570  27.271   5.677  0.00  0.00    -0.250 OA
BRANCH  14  16
ATOM     16  C   LIG    1       24.203  29.619   5.982  0.00  0.00    +0.111 C 
ATOM     17  C   LIG    1       25.212  30.220   5.016  0.00  0.00    -0.014 C 
ATOM     18  C   LIG    1       24.757  31.435   4.234  0.00  0.00    +0.012 C 
ATOM     19  C   LIG    1       26.153  29.344   4.228  0.00  0.00    +0.012 C 
ATOM     20  C   LIG    1       25.385  30.414   6.512  0.00  0.00    +0.032 C 
BRANCH  20  21
ATOM     21  C   LIG    1       26.435  29.733   7.285  0.00  0.00    -0.023 C 
ATOM     22  C   LIG    1       27.292  30.300   8.159  0.00  0.00    -0.079 C 
ATOM     23  C   LIG    1       28.321  29.480   8.889  0.00  0.00    +0.038 C 
ATOM     24  C   LIG    1       27.317  31.770   8.480  0.00  0.00    +0.038 C 
ENDBRANCH  20  21
ENDBRANCH  14  16
ENDBRANCH  13  14
ENDBRANCH   1  13
TORSDOF 5
ENDMDL
MODEL 8
REMARK VINA RESULT:      -7.0      2.523      4.173
REMARK  Name = 
REMARK                            x       y       z     vdW  Elec       q    Type
REMARK                         _______ _______ _______ _____ _____    ______ ____
ROOT
ATOM      1  C   LIG    1       22.208  28.136   6.907  0.00  0.00    +0.352 C 
ENDROOT
BRANCH   1   4
ATOM      2  O   LIG    1       21.121  30.514   8.163  0.00  0.00    -0.270 OA
ATOM      3  C   LIG    1       20.999  29.398   8.633  0.00  0.00    +0.252 C 
ATOM      4  N   LIG    1       21.463  28.218   8.144  0.00  0.00    -0.200 N 
ATOM      5  C   LIG    1       21.123  27.194   8.970  0.00  0.00    +0.252 C 
ATOM      6  O   LIG    1       21.347  26.000   8.889  0.00  0.00    -0.270 OA
ATOM      7  C   LIG    1       20.371  27.784  10.081  0.00  0.00    +0.023 C 
ATOM      8  C   LIG    1       19.803  27.037  11.214  0.00  0.00    +0.041 C 
ATOM      9  C   LIG    1       19.003  27.904  12.194  0.00  0.00    +0.005 C 
ATOM     10  C   LIG    1       19.014  29.436  12.031  0.00  0.00    +0.005 C 
ATOM     11  C   LIG    1       19.613  30.060  10.761  0.00  0.00    +0.041 C 
ATOM     12  C   LIG    1       20.292  29.095   9.882  0.00  0.00    +0.023 C 
ENDBRANCH   1   4
BRANCH   1  13
ATOM     13  O   LIG    1       23.562  27.818   7.177  0.00  0.00    -0.444 OA
BRANCH  13  14
ATOM     14  C   LIG    1       24.463  28.749   6.797  0.00  0.00    +0.313 C 
ATOM     15  O   LIG    1       24.288  29.960   6.803  0.00  0.00    -0.250 OA
BRANCH  14  16
ATOM     16  C   LIG    1       25.733  28.088   6.422  0.00  0.00    +0.111 C 
ATOM     17  C   LIG    1       26.620  27.264   7.341  0.00  0.00    -0.014 C 
ATOM     18  C   LIG    1       27.357  26.103   6.705  0.00  0.00    +0.012 C 
ATOM     19  C   LIG    1       26.218  26.982   8.766  0.00  0.00    +0.012 C 
ATOM     20  C   LIG    1       27.059  28.651   6.906  0.00  0.00    +0.032 C 
BRANCH  20  21
ATOM     21  C   LIG    1       27.071  29.803   7.822  0.00  0.00    -0.023 C 
ATOM     22  C   LIG    1       28.007  30.088   8.750  0.00  0.00    -0.079 C 
ATOM     23  C   LIG    1       27.897  31.309   9.622  0.00  0.00    +0.038 C 
ATOM     24  C   LIG    1       29.220  29.236   9.011  0.00  0.00    +0.038 C 
ENDBRANCH  20  21
ENDBRANCH  14  16
ENDBRANCH  13  14
ENDBRANCH   1  13
TORSDOF 5
ENDMDL
MODEL 9
REMARK VINA RESULT:      -6.9      2.124      2.915
REMARK  Name = 
REMARK                            x       y       z     vdW  Elec       q    Type
REMARK                         _______ _______ _______ _____ _____    ______ ____
ROOT
ATOM      1  C   LIG    1       20.735  29.292   8.067  0.00  0.00    +0.352 C 
ENDROOT
BRANCH   1   4
ATOM      2  O   LIG    1       19.024  30.884   9.786  0.00  0.00    -0.270 OA
ATOM      3  C   LIG    1       19.414  29.769  10.083  0.00  0.00    +0.252 C 
ATOM      4  N   LIG    1       20.215  28.936   9.369  0.00  0.00    -0.200 N 
ATOM      5  C   LIG    1       20.425  27.779  10.051  0.00  0.00    +0.252 C 
ATOM      6  O   LIG    1       21.076  26.792   9.760  0.00  0.00    -0.270 OA
ATOM      7  C   LIG    1       19.685  27.894  11.310  0.00  0.00    +0.023 C 
ATOM      8  C   LIG    1       19.628  26.866  12.360  0.00  0.00    +0.041 C 
ATOM      9  C   LIG    1       18.717  27.228  13.540  0.00  0.00    +0.005 C 
ATOM     10  C   LIG    1       18.113  28.643  13.622  0.00  0.00    +0.005 C 
ATOM     11  C   LIG    1       18.224  29.587  12.415  0.00  0.00    +0.041 C 
ATOM     12  C   LIG    1       19.079  29.076  11.331  0.00  0.00    +0.023 C 
ENDBRANCH   1   4
BRANCH   1  13
ATOM     13  O   LIG    1       22.144  29.139   8.051  0.00  0.00    -0.444 OA
BRANCH  13  14
ATOM     14  C   LIG    1       22.681  28.852   6.846  0.00  0.00    +0.313 C 
ATOM     15  O   LIG    1       22.441  27.860   6.172  0.00  0.00    -0.250 OA
BRANCH  14  16
ATOM     16  C   LIG    1       23.573  29.956   6.423  0.00  0.00    +0.111 C 
ATOM     17  C   LIG    1       24.519  29.937   5.233  0.00  0.00    -0.014 C 
ATOM     18  C   LIG    1       24.727  31.254   4.515  0.00  0.00    +0.012 C 
ATOM     19  C   LIG    1       24.574  28.755   4.299  0.00  0.00    +0.012 C 
ATOM     20  C   LIG    1       25.073  29.851   6.645  0.00  0.00    +0.032 C 
BRANCH  20  21
ATOM     21  C   LIG    1       25.644  28.614   7.199  0.00  0.00    -0.023 C 
ATOM     22  C   LIG    1       26.791  28.496   7.900  0.00  0.00    -0.079 C 
ATOM     23  C   LIG    1       27.259  27.162   8.415  0.00  0.00    +0.038 C 
ATOM     24  C   LIG    1       27.702  29.650   8.223  0.00  0.00    +0.038 C 
ENDBRANCH  20  21
ENDBRANCH  14  16
ENDBRANCH  13  14
ENDBRANCH   1  13
TORSDOF 5
ENDMDL
