MODEL 1
REMARK VINA RESULT:      -8.5      0.000      0.000
REMARK  Name = 
REMARK                            x       y       z     vdW  Elec       q    Type
REMARK                         _______ _______ _______ _____ _____    ______ ____
ROOT
ATOM      1  C   LIG    1       33.460  -3.677  23.234  0.00  0.00    +0.352 C 
ENDROOT
BRANCH   1   4
ATOM      2  O   LIG    1       31.091  -3.667  21.559  0.00  0.00    -0.270 OA
ATOM      3  C   LIG    1       32.193  -3.338  21.157  0.00  0.00    +0.252 C 
ATOM      4  N   LIG    1       33.367  -3.306  21.839  0.00  0.00    -0.200 N 
ATOM      5  C   LIG    1       34.376  -2.887  21.030  0.00  0.00    +0.252 C 
ATOM      6  O   LIG    1       35.562  -2.725  21.256  0.00  0.00    -0.270 OA
ATOM      7  C   LIG    1       33.779  -2.628  19.717  0.00  0.00    +0.023 C 
ATOM      8  C   LIG    1       34.509  -2.152  18.531  0.00  0.00    +0.041 C 
ATOM      9  C   LIG    1       33.615  -1.898  17.310  0.00  0.00    +0.005 C 
ATOM     10  C   LIG    1       32.134  -2.318  17.357  0.00  0.00    +0.005 C 
ATOM     11  C   LIG    1       31.509  -2.754  18.691  0.00  0.00    +0.041 C 
ATOM     12  C   LIG    1       32.480  -2.891  19.790  0.00  0.00    +0.023 C 
ENDBRANCH   1   4
BRANCH   1  13
ATOM     13  O   LIG    1       33.483  -2.514  24.043  0.00  0.00    -0.444 OA
BRANCH  13  14
ATOM     14  C   LIG    1       32.532  -2.455  25.000  0.00  0.00    +0.313 C 
ATOM     15  O   LIG    1       32.116  -3.400  25.656  0.00  0.00    -0.250 OA
BRANCH  14  16
ATOM     16  C   LIG    1       32.098  -1.052  25.186  0.00  0.00    +0.111 C 
ATOM     17  C   LIG    1       32.388  -0.177  26.395  0.00  0.00    -0.014 C 
ATOM     18  C   LIG    1       32.580   1.301  26.129  0.00  0.00    +0.012 C 
ATOM     19  C   LIG    1       33.246  -0.676  27.531  0.00  0.00    +0.012 C 
ATOM     20  C   LIG    1       30.988  -0.720  26.170  0.00  0.00    +0.032 C 
BRANCH  20  21
ATOM     21  C   LIG    1       30.407  -1.787  27.000  0.00  0.00    -0.023 C 
ATOM     22  C   LIG    1       29.095  -2.042  27.186  0.00  0.00    -0.079 C 
ATOM     23  C   LIG    1       28.636  -3.174  28.064  0.00  0.00    +0.038 C 
ATOM     24  C   LIG    1       27.985  -1.240  26.563  0.00  0.00    +0.038 C 
ENDBRANCH  20  21
ENDBRANCH  14  16
ENDBRANCH  13  14
ENDBRANCH   1  13
TORSDOF 5
ENDMDL
MODEL 2
REMARK VINA RESULT:      -8.5      0.088      1.816
REMARK  Name = 
REMARK                            x       y       z     vdW  Elec       q    Type
REMARK                         _______ _______ _______ _____ _____    ______ ____
ROOT
ATOM      1  C   LIG    1       33.547  -3.665  23.234  0.00  0.00    +0.352 C 
ENDROOT
BRANCH   1   4
ATOM      2  O   LIG    1       35.479  -2.743  21.276  0.00  0.00    -0.270 OA
ATOM      3  C   LIG    1       34.296  -2.888  21.027  0.00  0.00    +0.252 C 
ATOM      4  N   LIG    1       33.302  -3.306  21.855  0.00  0.00    -0.200 N 
ATOM      5  C   LIG    1       32.113  -3.328  21.197  0.00  0.00    +0.252 C 
ATOM      6  O   LIG    1       30.999  -3.636  21.579  0.00  0.00    -0.270 OA
ATOM      7  C   LIG    1       32.384  -2.885  19.826  0.00  0.00    +0.023 C 
ATOM      8  C   LIG    1       31.379  -2.759  18.759  0.00  0.00    +0.041 C 
ATOM      9  C   LIG    1       31.960  -2.343  17.402  0.00  0.00    +0.005 C 
ATOM     10  C   LIG    1       33.440  -1.926  17.308  0.00  0.00    +0.005 C 
ATOM     11  C   LIG    1       34.373  -2.164  18.506  0.00  0.00    +0.041 C 
ATOM     12  C   LIG    1       33.683  -2.627  19.721  0.00  0.00    +0.023 C 
ENDBRANCH   1   4
BRANCH   1  13
ATOM     13  O   LIG    1       33.530  -2.504  24.046  0.00  0.00    -0.444 OA
BRANCH  13  14
ATOM     14  C   LIG    1       32.544  -2.456  24.966  0.00  0.00    +0.313 C 
ATOM     15  O   LIG    1       32.096  -3.409  25.589  0.00  0.00    -0.250 OA
BRANCH  14  16
ATOM     16  C   LIG    1       32.112  -1.052  25.160  0.00  0.00    +0.111 C 
ATOM     17  C   LIG    1       32.402  -0.185  26.374  0.00  0.00    -0.014 C 
ATOM     18  C   LIG    1       32.597   1.295  26.116  0.00  0.00    +0.012 C 
ATOM     19  C   LIG    1       33.259  -0.692  27.507  0.00  0.00    +0.012 C 
ATOM     20  C   LIG    1       31.001  -0.725  26.144  0.00  0.00    +0.032 C 
BRANCH  20  21
ATOM     21  C   LIG    1       30.417  -1.795  26.968  0.00  0.00    -0.023 C 
ATOM     22  C   LIG    1       29.106  -2.039  27.164  0.00  0.00    -0.079 C 
ATOM     23  C   LIG    1       28.644  -3.177  28.034  0.00  0.00    +0.038 C 
ATOM     24  C   LIG    1       27.997  -1.220  26.561  0.00  0.00    +0.038 C 
ENDBRANCH  20  21
ENDBRANCH  14  16
ENDBRANCH  13  14
ENDBRANCH   1  13
TORSDOF 5
ENDMDL
MODEL 3
REMARK VINA RESULT:      -8.4      1.033      2.714
REMARK  Name = 
REMARK                            x       y       z     vdW  Elec       q    Type
REMARK                         _______ _______ _______ _____ _____    ______ ____
ROOT
ATOM      1  C   LIG    1       32.905  -3.681  23.165  0.00  0.00    +0.352 C 
ENDROOT
BRANCH   1   4
ATOM      2  O   LIG    1       30.804  -3.479  21.174  0.00  0.00    -0.270 OA
ATOM      3  C   LIG    1       31.974  -3.236  20.936  0.00  0.00    +0.252 C 
ATOM      4  N   LIG    1       33.039  -3.299  21.777  0.00  0.00    -0.200 N 
ATOM      5  C   LIG    1       34.181  -2.957  21.124  0.00  0.00    +0.252 C 
ATOM      6  O   LIG    1       35.332  -2.890  21.516  0.00  0.00    -0.270 OA
ATOM      7  C   LIG    1       33.798  -2.647  19.744  0.00  0.00    +0.023 C 
ATOM      8  C   LIG    1       34.721  -2.226  18.679  0.00  0.00    +0.041 C 
ATOM      9  C   LIG    1       34.032  -1.898  17.348  0.00  0.00    +0.005 C 
ATOM     10  C   LIG    1       32.531  -2.201  17.180  0.00  0.00    +0.005 C 
ATOM     11  C   LIG    1       31.692  -2.592  18.408  0.00  0.00    +0.041 C 
ATOM     12  C   LIG    1       32.484  -2.809  19.630  0.00  0.00    +0.023 C 
ENDBRANCH   1   4
BRANCH   1  13
ATOM     13  O   LIG    1       33.138  -2.559  24.000  0.00  0.00    -0.444 OA
BRANCH  13  14
ATOM     14  C   LIG    1       32.033  -1.886  24.388  0.00  0.00    +0.313 C 
ATOM     15  O   LIG    1       31.367  -1.138  23.686  0.00  0.00    -0.250 OA
BRANCH  14  16
ATOM     16  C   LIG    1       31.706  -2.232  25.790  0.00  0.00    +0.111 C 
ATOM     17  C   LIG    1       30.683  -1.532  26.669  0.00  0.00    -0.014 C 
ATOM     18  C   LIG    1       29.945  -2.400  27.668  0.00  0.00    +0.012 C 
ATOM     19  C   LIG    1       29.825  -0.415  26.131  0.00  0.00    +0.012 C 
ATOM     20  C   LIG    1       32.166  -1.333  26.925  0.00  0.00    +0.032 C 
BRANCH  20  21
ATOM     21  C   LIG    1       32.862  -0.073  26.621  0.00  0.00    -0.023 C 
ATOM     22  C   LIG    1       32.949   1.014  27.415  0.00  0.00    -0.079 C 
ATOM     23  C   LIG    1       33.701   2.242  26.979  0.00  0.00    +0.038 C 
ATOM     24  C   LIG    1       32.316   1.114  28.777  0.00  0.00    +0.038 C 
ENDBRANCH  20  21
ENDBRANCH  14  16
ENDBRANCH  13  14
ENDBRANCH   1  13
TORSDOF 5
ENDMDL
MODEL 4
REMARK VINA RESULT:      -8.4      1.027      3.256
REMARK  Name = 
REMARK                            x       y       z     vdW  Elec       q    Type
REMARK                         _______ _______ _______ _____ _____    ______ ____
ROOT
ATOM      1  C   LIG    1       32.965  -3.686  23.140  0.00  0.00    +0.352 C 
ENDROOT
BRANCH   1   4
ATOM      2  O   LIG    1       35.291  -2.943  21.572  0.00  0.00    -0.270 OA
ATOM      3  C   LIG    1       34.163  -2.977  21.116  0.00  0.00    +0.252 C 
ATOM      4  N   LIG    1       33.004  -3.302  21.746  0.00  0.00    -0.200 N 
ATOM      5  C   LIG    1       31.954  -3.211  20.888  0.00  0.00    +0.252 C 
ATOM      6  O   LIG    1       30.766  -3.415  21.060  0.00  0.00    -0.270 OA
ATOM      7  C   LIG    1       32.504  -2.792  19.596  0.00  0.00    +0.023 C 
ATOM      8  C   LIG    1       31.721  -2.570  18.370  0.00  0.00    +0.041 C 
ATOM      9  C   LIG    1       32.569  -2.206  17.145  0.00  0.00    +0.005 C 
ATOM     10  C   LIG    1       34.074  -1.929  17.323  0.00  0.00    +0.005 C 
ATOM     11  C   LIG    1       34.754  -2.257  18.662  0.00  0.00    +0.041 C 
ATOM     12  C   LIG    1       33.819  -2.656  19.727  0.00  0.00    +0.023 C 
ENDBRANCH   1   4
BRANCH   1  13
ATOM     13  O   LIG    1       33.152  -2.547  23.961  0.00  0.00    -0.444 OA
BRANCH  13  14
ATOM     14  C   LIG    1       32.021  -1.920  24.348  0.00  0.00    +0.313 C 
ATOM     15  O   LIG    1       31.313  -1.216  23.640  0.00  0.00    -0.250 OA
BRANCH  14  16
ATOM     16  C   LIG    1       31.723  -2.257  25.759  0.00  0.00    +0.111 C 
ATOM     17  C   LIG    1       30.707  -1.562  26.650  0.00  0.00    -0.014 C 
ATOM     18  C   LIG    1       29.998  -2.429  27.670  0.00  0.00    +0.012 C 
ATOM     19  C   LIG    1       29.827  -0.460  26.118  0.00  0.00    +0.012 C 
ATOM     20  C   LIG    1       32.193  -1.343  26.877  0.00  0.00    +0.032 C 
BRANCH  20  21
ATOM     21  C   LIG    1       32.867  -0.076  26.550  0.00  0.00    -0.023 C 
ATOM     22  C   LIG    1       32.942   1.024  27.327  0.00  0.00    -0.079 C 
ATOM     23  C   LIG    1       33.673   2.257  26.867  0.00  0.00    +0.038 C 
ATOM     24  C   LIG    1       32.316   1.136  28.690  0.00  0.00    +0.038 C 
ENDBRANCH  20  21
ENDBRANCH  14  16
ENDBRANCH  13  14
ENDBRANCH   1  13
TORSDOF 5
ENDMDL
MODEL 5
REMARK VINA RESULT:      -8.3      4.766      6.939
REMARK  Name = 
REMARK                            x       y       z     vdW  Elec       q    Type
REMARK                         _______ _______ _______ _____ _____    ______ ____
ROOT
ATOM      1  C   LIG    1       31.551  -2.376  26.004  0.00  0.00    +0.352 C 
ENDROOT
BRANCH   1   4
ATOM      2  O   LIG    1       32.224   0.230  24.921  0.00  0.00    -0.270 OA
ATOM      3  C   LIG    1       32.603  -0.156  26.011  0.00  0.00    +0.252 C 
ATOM      4  N   LIG    1       32.360  -1.347  26.619  0.00  0.00    -0.200 N 
ATOM      5  C   LIG    1       32.970  -1.395  27.833  0.00  0.00    +0.252 C 
ATOM      6  O   LIG    1       32.996  -2.274  28.675  0.00  0.00    -0.270 OA
ATOM      7  C   LIG    1       33.659  -0.113  28.006  0.00  0.00    +0.023 C 
ATOM      8  C   LIG    1       34.450   0.273  29.185  0.00  0.00    +0.041 C 
ATOM      9  C   LIG    1       34.999   1.705  29.125  0.00  0.00    +0.005 C 
ATOM     10  C   LIG    1       34.849   2.518  27.825  0.00  0.00    +0.005 C 
ATOM     11  C   LIG    1       33.947   1.991  26.699  0.00  0.00    +0.041 C 
ATOM     12  C   LIG    1       33.440   0.628  26.926  0.00  0.00    +0.023 C 
ENDBRANCH   1   4
BRANCH   1  13
ATOM     13  O   LIG    1       30.374  -2.585  26.765  0.00  0.00    -0.444 OA
BRANCH  13  14
ATOM     14  C   LIG    1       29.394  -1.675  26.578  0.00  0.00    +0.313 C 
ATOM     15  O   LIG    1       29.232  -0.991  25.577  0.00  0.00    -0.250 OA
BRANCH  14  16
ATOM     16  C   LIG    1       28.495  -1.664  27.755  0.00  0.00    +0.111 C 
ATOM     17  C   LIG    1       27.210  -0.864  27.893  0.00  0.00    -0.014 C 
ATOM     18  C   LIG    1       26.100  -1.502  28.702  0.00  0.00    +0.012 C 
ATOM     19  C   LIG    1       26.687  -0.026  26.753  0.00  0.00    +0.012 C 
ATOM     20  C   LIG    1       28.449  -0.451  28.669  0.00  0.00    +0.032 C 
BRANCH  20  21
ATOM     21  C   LIG    1       29.235   0.747  28.331  0.00  0.00    -0.023 C 
ATOM     22  C   LIG    1       30.312   1.219  28.991  0.00  0.00    -0.079 C 
ATOM     23  C   LIG    1       31.028   2.460  28.532  0.00  0.00    +0.038 C 
ATOM     24  C   LIG    1       30.891   0.579  30.224  0.00  0.00    +0.038 C 
ENDBRANCH  20  21
ENDBRANCH  14  16
ENDBRANCH  13  14
ENDBRANCH   1  13
TORSDOF 5
ENDMDL
MODEL 6
REMARK VINA RESULT:      -8.0      5.147      7.993
REMARK  Name = 
REMARK                            x       y       z     vdW  Elec       q    Type
REMARK                         _______ _______ _______ _____ _____    ______ ____
ROOT
ATOM      1  C   LIG    1       29.000   1.591  28.828  0.00  0.00    +0.352 C 
ENDROOT
BRANCH   1   4
ATOM      2  O   LIG    1       30.675   2.111  26.518  0.00  0.00    -0.270 OA
ATOM      3  C   LIG    1       31.122   1.835  27.616  0.00  0.00    +0.252 C 
ATOM      4  N   LIG    1       30.444   1.568  28.763  0.00  0.00    -0.200 N 
ATOM      5  C   LIG    1       31.310   1.297  29.775  0.00  0.00    +0.252 C 
ATOM      6  O   LIG    1       31.106   1.013  30.941  0.00  0.00    -0.270 OA
ATOM      7  C   LIG    1       32.659   1.407  29.213  0.00  0.00    +0.023 C 
ATOM      8  C   LIG    1       33.910   1.196  29.957  0.00  0.00    +0.041 C 
ATOM      9  C   LIG    1       35.178   1.448  29.131  0.00  0.00    +0.005 C 
ATOM     10  C   LIG    1       35.055   1.702  27.617  0.00  0.00    +0.005 C 
ATOM     11  C   LIG    1       33.670   1.946  26.997  0.00  0.00    +0.041 C 
ATOM     12  C   LIG    1       32.551   1.730  27.929  0.00  0.00    +0.023 C 
ENDBRANCH   1   4
BRANCH   1  13
ATOM     13  O   LIG    1       28.489   0.275  28.694  0.00  0.00    -0.444 OA
BRANCH  13  14
ATOM     14  C   LIG    1       27.826   0.027  27.544  0.00  0.00    +0.313 C 
ATOM     15  O   LIG    1       27.334   0.867  26.804  0.00  0.00    -0.250 OA
BRANCH  14  16
ATOM     16  C   LIG    1       27.829  -1.429  27.273  0.00  0.00    +0.111 C 
ATOM     17  C   LIG    1       28.848  -2.434  27.785  0.00  0.00    -0.014 C 
ATOM     18  C   LIG    1       28.332  -3.825  28.087  0.00  0.00    +0.012 C 
ATOM     19  C   LIG    1       29.957  -2.013  28.717  0.00  0.00    +0.012 C 
ATOM     20  C   LIG    1       28.853  -2.026  26.322  0.00  0.00    +0.032 C 
BRANCH  20  21
ATOM     21  C   LIG    1       29.896  -1.167  25.740  0.00  0.00    -0.023 C 
ATOM     22  C   LIG    1       31.175  -1.510  25.484  0.00  0.00    -0.079 C 
ATOM     23  C   LIG    1       32.141  -0.527  24.879  0.00  0.00    +0.038 C 
ATOM     24  C   LIG    1       31.758  -2.866  25.775  0.00  0.00    +0.038 C 
ENDBRANCH  20  21
ENDBRANCH  14  16
ENDBRANCH  13  14
ENDBRANCH   1  13
TORSDOF 5
ENDMDL
MODEL 7
REMARK VINA RESULT:      -7.9      4.931      7.235
REMARK  Name = 
REMARK                            x       y       z     vdW  Elec       q    Type
REMARK                         _______ _______ _______ _____ _____    ______ ____
ROOT
ATOM      1  C   LIG    1       30.599  -0.188  25.402  0.00  0.00    +0.352 C 
ENDROOT
BRANCH   1   4
ATOM      2  O   LIG    1       27.923   0.628  26.170  0.00  0.00    -0.270 OA
ATOM      3  C   LIG    1       28.403  -0.450  26.470  0.00  0.00    +0.252 C 
ATOM      4  N   LIG    1       29.636  -0.940  26.175  0.00  0.00    -0.200 N 
ATOM      5  C   LIG    1       29.791  -2.184  26.700  0.00  0.00    +0.252 C 
ATOM      6  O   LIG    1       30.737  -2.950  26.661  0.00  0.00    -0.270 OA
ATOM      7  C   LIG    1       28.538  -2.509  27.386  0.00  0.00    +0.023 C 
ATOM      8  C   LIG    1       28.261  -3.766  28.098  0.00  0.00    +0.041 C 
ATOM      9  C   LIG    1       26.837  -3.863  28.662  0.00  0.00    +0.005 C 
ATOM     10  C   LIG    1       25.918  -2.627  28.609  0.00  0.00    +0.005 C 
ATOM     11  C   LIG    1       26.338  -1.403  27.781  0.00  0.00    +0.041 C 
ATOM     12  C   LIG    1       27.708  -1.481  27.248  0.00  0.00    +0.023 C 
ENDBRANCH   1   4
BRANCH   1  13
ATOM     13  O   LIG    1       31.364   0.643  26.259  0.00  0.00    -0.444 OA
BRANCH  13  14
ATOM     14  C   LIG    1       32.648   0.266  26.437  0.00  0.00    +0.313 C 
ATOM     15  O   LIG    1       33.114  -0.835  26.180  0.00  0.00    -0.250 OA
BRANCH  14  16
ATOM     16  C   LIG    1       33.437   1.413  26.942  0.00  0.00    +0.111 C 
ATOM     17  C   LIG    1       34.489   1.362  28.038  0.00  0.00    -0.014 C 
ATOM     18  C   LIG    1       35.659   2.313  27.896  0.00  0.00    +0.012 C 
ATOM     19  C   LIG    1       34.882   0.056  28.683  0.00  0.00    +0.012 C 
ATOM     20  C   LIG    1       33.139   2.000  28.311  0.00  0.00    +0.032 C 
BRANCH  20  21
ATOM     21  C   LIG    1       32.122   1.371  29.169  0.00  0.00    -0.023 C 
ATOM     22  C   LIG    1       32.170   1.232  30.510  0.00  0.00    -0.079 C 
ATOM     23  C   LIG    1       31.052   0.568  31.267  0.00  0.00    +0.038 C 
ATOM     24  C   LIG    1       33.315   1.704  31.365  0.00  0.00    +0.038 C 
ENDBRANCH  20  21
ENDBRANCH  14  16
ENDBRANCH  13  14
ENDBRANCH   1  13
TORSDOF 5
ENDMDL
MODEL 8
REMARK VINA RESULT:      -7.9      4.872      7.313
REMARK  Name = 
REMARK                            x       y       z     vdW  Elec       q    Type
REMARK                         _______ _______ _______ _____ _____    ______ ____
ROOT
ATOM      1  C   LIG    1       30.677  -0.281  25.365  0.00  0.00    +0.352 C 
ENDROOT
BRANCH   1   4
ATOM      2  O   LIG    1       30.754  -2.921  26.565  0.00  0.00    -0.270 OA
ATOM      3  C   LIG    1       29.790  -2.182  26.643  0.00  0.00    +0.252 C 
ATOM      4  N   LIG    1       29.635  -0.936  26.124  0.00  0.00    -0.200 N 
ATOM      5  C   LIG    1       28.405  -0.443  26.427  0.00  0.00    +0.252 C 
ATOM      6  O   LIG    1       27.885   0.622  26.151  0.00  0.00    -0.270 OA
ATOM      7  C   LIG    1       27.724  -1.475  27.214  0.00  0.00    +0.023 C 
ATOM      8  C   LIG    1       26.362  -1.366  27.761  0.00  0.00    +0.041 C 
ATOM      9  C   LIG    1       25.931  -2.571  28.607  0.00  0.00    +0.005 C 
ATOM     10  C   LIG    1       26.834  -3.818  28.661  0.00  0.00    +0.005 C 
ATOM     11  C   LIG    1       28.254  -3.754  28.077  0.00  0.00    +0.041 C 
ATOM     12  C   LIG    1       28.546  -2.509  27.348  0.00  0.00    +0.023 C 
ENDBRANCH   1   4
BRANCH   1  13
ATOM     13  O   LIG    1       31.407   0.598  26.203  0.00  0.00    -0.444 OA
BRANCH  13  14
ATOM     14  C   LIG    1       32.683   0.235  26.454  0.00  0.00    +0.313 C 
ATOM     15  O   LIG    1       33.165  -0.872  26.257  0.00  0.00    -0.250 OA
BRANCH  14  16
ATOM     16  C   LIG    1       33.443   1.402  26.957  0.00  0.00    +0.111 C 
ATOM     17  C   LIG    1       34.494   1.380  28.054  0.00  0.00    -0.014 C 
ATOM     18  C   LIG    1       35.641   2.360  27.911  0.00  0.00    +0.012 C 
ATOM     19  C   LIG    1       34.918   0.087  28.704  0.00  0.00    +0.012 C 
ATOM     20  C   LIG    1       33.128   1.986  28.324  0.00  0.00    +0.032 C 
BRANCH  20  21
ATOM     21  C   LIG    1       32.126   1.334  29.183  0.00  0.00    -0.023 C 
ATOM     22  C   LIG    1       32.181   1.192  30.523  0.00  0.00    -0.079 C 
ATOM     23  C   LIG    1       31.078   0.504  31.281  0.00  0.00    +0.038 C 
ATOM     24  C   LIG    1       33.319   1.682  31.376  0.00  0.00    +0.038 C 
ENDBRANCH  20  21
ENDBRANCH  14  16
ENDBRANCH  13  14
ENDBRANCH   1  13
TORSDOF 5
ENDMDL
MODEL 9
REMARK VINA RESULT:      -7.8      4.427      6.468
REMARK  Name = 
REMARK                            x       y       z     vdW  Elec       q    Type
REMARK                         _______ _______ _______ _____ _____    ______ ____
ROOT
ATOM      1  C   LIG    1       31.632  -1.685  25.202  0.00  0.00    +0.352 C 
ENDROOT
BRANCH   1   4
ATOM      2  O   LIG    1       32.788  -2.424  27.758  0.00  0.00    -0.270 OA
ATOM      3  C   LIG    1       32.899  -1.313  27.273  0.00  0.00    +0.252 C 
ATOM      4  N   LIG    1       32.403  -0.850  26.096  0.00  0.00    -0.200 N 
ATOM      5  C   LIG    1       32.741   0.455  25.918  0.00  0.00    +0.252 C 
ATOM      6  O   LIG    1       32.492   1.223  25.006  0.00  0.00    -0.270 OA
ATOM      7  C   LIG    1       33.526   0.848  27.091  0.00  0.00    +0.023 C 
ATOM      8  C   LIG    1       34.103   2.182  27.318  0.00  0.00    +0.041 C 
ATOM      9  C   LIG    1       34.940   2.289  28.600  0.00  0.00    +0.005 C 
ATOM     10  C   LIG    1       34.954   1.111  29.594  0.00  0.00    +0.005 C 
ATOM     11  C   LIG    1       34.341  -0.237  29.183  0.00  0.00    +0.041 C 
ATOM     12  C   LIG    1       33.625  -0.203  27.898  0.00  0.00    +0.023 C 
ENDBRANCH   1   4
BRANCH   1  13
ATOM     13  O   LIG    1       30.301  -1.205  25.120  0.00  0.00    -0.444 OA
BRANCH  13  14
ATOM     14  C   LIG    1       29.583  -1.290  26.260  0.00  0.00    +0.313 C 
ATOM     15  O   LIG    1       29.254  -2.323  26.826  0.00  0.00    -0.250 OA
BRANCH  14  16
ATOM     16  C   LIG    1       29.293   0.071  26.768  0.00  0.00    +0.111 C 
ATOM     17  C   LIG    1       29.606   0.592  28.161  0.00  0.00    -0.014 C 
ATOM     18  C   LIG    1       29.972   2.058  28.267  0.00  0.00    +0.012 C 
ATOM     19  C   LIG    1       30.339  -0.260  29.166  0.00  0.00    +0.012 C 
ATOM     20  C   LIG    1       28.171   0.289  27.769  0.00  0.00    +0.032 C 
BRANCH  20  21
ATOM     21  C   LIG    1       27.431  -0.868  28.298  0.00  0.00    -0.023 C 
ATOM     22  C   LIG    1       26.303  -1.406  27.791  0.00  0.00    -0.079 C 
ATOM     23  C   LIG    1       25.648  -2.599  28.435  0.00  0.00    +0.038 C 
ATOM     24  C   LIG    1       25.594  -0.882  26.572  0.00  0.00    +0.038 C 
ENDBRANCH  20  21
ENDBRANCH  14  16
ENDBRANCH  13  14
ENDBRANCH   1  13
TORSDOF 5
ENDMDL
