MODEL 1
REMARK VINA RESULT:      -8.8      0.000      0.000
REMARK  Name = 
REMARK                            x       y       z     vdW  Elec       q    Type
REMARK                         _______ _______ _______ _____ _____    ______ ____
ROOT
ATOM      1  C   LIG    1       39.832  29.408   8.318  0.00  0.00    +0.352 C 
ENDROOT
BRANCH   1   4
ATOM      2  O   LIG    1       37.990  30.781  10.089  0.00  0.00    -0.270 OA
ATOM      3  C   LIG    1       38.441  31.285   9.076  0.00  0.00    +0.252 C 
ATOM      4  N   LIG    1       39.300  30.745   8.173  0.00  0.00    -0.200 N 
ATOM      5  C   LIG    1       39.558  31.630   7.174  0.00  0.00    +0.252 C 
ATOM      6  O   LIG    1       40.265  31.531   6.187  0.00  0.00    -0.270 OA
ATOM      7  C   LIG    1       38.792  32.841   7.479  0.00  0.00    +0.023 C 
ATOM      8  C   LIG    1       38.774  34.064   6.661  0.00  0.00    +0.041 C 
ATOM      9  C   LIG    1       37.939  35.203   7.261  0.00  0.00    +0.005 C 
ATOM     10  C   LIG    1       37.075  34.932   8.507  0.00  0.00    +0.005 C 
ATOM     11  C   LIG    1       37.245  33.612   9.277  0.00  0.00    +0.041 C 
ATOM     12  C   LIG    1       38.129  32.641   8.612  0.00  0.00    +0.023 C 
ENDBRANCH   1   4
BRANCH   1  13
ATOM     13  O   LIG    1       41.189  29.468   8.719  0.00  0.00    -0.444 OA
BRANCH  13  14
ATOM     14  C   LIG    1       41.412  30.022   9.930  0.00  0.00    +0.313 C 
ATOM     15  O   LIG    1       41.879  31.134  10.134  0.00  0.00    -0.250 OA
BRANCH  14  16
ATOM     16  C   LIG    1       40.948  29.101  10.992  0.00  0.00    +0.111 C 
ATOM     17  C   LIG    1       41.687  28.774  12.280  0.00  0.00    -0.014 C 
ATOM     18  C   LIG    1       40.830  28.503  13.499  0.00  0.00    +0.012 C 
ATOM     19  C   LIG    1       42.987  29.454  12.626  0.00  0.00    +0.012 C 
ATOM     20  C   LIG    1       41.609  27.744  11.167  0.00  0.00    +0.032 C 
BRANCH  20  21
ATOM     21  C   LIG    1       42.769  27.385  10.335  0.00  0.00    -0.023 C 
ATOM     22  C   LIG    1       43.592  26.331  10.508  0.00  0.00    -0.079 C 
ATOM     23  C   LIG    1       44.745  26.078   9.574  0.00  0.00    +0.038 C 
ATOM     24  C   LIG    1       43.457  25.331  11.625  0.00  0.00    +0.038 C 
ENDBRANCH  20  21
ENDBRANCH  14  16
ENDBRANCH  13  14
ENDBRANCH   1  13
TORSDOF 5
ENDMDL
MODEL 2
REMARK VINA RESULT:      -8.6      0.085      1.815
REMARK  Name = 
REMARK                            x       y       z     vdW  Elec       q    Type
REMARK                         _______ _______ _______ _____ _____    ______ ____
ROOT
ATOM      1  C   LIG    1       39.789  29.370   8.214  0.00  0.00    +0.352 C 
ENDROOT
BRANCH   1   4
ATOM      2  O   LIG    1       40.284  31.411   6.212  0.00  0.00    -0.270 OA
ATOM      3  C   LIG    1       39.552  31.581   7.170  0.00  0.00    +0.252 C 
ATOM      4  N   LIG    1       39.247  30.710   8.168  0.00  0.00    -0.200 N 
ATOM      5  C   LIG    1       38.395  31.285   9.058  0.00  0.00    +0.252 C 
ATOM      6  O   LIG    1       37.893  30.845  10.076  0.00  0.00    -0.270 OA
ATOM      7  C   LIG    1       38.136  32.643   8.572  0.00  0.00    +0.023 C 
ATOM      8  C   LIG    1       37.262  33.628   9.227  0.00  0.00    +0.041 C 
ATOM      9  C   LIG    1       37.120  34.947   8.457  0.00  0.00    +0.005 C 
ATOM     10  C   LIG    1       38.004  35.199   7.221  0.00  0.00    +0.005 C 
ATOM     11  C   LIG    1       38.831  34.046   6.630  0.00  0.00    +0.041 C 
ATOM     12  C   LIG    1       38.820  32.821   7.447  0.00  0.00    +0.023 C 
ENDBRANCH   1   4
BRANCH   1  13
ATOM     13  O   LIG    1       41.137  29.408   8.652  0.00  0.00    -0.444 OA
BRANCH  13  14
ATOM     14  C   LIG    1       41.340  29.991   9.852  0.00  0.00    +0.313 C 
ATOM     15  O   LIG    1       41.792  31.113  10.038  0.00  0.00    -0.250 OA
BRANCH  14  16
ATOM     16  C   LIG    1       40.877  29.087  10.929  0.00  0.00    +0.111 C 
ATOM     17  C   LIG    1       41.604  28.800  12.233  0.00  0.00    -0.014 C 
ATOM     18  C   LIG    1       40.737  28.543  13.448  0.00  0.00    +0.012 C 
ATOM     19  C   LIG    1       42.890  29.506  12.580  0.00  0.00    +0.012 C 
ATOM     20  C   LIG    1       41.555  27.744  11.142  0.00  0.00    +0.032 C 
BRANCH  20  21
ATOM     21  C   LIG    1       42.730  27.384  10.333  0.00  0.00    -0.023 C 
ATOM     22  C   LIG    1       43.561  26.340  10.534  0.00  0.00    -0.079 C 
ATOM     23  C   LIG    1       44.730  26.085   9.621  0.00  0.00    +0.038 C 
ATOM     24  C   LIG    1       43.419  25.357  11.664  0.00  0.00    +0.038 C 
ENDBRANCH  20  21
ENDBRANCH  14  16
ENDBRANCH  13  14
ENDBRANCH   1  13
TORSDOF 5
ENDMDL
MODEL 3
REMARK VINA RESULT:      -8.6      1.606      2.790
REMARK  Name = 
REMARK                            x       y       z     vdW  Elec       q    Type
REMARK                         _______ _______ _______ _____ _____    ______ ____
ROOT
ATOM      1  C   LIG    1       39.852  29.626   7.394  0.00  0.00    +0.352 C 
ENDROOT
BRANCH   1   4
ATOM      2  O   LIG    1       40.302  31.985   5.767  0.00  0.00    -0.270 OA
ATOM      3  C   LIG    1       39.570  31.977   6.740  0.00  0.00    +0.252 C 
ATOM      4  N   LIG    1       39.285  30.944   7.576  0.00  0.00    -0.200 N 
ATOM      5  C   LIG    1       38.425  31.344   8.550  0.00  0.00    +0.252 C 
ATOM      6  O   LIG    1       37.935  30.728   9.479  0.00  0.00    -0.270 OA
ATOM      7  C   LIG    1       38.139  32.759   8.301  0.00  0.00    +0.023 C 
ATOM      8  C   LIG    1       37.248  33.602   9.114  0.00  0.00    +0.041 C 
ATOM      9  C   LIG    1       37.079  35.029   8.578  0.00  0.00    +0.005 C 
ATOM     10  C   LIG    1       37.955  35.504   7.402  0.00  0.00    +0.005 C 
ATOM     11  C   LIG    1       38.802  34.484   6.625  0.00  0.00    +0.041 C 
ATOM     12  C   LIG    1       38.816  33.138   7.223  0.00  0.00    +0.023 C 
ENDBRANCH   1   4
BRANCH   1  13
ATOM     13  O   LIG    1       41.009  29.482   8.200  0.00  0.00    -0.444 OA
BRANCH  13  14
ATOM     14  C   LIG    1       41.347  28.211   8.508  0.00  0.00    +0.313 C 
ATOM     15  O   LIG    1       42.479  27.750   8.505  0.00  0.00    -0.250 OA
BRANCH  14  16
ATOM     16  C   LIG    1       40.137  27.459   8.911  0.00  0.00    +0.111 C 
ATOM     17  C   LIG    1       39.431  27.551  10.254  0.00  0.00    -0.014 C 
ATOM     18  C   LIG    1       37.926  27.381  10.240  0.00  0.00    +0.012 C 
ATOM     19  C   LIG    1       39.893  28.520  11.313  0.00  0.00    +0.012 C 
ATOM     20  C   LIG    1       40.246  26.317   9.908  0.00  0.00    +0.032 C 
BRANCH  20  21
ATOM     21  C   LIG    1       41.542  26.019  10.537  0.00  0.00    -0.023 C 
ATOM     22  C   LIG    1       41.743  25.447  11.742  0.00  0.00    -0.079 C 
ATOM     23  C   LIG    1       43.132  25.194  12.265  0.00  0.00    +0.038 C 
ATOM     24  C   LIG    1       40.636  25.023  12.668  0.00  0.00    +0.038 C 
ENDBRANCH  20  21
ENDBRANCH  14  16
ENDBRANCH  13  14
ENDBRANCH   1  13
TORSDOF 5
ENDMDL
MODEL 4
REMARK VINA RESULT:      -8.5      1.318      2.720
REMARK  Name = 
REMARK                            x       y       z     vdW  Elec       q    Type
REMARK                         _______ _______ _______ _____ _____    ______ ____
ROOT
ATOM      1  C   LIG    1       40.268  29.413   7.693  0.00  0.00    +0.352 C 
ENDROOT
BRANCH   1   4
ATOM      2  O   LIG    1       40.310  31.677   5.880  0.00  0.00    -0.270 OA
ATOM      3  C   LIG    1       39.677  31.668   6.920  0.00  0.00    +0.252 C 
ATOM      4  N   LIG    1       39.584  30.678   7.845  0.00  0.00    -0.200 N 
ATOM      5  C   LIG    1       38.781  31.061   8.873  0.00  0.00    +0.252 C 
ATOM      6  O   LIG    1       38.448  30.470   9.884  0.00  0.00    -0.270 OA
ATOM      7  C   LIG    1       38.324  32.418   8.563  0.00  0.00    +0.023 C 
ATOM      8  C   LIG    1       37.428  33.226   9.406  0.00  0.00    +0.041 C 
ATOM      9  C   LIG    1       37.058  34.586   8.798  0.00  0.00    +0.005 C 
ATOM     10  C   LIG    1       37.765  35.056   7.513  0.00  0.00    +0.005 C 
ATOM     11  C   LIG    1       38.639  34.071   6.722  0.00  0.00    +0.041 C 
ATOM     12  C   LIG    1       38.852  32.782   7.400  0.00  0.00    +0.023 C 
ENDBRANCH   1   4
BRANCH   1  13
ATOM     13  O   LIG    1       41.377  29.354   8.574  0.00  0.00    -0.444 OA
BRANCH  13  14
ATOM     14  C   LIG    1       41.291  28.428   9.553  0.00  0.00    +0.313 C 
ATOM     15  O   LIG    1       40.924  27.269   9.413  0.00  0.00    -0.250 OA
BRANCH  14  16
ATOM     16  C   LIG    1       41.765  29.008  10.830  0.00  0.00    +0.111 C 
ATOM     17  C   LIG    1       43.029  28.616  11.577  0.00  0.00    -0.014 C 
ATOM     18  C   LIG    1       43.737  29.721  12.333  0.00  0.00    +0.012 C 
ATOM     19  C   LIG    1       43.987  27.599  11.009  0.00  0.00    +0.012 C 
ATOM     20  C   LIG    1       41.670  28.203  12.115  0.00  0.00    +0.032 C 
BRANCH  20  21
ATOM     21  C   LIG    1       41.188  26.813  12.071  0.00  0.00    -0.023 C 
ATOM     22  C   LIG    1       41.358  25.868  13.019  0.00  0.00    -0.079 C 
ATOM     23  C   LIG    1       40.806  24.479  12.846  0.00  0.00    +0.038 C 
ATOM     24  C   LIG    1       42.104  26.092  14.307  0.00  0.00    +0.038 C 
ENDBRANCH  20  21
ENDBRANCH  14  16
ENDBRANCH  13  14
ENDBRANCH   1  13
TORSDOF 5
ENDMDL
MODEL 5
REMARK VINA RESULT:      -8.5      0.990      3.318
REMARK  Name = 
REMARK                            x       y       z     vdW  Elec       q    Type
REMARK                         _______ _______ _______ _____ _____    ______ ____
ROOT
ATOM      1  C   LIG    1       40.127  29.434   7.495  0.00  0.00    +0.352 C 
ENDROOT
BRANCH   1   4
ATOM      2  O   LIG    1       40.359  31.782   5.808  0.00  0.00    -0.270 OA
ATOM      3  C   LIG    1       39.672  31.749   6.813  0.00  0.00    +0.252 C 
ATOM      4  N   LIG    1       39.488  30.718   7.679  0.00  0.00    -0.200 N 
ATOM      5  C   LIG    1       38.649  31.085   8.683  0.00  0.00    +0.252 C 
ATOM      6  O   LIG    1       38.239  30.459   9.644  0.00  0.00    -0.270 OA
ATOM      7  C   LIG    1       38.266  32.475   8.423  0.00  0.00    +0.023 C 
ATOM      8  C   LIG    1       37.362  33.278   9.261  0.00  0.00    +0.041 C 
ATOM      9  C   LIG    1       37.082  34.682   8.708  0.00  0.00    +0.005 C 
ATOM     10  C   LIG    1       37.874  35.185   7.486  0.00  0.00    +0.005 C 
ATOM     11  C   LIG    1       38.747  34.202   6.689  0.00  0.00    +0.041 C 
ATOM     12  C   LIG    1       38.870  32.872   7.309  0.00  0.00    +0.023 C 
ENDBRANCH   1   4
BRANCH   1  13
ATOM     13  O   LIG    1       41.120  29.241   8.488  0.00  0.00    -0.444 OA
BRANCH  13  14
ATOM     14  C   LIG    1       41.322  27.960   8.864  0.00  0.00    +0.313 C 
ATOM     15  O   LIG    1       40.497  27.058   8.809  0.00  0.00    -0.250 OA
BRANCH  14  16
ATOM     16  C   LIG    1       42.724  27.787   9.308  0.00  0.00    +0.111 C 
ATOM     17  C   LIG    1       43.292  26.576  10.030  0.00  0.00    -0.014 C 
ATOM     18  C   LIG    1       44.731  26.219   9.721  0.00  0.00    +0.012 C 
ATOM     19  C   LIG    1       42.441  25.361  10.302  0.00  0.00    +0.012 C 
ATOM     20  C   LIG    1       43.073  27.875  10.785  0.00  0.00    +0.032 C 
BRANCH  20  21
ATOM     21  C   LIG    1       42.001  28.045  11.779  0.00  0.00    -0.023 C 
ATOM     22  C   LIG    1       42.071  28.743  12.931  0.00  0.00    -0.079 C 
ATOM     23  C   LIG    1       40.891  28.838  13.860  0.00  0.00    +0.038 C 
ATOM     24  C   LIG    1       43.301  29.471  13.401  0.00  0.00    +0.038 C 
ENDBRANCH  20  21
ENDBRANCH  14  16
ENDBRANCH  13  14
ENDBRANCH   1  13
TORSDOF 5
ENDMDL
MODEL 6
REMARK VINA RESULT:      -8.5      1.319      2.056
REMARK  Name = 
REMARK                            x       y       z     vdW  Elec       q    Type
REMARK                         _______ _______ _______ _____ _____    ______ ____
ROOT
ATOM      1  C   LIG    1       40.014  29.361   7.894  0.00  0.00    +0.352 C 
ENDROOT
BRANCH   1   4
ATOM      2  O   LIG    1       38.201  30.511   9.844  0.00  0.00    -0.270 OA
ATOM      3  C   LIG    1       38.596  31.116   8.864  0.00  0.00    +0.252 C 
ATOM      4  N   LIG    1       39.435  30.686   7.886  0.00  0.00    -0.200 N 
ATOM      5  C   LIG    1       39.625  31.662   6.959  0.00  0.00    +0.252 C 
ATOM      6  O   LIG    1       40.296  31.673   5.943  0.00  0.00    -0.270 OA
ATOM      7  C   LIG    1       38.833  32.815   7.397  0.00  0.00    +0.023 C 
ATOM      8  C   LIG    1       38.745  34.102   6.691  0.00  0.00    +0.041 C 
ATOM      9  C   LIG    1       37.898  35.155   7.417  0.00  0.00    +0.005 C 
ATOM     10  C   LIG    1       37.093  34.747   8.666  0.00  0.00    +0.005 C 
ATOM     11  C   LIG    1       37.335  33.374   9.311  0.00  0.00    +0.041 C 
ATOM     12  C   LIG    1       38.223  32.495   8.532  0.00  0.00    +0.023 C 
ENDBRANCH   1   4
BRANCH   1  13
ATOM     13  O   LIG    1       41.081  29.305   8.825  0.00  0.00    -0.444 OA
BRANCH  13  14
ATOM     14  C   LIG    1       40.926  28.417   9.831  0.00  0.00    +0.313 C 
ATOM     15  O   LIG    1       40.393  27.320   9.743  0.00  0.00    -0.250 OA
BRANCH  14  16
ATOM     16  C   LIG    1       41.556  28.945  11.063  0.00  0.00    +0.111 C 
ATOM     17  C   LIG    1       42.923  28.559  11.606  0.00  0.00    -0.014 C 
ATOM     18  C   LIG    1       43.697  29.647  12.320  0.00  0.00    +0.012 C 
ATOM     19  C   LIG    1       43.821  27.609  10.854  0.00  0.00    +0.012 C 
ATOM     20  C   LIG    1       41.664  28.069  12.300  0.00  0.00    +0.032 C 
BRANCH  20  21
ATOM     21  C   LIG    1       41.220  26.667  12.243  0.00  0.00    -0.023 C 
ATOM     22  C   LIG    1       41.408  25.721  13.185  0.00  0.00    -0.079 C 
ATOM     23  C   LIG    1       40.894  24.319  12.998  0.00  0.00    +0.038 C 
ATOM     24  C   LIG    1       42.137  25.956  14.480  0.00  0.00    +0.038 C 
ENDBRANCH  20  21
ENDBRANCH  14  16
ENDBRANCH  13  14
ENDBRANCH   1  13
TORSDOF 5
ENDMDL
MODEL 7
REMARK VINA RESULT:      -8.5      1.200      2.889
REMARK  Name = 
REMARK                            x       y       z     vdW  Elec       q    Type
REMARK                         _______ _______ _______ _____ _____    ______ ____
ROOT
ATOM      1  C   LIG    1       41.178  29.511   8.132  0.00  0.00    +0.352 C 
ENDROOT
BRANCH   1   4
ATOM      2  O   LIG    1       39.450  30.416  10.278  0.00  0.00    -0.270 OA
ATOM      3  C   LIG    1       39.505  30.963   9.192  0.00  0.00    +0.252 C 
ATOM      4  N   LIG    1       40.265  30.632   8.116  0.00  0.00    -0.200 N 
ATOM      5  C   LIG    1       40.032  31.490   7.087  0.00  0.00    +0.252 C 
ATOM      6  O   LIG    1       40.505  31.534   5.966  0.00  0.00    -0.270 OA
ATOM      7  C   LIG    1       39.034  32.452   7.562  0.00  0.00    +0.023 C 
ATOM      8  C   LIG    1       38.487  33.568   6.774  0.00  0.00    +0.041 C 
ATOM      9  C   LIG    1       37.509  34.459   7.551  0.00  0.00    +0.005 C 
ATOM     10  C   LIG    1       37.054  34.034   8.960  0.00  0.00    +0.005 C 
ATOM     11  C   LIG    1       37.761  32.866   9.666  0.00  0.00    +0.041 C 
ATOM     12  C   LIG    1       38.721  32.144   8.816  0.00  0.00    +0.023 C 
ENDBRANCH   1   4
BRANCH   1  13
ATOM     13  O   LIG    1       40.451  28.295   8.106  0.00  0.00    -0.444 OA
BRANCH  13  14
ATOM     14  C   LIG    1       40.848  27.363   8.998  0.00  0.00    +0.313 C 
ATOM     15  O   LIG    1       40.126  26.540   9.545  0.00  0.00    -0.250 OA
BRANCH  14  16
ATOM     16  C   LIG    1       42.315  27.443   9.182  0.00  0.00    +0.111 C 
ATOM     17  C   LIG    1       43.166  26.500  10.017  0.00  0.00    -0.014 C 
ATOM     18  C   LIG    1       44.568  26.229   9.512  0.00  0.00    +0.012 C 
ATOM     19  C   LIG    1       42.558  25.304  10.705  0.00  0.00    +0.012 C 
ATOM     20  C   LIG    1       42.894  27.912  10.506  0.00  0.00    +0.032 C 
BRANCH  20  21
ATOM     21  C   LIG    1       41.994  28.202  11.634  0.00  0.00    -0.023 C 
ATOM     22  C   LIG    1       42.280  28.936  12.729  0.00  0.00    -0.079 C 
ATOM     23  C   LIG    1       41.258  29.158  13.811  0.00  0.00    +0.038 C 
ATOM     24  C   LIG    1       43.614  29.585  12.982  0.00  0.00    +0.038 C 
ENDBRANCH  20  21
ENDBRANCH  14  16
ENDBRANCH  13  14
ENDBRANCH   1  13
TORSDOF 5
ENDMDL
MODEL 8
REMARK VINA RESULT:      -8.3      2.044      7.324
REMARK  Name = 
REMARK                            x       y       z     vdW  Elec       q    Type
REMARK                         _______ _______ _______ _____ _____    ______ ____
ROOT
ATOM      1  C   LIG    1       41.970  28.417   8.685  0.00  0.00    +0.352 C 
ENDROOT
BRANCH   1   4
ATOM      2  O   LIG    1       41.271  25.685   9.363  0.00  0.00    -0.270 OA
ATOM      3  C   LIG    1       41.513  26.537  10.198  0.00  0.00    +0.252 C 
ATOM      4  N   LIG    1       41.845  27.841  10.005  0.00  0.00    -0.200 N 
ATOM      5  C   LIG    1       42.030  28.466  11.198  0.00  0.00    +0.252 C 
ATOM      6  O   LIG    1       42.330  29.618  11.454  0.00  0.00    -0.270 OA
ATOM      7  C   LIG    1       41.795  27.461  12.239  0.00  0.00    +0.023 C 
ATOM      8  C   LIG    1       41.890  27.699  13.687  0.00  0.00    +0.041 C 
ATOM      9  C   LIG    1       41.663  26.446  14.542  0.00  0.00    +0.005 C 
ATOM     10  C   LIG    1       41.192  25.144  13.865  0.00  0.00    +0.005 C 
ATOM     11  C   LIG    1       41.192  25.043  12.332  0.00  0.00    +0.041 C 
ATOM     12  C   LIG    1       41.491  26.311  11.647  0.00  0.00    +0.023 C 
ENDBRANCH   1   4
BRANCH   1  13
ATOM     13  O   LIG    1       40.693  28.795   8.200  0.00  0.00    -0.444 OA
BRANCH  13  14
ATOM     14  C   LIG    1       40.328  30.069   8.459  0.00  0.00    +0.313 C 
ATOM     15  O   LIG    1       40.740  31.065   7.880  0.00  0.00    -0.250 OA
BRANCH  14  16
ATOM     16  C   LIG    1       39.299  30.085   9.524  0.00  0.00    +0.111 C 
ATOM     17  C   LIG    1       37.843  29.678   9.368  0.00  0.00    -0.014 C 
ATOM     18  C   LIG    1       37.190  29.030  10.572  0.00  0.00    +0.012 C 
ATOM     19  C   LIG    1       37.322  29.129   8.063  0.00  0.00    +0.012 C 
ATOM     20  C   LIG    1       38.209  31.144   9.514  0.00  0.00    +0.032 C 
BRANCH  20  21
ATOM     21  C   LIG    1       38.128  32.099   8.397  0.00  0.00    -0.023 C 
ATOM     22  C   LIG    1       37.630  33.351   8.439  0.00  0.00    -0.079 C 
ATOM     23  C   LIG    1       37.613  34.226   7.215  0.00  0.00    +0.038 C 
ATOM     24  C   LIG    1       37.049  33.985   9.673  0.00  0.00    +0.038 C 
ENDBRANCH  20  21
ENDBRANCH  14  16
ENDBRANCH  13  14
ENDBRANCH   1  13
TORSDOF 5
ENDMDL
MODEL 9
REMARK VINA RESULT:      -8.0      1.667      3.103
REMARK  Name = 
REMARK                            x       y       z     vdW  Elec       q    Type
REMARK                         _______ _______ _______ _____ _____    ______ ____
ROOT
ATOM      1  C   LIG    1       38.398  30.777   9.974  0.00  0.00    +0.352 C 
ENDROOT
BRANCH   1   4
ATOM      2  O   LIG    1       39.349  31.061   7.248  0.00  0.00    -0.270 OA
ATOM      3  C   LIG    1       38.763  31.946   7.845  0.00  0.00    +0.252 C 
ATOM      4  N   LIG    1       38.278  31.933   9.114  0.00  0.00    -0.200 N 
ATOM      5  C   LIG    1       37.695  33.124   9.412  0.00  0.00    +0.252 C 
ATOM      6  O   LIG    1       37.151  33.510  10.431  0.00  0.00    -0.270 OA
ATOM      7  C   LIG    1       37.821  33.963   8.217  0.00  0.00    +0.023 C 
ATOM      8  C   LIG    1       37.324  35.342   8.090  0.00  0.00    +0.041 C 
ATOM      9  C   LIG    1       37.532  35.954   6.699  0.00  0.00    +0.005 C 
ATOM     10  C   LIG    1       38.370  35.192   5.655  0.00  0.00    +0.005 C 
ATOM     11  C   LIG    1       38.777  33.735   5.925  0.00  0.00    +0.041 C 
ATOM     12  C   LIG    1       38.453  33.264   7.281  0.00  0.00    +0.023 C 
ENDBRANCH   1   4
BRANCH   1  13
ATOM     13  O   LIG    1       39.450  30.972  10.903  0.00  0.00    -0.444 OA
BRANCH  13  14
ATOM     14  C   LIG    1       39.954  29.847  11.454  0.00  0.00    +0.313 C 
ATOM     15  O   LIG    1       39.566  29.318  12.486  0.00  0.00    -0.250 OA
BRANCH  14  16
ATOM     16  C   LIG    1       41.022  29.303  10.585  0.00  0.00    +0.111 C 
ATOM     17  C   LIG    1       40.968  27.996   9.811  0.00  0.00    -0.014 C 
ATOM     18  C   LIG    1       41.691  27.970   8.479  0.00  0.00    +0.012 C 
ATOM     19  C   LIG    1       39.727  27.139   9.812  0.00  0.00    +0.012 C 
ATOM     20  C   LIG    1       41.846  28.112  11.044  0.00  0.00    +0.032 C 
BRANCH  20  21
ATOM     21  C   LIG    1       41.521  27.446  12.316  0.00  0.00    -0.023 C 
ATOM     22  C   LIG    1       41.831  26.182  12.668  0.00  0.00    -0.079 C 
ATOM     23  C   LIG    1       41.438  25.626  14.010  0.00  0.00    +0.038 C 
ATOM     24  C   LIG    1       42.573  25.218  11.782  0.00  0.00    +0.038 C 
ENDBRANCH  20  21
ENDBRANCH  14  16
ENDBRANCH  13  14
ENDBRANCH   1  13
TORSDOF 5
ENDMDL
