MODEL 1
REMARK VINA RESULT:      -8.4      0.000      0.000
REMARK  Name = 
REMARK                            x       y       z     vdW  Elec       q    Type
REMARK                         _______ _______ _______ _____ _____    ______ ____
ROOT
ATOM      1  C   LIG    1        3.441  -0.949  20.483  0.00  0.00    +0.352 C 
ENDROOT
BRANCH   1   4
ATOM      2  O   LIG    1        2.263   0.141  22.900  0.00  0.00    -0.270 OA
ATOM      3  C   LIG    1        2.670   0.834  21.986  0.00  0.00    +0.252 C 
ATOM      4  N   LIG    1        3.233   0.443  20.813  0.00  0.00    -0.200 N 
ATOM      5  C   LIG    1        3.548   1.525  20.052  0.00  0.00    +0.252 C 
ATOM      6  O   LIG    1        4.058   1.600  18.950  0.00  0.00    -0.270 OA
ATOM      7  C   LIG    1        3.149   2.707  20.821  0.00  0.00    +0.023 C 
ATOM      8  C   LIG    1        3.308   4.102  20.379  0.00  0.00    +0.041 C 
ATOM      9  C   LIG    1        2.869   5.140  21.420  0.00  0.00    +0.005 C 
ATOM     10  C   LIG    1        2.157   4.670  22.702  0.00  0.00    +0.005 C 
ATOM     11  C   LIG    1        2.114   3.172  23.042  0.00  0.00    +0.041 C 
ATOM     12  C   LIG    1        2.630   2.300  21.974  0.00  0.00    +0.023 C 
ENDBRANCH   1   4
BRANCH   1  13
ATOM     13  O   LIG    1        4.779  -1.319  20.769  0.00  0.00    -0.444 OA
BRANCH  13  14
ATOM     14  C   LIG    1        5.575  -1.491  19.692  0.00  0.00    +0.313 C 
ATOM     15  O   LIG    1        5.212  -1.864  18.584  0.00  0.00    -0.250 OA
BRANCH  14  16
ATOM     16  C   LIG    1        6.963  -1.103  20.031  0.00  0.00    +0.111 C 
ATOM     17  C   LIG    1        8.229  -1.679  19.418  0.00  0.00    -0.014 C 
ATOM     18  C   LIG    1        9.399  -0.729  19.269  0.00  0.00    +0.012 C 
ATOM     19  C   LIG    1        8.165  -2.696  18.307  0.00  0.00    +0.012 C 
ATOM     20  C   LIG    1        7.841  -2.042  20.841  0.00  0.00    +0.032 C 
BRANCH  20  21
ATOM     21  C   LIG    1        7.337  -3.375  21.211  0.00  0.00    -0.023 C 
ATOM     22  C   LIG    1        8.075  -4.455  21.538  0.00  0.00    -0.079 C 
ATOM     23  C   LIG    1        7.426  -5.763  21.902  0.00  0.00    +0.038 C 
ATOM     24  C   LIG    1        9.580  -4.471  21.563  0.00  0.00    +0.038 C 
ENDBRANCH  20  21
ENDBRANCH  14  16
ENDBRANCH  13  14
ENDBRANCH   1  13
TORSDOF 5
ENDMDL
MODEL 2
REMARK VINA RESULT:      -8.3      0.091      1.815
REMARK  Name = 
REMARK                            x       y       z     vdW  Elec       q    Type
REMARK                         _______ _______ _______ _____ _____    ______ ____
ROOT
ATOM      1  C   LIG    1        3.425  -0.920  20.551  0.00  0.00    +0.352 C 
ENDROOT
BRANCH   1   4
ATOM      2  O   LIG    1        4.035   1.478  19.036  0.00  0.00    -0.270 OA
ATOM      3  C   LIG    1        3.524   1.500  20.141  0.00  0.00    +0.252 C 
ATOM      4  N   LIG    1        3.198   0.453  20.944  0.00  0.00    -0.200 N 
ATOM      5  C   LIG    1        2.652   0.898  22.106  0.00  0.00    +0.252 C 
ATOM      6  O   LIG    1        2.235   0.287  23.074  0.00  0.00    -0.270 OA
ATOM      7  C   LIG    1        2.629   2.361  22.026  0.00  0.00    +0.023 C 
ATOM      8  C   LIG    1        2.116   3.261  23.070  0.00  0.00    +0.041 C 
ATOM      9  C   LIG    1        2.150   4.746  22.686  0.00  0.00    +0.005 C 
ATOM     10  C   LIG    1        2.857   5.174  21.385  0.00  0.00    +0.005 C 
ATOM     11  C   LIG    1        3.298   4.105  20.373  0.00  0.00    +0.041 C 
ATOM     12  C   LIG    1        3.144   2.723  20.856  0.00  0.00    +0.023 C 
ENDBRANCH   1   4
BRANCH   1  13
ATOM     13  O   LIG    1        4.761  -1.292  20.846  0.00  0.00    -0.444 OA
BRANCH  13  14
ATOM     14  C   LIG    1        5.553  -1.506  19.773  0.00  0.00    +0.313 C 
ATOM     15  O   LIG    1        5.185  -1.915  18.681  0.00  0.00    -0.250 OA
BRANCH  14  16
ATOM     16  C   LIG    1        6.944  -1.112  20.095  0.00  0.00    +0.111 C 
ATOM     17  C   LIG    1        8.203  -1.676  19.458  0.00  0.00    -0.014 C 
ATOM     18  C   LIG    1        9.366  -0.718  19.300  0.00  0.00    +0.012 C 
ATOM     19  C   LIG    1        8.128  -2.683  18.339  0.00  0.00    +0.012 C 
ATOM     20  C   LIG    1        7.839  -2.054  20.883  0.00  0.00    +0.032 C 
BRANCH  20  21
ATOM     21  C   LIG    1        7.349  -3.392  21.249  0.00  0.00    -0.023 C 
ATOM     22  C   LIG    1        8.098  -4.476  21.539  0.00  0.00    -0.079 C 
ATOM     23  C   LIG    1        7.462  -5.790  21.903  0.00  0.00    +0.038 C 
ATOM     24  C   LIG    1        9.602  -4.489  21.520  0.00  0.00    +0.038 C 
ENDBRANCH  20  21
ENDBRANCH  14  16
ENDBRANCH  13  14
ENDBRANCH   1  13
TORSDOF 5
ENDMDL
MODEL 3
REMARK VINA RESULT:      -8.1      1.049      3.063
REMARK  Name = 
REMARK                            x       y       z     vdW  Elec       q    Type
REMARK                         _______ _______ _______ _____ _____    ______ ____
ROOT
ATOM      1  C   LIG    1        3.337  -1.205  20.273  0.00  0.00    +0.352 C 
ENDROOT
BRANCH   1   4
ATOM      2  O   LIG    1        4.105   1.230  18.896  0.00  0.00    -0.270 OA
ATOM      3  C   LIG    1        3.552   1.224  19.981  0.00  0.00    +0.252 C 
ATOM      4  N   LIG    1        3.151   0.157  20.721  0.00  0.00    -0.200 N 
ATOM      5  C   LIG    1        2.578   0.572  21.881  0.00  0.00    +0.252 C 
ATOM      6  O   LIG    1        2.099  -0.064  22.803  0.00  0.00    -0.270 OA
ATOM      7  C   LIG    1        2.620   2.036  21.869  0.00  0.00    +0.023 C 
ATOM      8  C   LIG    1        2.103   2.910  22.934  0.00  0.00    +0.041 C 
ATOM      9  C   LIG    1        2.214   4.408  22.621  0.00  0.00    +0.005 C 
ATOM     10  C   LIG    1        2.989   4.863  21.369  0.00  0.00    +0.005 C 
ATOM     11  C   LIG    1        3.425   3.823  20.326  0.00  0.00    +0.041 C 
ATOM     12  C   LIG    1        3.195   2.428  20.738  0.00  0.00    +0.023 C 
ENDBRANCH   1   4
BRANCH   1  13
ATOM     13  O   LIG    1        4.140  -1.914  21.201  0.00  0.00    -0.444 OA
BRANCH  13  14
ATOM     14  C   LIG    1        5.470  -1.862  20.976  0.00  0.00    +0.313 C 
ATOM     15  O   LIG    1        6.158  -0.850  20.977  0.00  0.00    -0.250 OA
BRANCH  14  16
ATOM     16  C   LIG    1        5.996  -3.232  20.780  0.00  0.00    +0.111 C 
ATOM     17  C   LIG    1        7.213  -3.830  21.465  0.00  0.00    -0.014 C 
ATOM     18  C   LIG    1        7.157  -5.313  21.768  0.00  0.00    +0.012 C 
ATOM     19  C   LIG    1        7.981  -3.056  22.507  0.00  0.00    +0.012 C 
ATOM     20  C   LIG    1        7.279  -3.451  19.996  0.00  0.00    +0.032 C 
BRANCH  20  21
ATOM     21  C   LIG    1        8.044  -2.293  19.508  0.00  0.00    -0.023 C 
ATOM     22  C   LIG    1        9.291  -2.305  18.995  0.00  0.00    -0.079 C 
ATOM     23  C   LIG    1        9.957  -1.039  18.528  0.00  0.00    +0.038 C 
ATOM     24  C   LIG    1       10.129  -3.547  18.849  0.00  0.00    +0.038 C 
ENDBRANCH  20  21
ENDBRANCH  14  16
ENDBRANCH  13  14
ENDBRANCH   1  13
TORSDOF 5
ENDMDL
MODEL 4
REMARK VINA RESULT:      -7.9      2.605      4.113
REMARK  Name = 
REMARK                            x       y       z     vdW  Elec       q    Type
REMARK                         _______ _______ _______ _____ _____    ______ ____
ROOT
ATOM      1  C   LIG    1        3.121  -0.227  20.846  0.00  0.00    +0.352 C 
ENDROOT
BRANCH   1   4
ATOM      2  O   LIG    1        2.465  -3.046  21.034  0.00  0.00    -0.270 OA
ATOM      3  C   LIG    1        2.138  -2.229  21.874  0.00  0.00    +0.252 C 
ATOM      4  N   LIG    1        2.380  -0.892  21.894  0.00  0.00    -0.200 N 
ATOM      5  C   LIG    1        1.840  -0.327  23.006  0.00  0.00    +0.252 C 
ATOM      6  O   LIG    1        1.836   0.829  23.389  0.00  0.00    -0.270 OA
ATOM      7  C   LIG    1        1.200  -1.410  23.758  0.00  0.00    +0.023 C 
ATOM      8  C   LIG    1        0.490  -1.254  25.036  0.00  0.00    +0.041 C 
ATOM      9  C   LIG    1       -0.019  -2.572  25.633  0.00  0.00    +0.005 C 
ATOM     10  C   LIG    1        0.080  -3.866  24.802  0.00  0.00    +0.005 C 
ATOM     11  C   LIG    1        0.900  -3.873  23.503  0.00  0.00    +0.041 C 
ATOM     12  C   LIG    1        1.379  -2.544  23.089  0.00  0.00    +0.023 C 
ENDBRANCH   1   4
BRANCH   1  13
ATOM     13  O   LIG    1        4.512  -0.322  21.101  0.00  0.00    -0.444 OA
BRANCH  13  14
ATOM     14  C   LIG    1        5.221  -1.022  20.189  0.00  0.00    +0.313 C 
ATOM     15  O   LIG    1        4.755  -1.744  19.319  0.00  0.00    -0.250 OA
BRANCH  14  16
ATOM     16  C   LIG    1        6.665  -0.739  20.358  0.00  0.00    +0.111 C 
ATOM     17  C   LIG    1        7.805  -1.434  19.632  0.00  0.00    -0.014 C 
ATOM     18  C   LIG    1        9.022  -0.588  19.319  0.00  0.00    +0.012 C 
ATOM     19  C   LIG    1        7.536  -2.473  18.573  0.00  0.00    +0.012 C 
ATOM     20  C   LIG    1        7.552  -1.724  21.101  0.00  0.00    +0.032 C 
BRANCH  20  21
ATOM     21  C   LIG    1        6.991  -3.000  21.573  0.00  0.00    -0.023 C 
ATOM     22  C   LIG    1        7.663  -4.150  21.784  0.00  0.00    -0.079 C 
ATOM     23  C   LIG    1        6.961  -5.387  22.275  0.00  0.00    +0.038 C 
ATOM     24  C   LIG    1        9.140  -4.317  21.548  0.00  0.00    +0.038 C 
ENDBRANCH  20  21
ENDBRANCH  14  16
ENDBRANCH  13  14
ENDBRANCH   1  13
TORSDOF 5
ENDMDL
MODEL 5
REMARK VINA RESULT:      -7.8      1.183      1.596
REMARK  Name = 
REMARK                            x       y       z     vdW  Elec       q    Type
REMARK                         _______ _______ _______ _____ _____    ______ ____
ROOT
ATOM      1  C   LIG    1        3.763  -1.432  18.486  0.00  0.00    +0.352 C 
ENDROOT
BRANCH   1   4
ATOM      2  O   LIG    1        2.535  -1.862  21.079  0.00  0.00    -0.270 OA
ATOM      3  C   LIG    1        2.927  -0.773  20.700  0.00  0.00    +0.252 C 
ATOM      4  N   LIG    1        3.509  -0.449  19.516  0.00  0.00    -0.200 N 
ATOM      5  C   LIG    1        3.796   0.879  19.475  0.00  0.00    +0.252 C 
ATOM      6  O   LIG    1        4.312   1.555  18.603  0.00  0.00    -0.270 OA
ATOM      7  C   LIG    1        3.356   1.442  20.754  0.00  0.00    +0.023 C 
ATOM      8  C   LIG    1        3.474   2.855  21.146  0.00  0.00    +0.041 C 
ATOM      9  C   LIG    1        2.996   3.149  22.574  0.00  0.00    +0.005 C 
ATOM     10  C   LIG    1        2.289   2.040  23.377  0.00  0.00    +0.005 C 
ATOM     11  C   LIG    1        2.290   0.598  22.845  0.00  0.00    +0.041 C 
ATOM     12  C   LIG    1        2.841   0.461  21.487  0.00  0.00    +0.023 C 
ENDBRANCH   1   4
BRANCH   1  13
ATOM     13  O   LIG    1        5.158  -1.654  18.363  0.00  0.00    -0.444 OA
BRANCH  13  14
ATOM     14  C   LIG    1        5.747  -2.242  19.426  0.00  0.00    +0.313 C 
ATOM     15  O   LIG    1        5.363  -3.259  19.987  0.00  0.00    -0.250 OA
BRANCH  14  16
ATOM     16  C   LIG    1        6.976  -1.499  19.787  0.00  0.00    +0.111 C 
ATOM     17  C   LIG    1        8.368  -1.747  19.231  0.00  0.00    -0.014 C 
ATOM     18  C   LIG    1        9.260  -0.532  19.077  0.00  0.00    +0.012 C 
ATOM     19  C   LIG    1        8.606  -2.779  18.157  0.00  0.00    +0.012 C 
ATOM     20  C   LIG    1        8.037  -2.156  20.655  0.00  0.00    +0.032 C 
BRANCH  20  21
ATOM     21  C   LIG    1        7.879  -3.561  21.062  0.00  0.00    -0.023 C 
ATOM     22  C   LIG    1        8.863  -4.469  21.229  0.00  0.00    -0.079 C 
ATOM     23  C   LIG    1        8.559  -5.880  21.655  0.00  0.00    +0.038 C 
ATOM     24  C   LIG    1       10.322  -4.180  21.005  0.00  0.00    +0.038 C 
ENDBRANCH  20  21
ENDBRANCH  14  16
ENDBRANCH  13  14
ENDBRANCH   1  13
TORSDOF 5
ENDMDL
MODEL 6
REMARK VINA RESULT:      -7.8      4.964      8.215
REMARK  Name = 
REMARK                            x       y       z     vdW  Elec       q    Type
REMARK                         _______ _______ _______ _____ _____    ______ ____
ROOT
ATOM      1  C   LIG    1        9.139  -4.087  23.770  0.00  0.00    +0.352 C 
ENDROOT
BRANCH   1   4
ATOM      2  O   LIG    1       11.271  -3.144  25.495  0.00  0.00    -0.270 OA
ATOM      3  C   LIG    1       10.228  -3.608  25.918  0.00  0.00    +0.252 C 
ATOM      4  N   LIG    1        9.166  -4.083  25.215  0.00  0.00    -0.200 N 
ATOM      5  C   LIG    1        8.195  -4.521  26.059  0.00  0.00    +0.252 C 
ATOM      6  O   LIG    1        7.105  -5.012  25.829  0.00  0.00    -0.270 OA
ATOM      7  C   LIG    1        8.691  -4.299  27.420  0.00  0.00    +0.023 C 
ATOM      8  C   LIG    1        7.961  -4.626  28.654  0.00  0.00    +0.041 C 
ATOM      9  C   LIG    1        8.692  -4.217  29.939  0.00  0.00    +0.005 C 
ATOM     10  C   LIG    1       10.140  -3.697  29.852  0.00  0.00    +0.005 C 
ATOM     11  C   LIG    1       10.745  -3.361  28.479  0.00  0.00    +0.041 C 
ATOM     12  C   LIG    1        9.899  -3.752  27.340  0.00  0.00    +0.023 C 
ENDBRANCH   1   4
BRANCH   1  13
ATOM     13  O   LIG    1        8.296  -3.050  23.298  0.00  0.00    -0.444 OA
BRANCH  13  14
ATOM     14  C   LIG    1        7.738  -3.262  22.088  0.00  0.00    +0.313 C 
ATOM     15  O   LIG    1        7.636  -4.343  21.524  0.00  0.00    -0.250 OA
BRANCH  14  16
ATOM     16  C   LIG    1        7.205  -1.987  21.555  0.00  0.00    +0.111 C 
ATOM     17  C   LIG    1        6.072  -1.839  20.553  0.00  0.00    -0.014 C 
ATOM     18  C   LIG    1        5.187  -0.619  20.710  0.00  0.00    +0.012 C 
ATOM     19  C   LIG    1        5.314  -3.041  20.049  0.00  0.00    +0.012 C 
ATOM     20  C   LIG    1        7.504  -1.574  20.124  0.00  0.00    +0.032 C 
BRANCH  20  21
ATOM     21  C   LIG    1        8.250  -2.485  19.242  0.00  0.00    -0.023 C 
ATOM     22  C   LIG    1        9.349  -2.190  18.518  0.00  0.00    -0.079 C 
ATOM     23  C   LIG    1       10.019  -3.226  17.656  0.00  0.00    +0.038 C 
ATOM     24  C   LIG    1        9.999  -0.833  18.489  0.00  0.00    +0.038 C 
ENDBRANCH  20  21
ENDBRANCH  14  16
ENDBRANCH  13  14
ENDBRANCH   1  13
TORSDOF 5
ENDMDL
MODEL 7
REMARK VINA RESULT:      -7.5     10.031     12.369
REMARK  Name = 
REMARK                            x       y       z     vdW  Elec       q    Type
REMARK                         _______ _______ _______ _____ _____    ______ ____
ROOT
ATOM      1  C   LIG    1        9.212  -4.333  32.362  0.00  0.00    +0.352 C 
ENDROOT
BRANCH   1   4
ATOM      2  O   LIG    1        6.736  -4.461  30.856  0.00  0.00    -0.270 OA
ATOM      3  C   LIG    1        7.832  -4.392  30.331  0.00  0.00    +0.252 C 
ATOM      4  N   LIG    1        9.053  -4.332  30.925  0.00  0.00    -0.200 N 
ATOM      5  C   LIG    1       10.035  -4.271  29.987  0.00  0.00    +0.252 C 
ATOM      6  O   LIG    1       11.245  -4.209  30.107  0.00  0.00    -0.270 OA
ATOM      7  C   LIG    1        9.370  -4.291  28.682  0.00  0.00    +0.023 C 
ATOM      8  C   LIG    1       10.052  -4.240  27.379  0.00  0.00    +0.041 C 
ATOM      9  C   LIG    1        9.100  -4.203  26.177  0.00  0.00    +0.005 C 
ATOM     10  C   LIG    1        7.589  -4.404  26.403  0.00  0.00    +0.005 C 
ATOM     11  C   LIG    1        7.027  -4.392  27.833  0.00  0.00    +0.041 C 
ATOM     12  C   LIG    1        8.059  -4.359  28.882  0.00  0.00    +0.023 C 
ENDBRANCH   1   4
BRANCH   1  13
ATOM     13  O   LIG    1        9.871  -3.149  32.776  0.00  0.00    -0.444 OA
BRANCH  13  14
ATOM     14  C   LIG    1        9.078  -2.067  32.927  0.00  0.00    +0.313 C 
ATOM     15  O   LIG    1        7.857  -2.056  32.843  0.00  0.00    -0.250 OA
BRANCH  14  16
ATOM     16  C   LIG    1        9.904  -0.888  33.271  0.00  0.00    +0.111 C 
ATOM     17  C   LIG    1        9.621   0.551  32.872  0.00  0.00    -0.014 C 
ATOM     18  C   LIG    1       10.034   1.620  33.862  0.00  0.00    +0.012 C 
ATOM     19  C   LIG    1        8.371   0.919  32.113  0.00  0.00    +0.012 C 
ATOM     20  C   LIG    1       10.751  -0.213  32.204  0.00  0.00    +0.032 C 
BRANCH  20  21
ATOM     21  C   LIG    1       10.678  -0.681  30.811  0.00  0.00    -0.023 C 
ATOM     22  C   LIG    1       11.656  -0.614  29.885  0.00  0.00    -0.079 C 
ATOM     23  C   LIG    1       11.448  -1.138  28.489  0.00  0.00    +0.038 C 
ATOM     24  C   LIG    1       13.016  -0.020  30.136  0.00  0.00    +0.038 C 
ENDBRANCH  20  21
ENDBRANCH  14  16
ENDBRANCH  13  14
ENDBRANCH   1  13
TORSDOF 5
ENDMDL
MODEL 8
REMARK VINA RESULT:      -7.4      2.048      2.987
REMARK  Name = 
REMARK                            x       y       z     vdW  Elec       q    Type
REMARK                         _______ _______ _______ _____ _____    ______ ____
ROOT
ATOM      1  C   LIG    1        4.673  -2.762  20.038  0.00  0.00    +0.352 C 
ENDROOT
BRANCH   1   4
ATOM      2  O   LIG    1        2.570  -2.524  22.022  0.00  0.00    -0.270 OA
ATOM      3  C   LIG    1        3.063  -1.565  21.456  0.00  0.00    +0.252 C 
ATOM      4  N   LIG    1        4.042  -1.551  20.514  0.00  0.00    -0.200 N 
ATOM      5  C   LIG    1        4.308  -0.276  20.124  0.00  0.00    +0.252 C 
ATOM      6  O   LIG    1        5.104   0.157  19.312  0.00  0.00    -0.270 OA
ATOM      7  C   LIG    1        3.415   0.593  20.897  0.00  0.00    +0.023 C 
ATOM      8  C   LIG    1        3.363   2.060  20.799  0.00  0.00    +0.041 C 
ATOM      9  C   LIG    1        2.383   2.716  21.779  0.00  0.00    +0.005 C 
ATOM     10  C   LIG    1        1.440   1.828  22.614  0.00  0.00    +0.005 C 
ATOM     11  C   LIG    1        1.656   0.307  22.641  0.00  0.00    +0.041 C 
ATOM     12  C   LIG    1        2.676  -0.171  21.693  0.00  0.00    +0.023 C 
ENDBRANCH   1   4
BRANCH   1  13
ATOM     13  O   LIG    1        6.078  -2.670  20.198  0.00  0.00    -0.444 OA
BRANCH  13  14
ATOM     14  C   LIG    1        6.601  -3.437  21.178  0.00  0.00    +0.313 C 
ATOM     15  O   LIG    1        5.965  -4.112  21.976  0.00  0.00    -0.250 OA
BRANCH  14  16
ATOM     16  C   LIG    1        8.080  -3.389  21.112  0.00  0.00    +0.111 C 
ATOM     17  C   LIG    1        9.022  -4.568  21.290  0.00  0.00    -0.014 C 
ATOM     18  C   LIG    1       10.299  -4.540  20.475  0.00  0.00    +0.012 C 
ATOM     19  C   LIG    1        8.494  -5.966  21.488  0.00  0.00    +0.012 C 
ATOM     20  C   LIG    1        8.904  -3.519  22.382  0.00  0.00    +0.032 C 
BRANCH  20  21
ATOM     21  C   LIG    1        8.232  -3.781  23.665  0.00  0.00    -0.023 C 
ATOM     22  C   LIG    1        8.818  -3.897  24.874  0.00  0.00    -0.079 C 
ATOM     23  C   LIG    1        8.005  -4.163  26.113  0.00  0.00    +0.038 C 
ATOM     24  C   LIG    1       10.300  -3.786  25.107  0.00  0.00    +0.038 C 
ENDBRANCH  20  21
ENDBRANCH  14  16
ENDBRANCH  13  14
ENDBRANCH   1  13
TORSDOF 5
ENDMDL
MODEL 9
REMARK VINA RESULT:      -7.3      9.634     12.099
REMARK  Name = 
REMARK                            x       y       z     vdW  Elec       q    Type
REMARK                         _______ _______ _______ _____ _____    ______ ____
ROOT
ATOM      1  C   LIG    1        7.426  -4.961  30.154  0.00  0.00    +0.352 C 
ENDROOT
BRANCH   1   4
ATOM      2  O   LIG    1        6.335  -4.505  27.505  0.00  0.00    -0.270 OA
ATOM      3  C   LIG    1        7.527  -4.465  27.751  0.00  0.00    +0.252 C 
ATOM      4  N   LIG    1        8.153  -4.664  28.940  0.00  0.00    -0.200 N 
ATOM      5  C   LIG    1        9.499  -4.538  28.796  0.00  0.00    +0.252 C 
ATOM      6  O   LIG    1       10.399  -4.642  29.610  0.00  0.00    -0.270 OA
ATOM      7  C   LIG    1        9.742  -4.228  27.385  0.00  0.00    +0.023 C 
ATOM      8  C   LIG    1       11.064  -4.005  26.779  0.00  0.00    +0.041 C 
ATOM      9  C   LIG    1       11.014  -3.626  25.293  0.00  0.00    +0.005 C 
ATOM     10  C   LIG    1        9.670  -3.689  24.542  0.00  0.00    +0.005 C 
ATOM     11  C   LIG    1        8.367  -3.888  25.332  0.00  0.00    +0.041 C 
ATOM     12  C   LIG    1        8.571  -4.179  26.760  0.00  0.00    +0.023 C 
ENDBRANCH   1   4
BRANCH   1  13
ATOM     13  O   LIG    1        7.305  -3.791  30.945  0.00  0.00    -0.444 OA
BRANCH  13  14
ATOM     14  C   LIG    1        8.041  -3.779  32.077  0.00  0.00    +0.313 C 
ATOM     15  O   LIG    1        8.687  -4.717  32.523  0.00  0.00    -0.250 OA
BRANCH  14  16
ATOM     16  C   LIG    1        8.001  -2.427  32.681  0.00  0.00    +0.111 C 
ATOM     17  C   LIG    1        8.780  -1.211  32.207  0.00  0.00    -0.014 C 
ATOM     18  C   LIG    1        8.100   0.132  32.373  0.00  0.00    +0.012 C 
ATOM     19  C   LIG    1        9.647  -1.272  30.975  0.00  0.00    +0.012 C 
ATOM     20  C   LIG    1        9.183  -1.918  33.489  0.00  0.00    +0.032 C 
BRANCH  20  21
ATOM     21  C   LIG    1       10.402  -2.737  33.595  0.00  0.00    -0.023 C 
ATOM     22  C   LIG    1       11.663  -2.290  33.765  0.00  0.00    -0.079 C 
ATOM     23  C   LIG    1       12.823  -3.244  33.862  0.00  0.00    +0.038 C 
ATOM     24  C   LIG    1       12.035  -0.835  33.862  0.00  0.00    +0.038 C 
ENDBRANCH  20  21
ENDBRANCH  14  16
ENDBRANCH  13  14
ENDBRANCH   1  13
TORSDOF 5
ENDMDL
