MODEL 1
REMARK VINA RESULT:      -9.2      0.000      0.000
REMARK  Name = 
REMARK                            x       y       z     vdW  Elec       q    Type
REMARK                         _______ _______ _______ _____ _____    ______ ____
ROOT
ATOM      1  C   LIG    1       11.414   3.345  30.851  0.00  0.00    +0.352 C 
ENDROOT
BRANCH   1   4
ATOM      2  O   LIG    1       13.287   3.930  32.987  0.00  0.00    -0.270 OA
ATOM      3  C   LIG    1       12.274   3.274  33.150  0.00  0.00    +0.252 C 
ATOM      4  N   LIG    1       11.331   2.933  32.234  0.00  0.00    -0.200 N 
ATOM      5  C   LIG    1       10.354   2.185  32.814  0.00  0.00    +0.252 C 
ATOM      6  O   LIG    1        9.348   1.689  32.342  0.00  0.00    -0.270 OA
ATOM      7  C   LIG    1       10.716   2.046  34.227  0.00  0.00    +0.023 C 
ATOM      8  C   LIG    1        9.936   1.312  35.235  0.00  0.00    +0.041 C 
ATOM      9  C   LIG    1       10.517   1.393  36.653  0.00  0.00    +0.005 C 
ATOM     10  C   LIG    1       11.898   2.042  36.869  0.00  0.00    +0.005 C 
ATOM     11  C   LIG    1       12.563   2.812  35.718  0.00  0.00    +0.041 C 
ATOM     12  C   LIG    1       11.856   2.696  34.432  0.00  0.00    +0.023 C 
ENDBRANCH   1   4
BRANCH   1  13
ATOM     13  O   LIG    1       11.610   2.213  30.020  0.00  0.00    -0.444 OA
BRANCH  13  14
ATOM     14  C   LIG    1       10.832   2.162  28.918  0.00  0.00    +0.313 C 
ATOM     15  O   LIG    1       11.063   2.714  27.851  0.00  0.00    -0.250 OA
BRANCH  14  16
ATOM     16  C   LIG    1        9.669   1.280  29.170  0.00  0.00    +0.111 C 
ATOM     17  C   LIG    1        9.010   0.356  28.159  0.00  0.00    -0.014 C 
ATOM     18  C   LIG    1        8.438  -0.938  28.701  0.00  0.00    +0.012 C 
ATOM     19  C   LIG    1        9.564   0.204  26.765  0.00  0.00    +0.012 C 
ATOM     20  C   LIG    1        8.308   1.630  28.593  0.00  0.00    +0.032 C 
BRANCH  20  21
ATOM     21  C   LIG    1        8.168   2.800  27.711  0.00  0.00    -0.023 C 
ATOM     22  C   LIG    1        7.132   3.075  26.892  0.00  0.00    -0.079 C 
ATOM     23  C   LIG    1        7.117   4.316  26.041  0.00  0.00    +0.038 C 
ATOM     24  C   LIG    1        5.924   2.192  26.737  0.00  0.00    +0.038 C 
ENDBRANCH  20  21
ENDBRANCH  14  16
ENDBRANCH  13  14
ENDBRANCH   1  13
TORSDOF 5
ENDMDL
MODEL 2
REMARK VINA RESULT:      -9.2      0.261      1.828
REMARK  Name = 
REMARK                            x       y       z     vdW  Elec       q    Type
REMARK                         _______ _______ _______ _____ _____    ______ ____
ROOT
ATOM      1  C   LIG    1       11.184   3.183  30.814  0.00  0.00    +0.352 C 
ENDROOT
BRANCH   1   4
ATOM      2  O   LIG    1        9.196   1.784  32.397  0.00  0.00    -0.270 OA
ATOM      3  C   LIG    1       10.254   2.178  32.853  0.00  0.00    +0.252 C 
ATOM      4  N   LIG    1       11.254   2.843  32.217  0.00  0.00    -0.200 N 
ATOM      5  C   LIG    1       12.270   3.112  33.080  0.00  0.00    +0.252 C 
ATOM      6  O   LIG    1       13.330   3.684  32.905  0.00  0.00    -0.270 OA
ATOM      7  C   LIG    1       11.873   2.563  34.379  0.00  0.00    +0.023 C 
ATOM      8  C   LIG    1       12.676   2.624  35.610  0.00  0.00    +0.041 C 
ATOM      9  C   LIG    1       12.043   1.902  36.806  0.00  0.00    +0.005 C 
ATOM     10  C   LIG    1       10.606   1.360  36.686  0.00  0.00    +0.005 C 
ATOM     11  C   LIG    1        9.918   1.327  35.313  0.00  0.00    +0.041 C 
ATOM     12  C   LIG    1       10.675   2.002  34.247  0.00  0.00    +0.023 C 
ENDBRANCH   1   4
BRANCH   1  13
ATOM     13  O   LIG    1       11.725   2.130  30.034  0.00  0.00    -0.444 OA
BRANCH  13  14
ATOM     14  C   LIG    1       11.046   1.838  28.903  0.00  0.00    +0.313 C 
ATOM     15  O   LIG    1       11.395   2.119  27.765  0.00  0.00    -0.250 OA
BRANCH  14  16
ATOM     16  C   LIG    1        9.827   1.067  29.240  0.00  0.00    +0.111 C 
ATOM     17  C   LIG    1        9.021   0.204  28.283  0.00  0.00    -0.014 C 
ATOM     18  C   LIG    1        8.371  -1.030  28.872  0.00  0.00    +0.012 C 
ATOM     19  C   LIG    1        9.464  -0.001  26.856  0.00  0.00    +0.012 C 
ATOM     20  C   LIG    1        8.468   1.539  28.751  0.00  0.00    +0.032 C 
BRANCH  20  21
ATOM     21  C   LIG    1        8.376   2.714  27.870  0.00  0.00    -0.023 C 
ATOM     22  C   LIG    1        7.379   3.002  27.008  0.00  0.00    -0.079 C 
ATOM     23  C   LIG    1        7.410   4.248  26.165  0.00  0.00    +0.038 C 
ATOM     24  C   LIG    1        6.171   2.130  26.797  0.00  0.00    +0.038 C 
ENDBRANCH  20  21
ENDBRANCH  14  16
ENDBRANCH  13  14
ENDBRANCH   1  13
TORSDOF 5
ENDMDL
MODEL 3
REMARK VINA RESULT:      -9.0      3.645      7.356
REMARK  Name = 
REMARK                            x       y       z     vdW  Elec       q    Type
REMARK                         _______ _______ _______ _____ _____    ______ ____
ROOT
ATOM      1  C   LIG    1        6.528   3.015  26.030  0.00  0.00    +0.352 C 
ENDROOT
BRANCH   1   4
ATOM      2  O   LIG    1        8.087   5.433  25.657  0.00  0.00    -0.270 OA
ATOM      3  C   LIG    1        7.106   5.377  26.376  0.00  0.00    +0.252 C 
ATOM      4  N   LIG    1        6.304   4.310  26.632  0.00  0.00    -0.200 N 
ATOM      5  C   LIG    1        5.314   4.656  27.497  0.00  0.00    +0.252 C 
ATOM      6  O   LIG    1        4.406   3.998  27.970  0.00  0.00    -0.270 OA
ATOM      7  C   LIG    1        5.510   6.074  27.813  0.00  0.00    +0.023 C 
ATOM      8  C   LIG    1        4.662   6.869  28.714  0.00  0.00    +0.041 C 
ATOM      9  C   LIG    1        5.059   8.348  28.801  0.00  0.00    +0.005 C 
ATOM     10  C   LIG    1        6.360   8.823  28.125  0.00  0.00    +0.005 C 
ATOM     11  C   LIG    1        7.110   7.878  27.173  0.00  0.00    +0.041 C 
ATOM     12  C   LIG    1        6.573   6.507  27.144  0.00  0.00    +0.023 C 
ENDBRANCH   1   4
BRANCH   1  13
ATOM     13  O   LIG    1        6.329   1.994  26.993  0.00  0.00    -0.444 OA
BRANCH  13  14
ATOM     14  C   LIG    1        7.395   1.718  27.774  0.00  0.00    +0.313 C 
ATOM     15  O   LIG    1        7.445   1.848  28.990  0.00  0.00    -0.250 OA
BRANCH  14  16
ATOM     16  C   LIG    1        8.493   1.173  26.944  0.00  0.00    +0.111 C 
ATOM     17  C   LIG    1        9.066  -0.232  27.027  0.00  0.00    -0.014 C 
ATOM     18  C   LIG    1        9.550  -0.842  25.728  0.00  0.00    +0.012 C 
ATOM     19  C   LIG    1        8.482  -1.258  27.965  0.00  0.00    +0.012 C 
ATOM     20  C   LIG    1        9.868   0.947  27.551  0.00  0.00    +0.032 C 
BRANCH  20  21
ATOM     21  C   LIG    1       10.080   1.187  28.987  0.00  0.00    -0.023 C 
ATOM     22  C   LIG    1       11.201   1.660  29.570  0.00  0.00    -0.079 C 
ATOM     23  C   LIG    1       11.280   1.863  31.059  0.00  0.00    +0.038 C 
ATOM     24  C   LIG    1       12.455   2.015  28.819  0.00  0.00    +0.038 C 
ENDBRANCH  20  21
ENDBRANCH  14  16
ENDBRANCH  13  14
ENDBRANCH   1  13
TORSDOF 5
ENDMDL
MODEL 4
REMARK VINA RESULT:      -8.8      4.333      7.631
REMARK  Name = 
REMARK                            x       y       z     vdW  Elec       q    Type
REMARK                         _______ _______ _______ _____ _____    ______ ____
ROOT
ATOM      1  C   LIG    1        6.879   3.625  25.700  0.00  0.00    +0.352 C 
ENDROOT
BRANCH   1   4
ATOM      2  O   LIG    1        5.144   4.214  27.949  0.00  0.00    -0.270 OA
ATOM      3  C   LIG    1        5.774   5.068  27.352  0.00  0.00    +0.252 C 
ATOM      4  N   LIG    1        6.609   4.917  26.291  0.00  0.00    -0.200 N 
ATOM      5  C   LIG    1        7.115   6.119  25.909  0.00  0.00    +0.252 C 
ATOM      6  O   LIG    1        7.887   6.408  25.013  0.00  0.00    -0.270 OA
ATOM      7  C   LIG    1        6.549   7.120  26.818  0.00  0.00    +0.023 C 
ATOM      8  C   LIG    1        6.828   8.563  26.772  0.00  0.00    +0.041 C 
ATOM      9  C   LIG    1        6.152   9.365  27.892  0.00  0.00    +0.005 C 
ATOM     10  C   LIG    1        5.136   8.665  28.815  0.00  0.00    +0.005 C 
ATOM     11  C   LIG    1        4.994   7.135  28.768  0.00  0.00    +0.041 C 
ATOM     12  C   LIG    1        5.753   6.497  27.680  0.00  0.00    +0.023 C 
ENDBRANCH   1   4
BRANCH   1  13
ATOM     13  O   LIG    1        7.820   2.919  26.491  0.00  0.00    -0.444 OA
BRANCH  13  14
ATOM     14  C   LIG    1        7.435   1.687  26.887  0.00  0.00    +0.313 C 
ATOM     15  O   LIG    1        6.340   1.391  27.347  0.00  0.00    -0.250 OA
BRANCH  14  16
ATOM     16  C   LIG    1        8.524   0.717  26.628  0.00  0.00    +0.111 C 
ATOM     17  C   LIG    1        8.983  -0.386  27.567  0.00  0.00    -0.014 C 
ATOM     18  C   LIG    1        9.476  -1.663  26.919  0.00  0.00    +0.012 C 
ATOM     19  C   LIG    1        8.280  -0.637  28.878  0.00  0.00    +0.012 C 
ATOM     20  C   LIG    1        9.848   0.845  27.362  0.00  0.00    +0.032 C 
BRANCH  20  21
ATOM     21  C   LIG    1       10.014   1.880  28.394  0.00  0.00    -0.023 C 
ATOM     22  C   LIG    1       11.173   2.289  28.950  0.00  0.00    -0.079 C 
ATOM     23  C   LIG    1       11.199   3.368  29.999  0.00  0.00    +0.038 C 
ATOM     24  C   LIG    1       12.522   1.722  28.598  0.00  0.00    +0.038 C 
ENDBRANCH  20  21
ENDBRANCH  14  16
ENDBRANCH  13  14
ENDBRANCH   1  13
TORSDOF 5
ENDMDL
MODEL 5
REMARK VINA RESULT:      -8.8      1.466      2.038
REMARK  Name = 
REMARK                            x       y       z     vdW  Elec       q    Type
REMARK                         _______ _______ _______ _____ _____    ______ ____
ROOT
ATOM      1  C   LIG    1       11.355   2.140  30.389  0.00  0.00    +0.352 C 
ENDROOT
BRANCH   1   4
ATOM      2  O   LIG    1       13.051   3.603  32.233  0.00  0.00    -0.270 OA
ATOM      3  C   LIG    1       12.142   2.878  32.596  0.00  0.00    +0.252 C 
ATOM      4  N   LIG    1       11.289   2.144  31.834  0.00  0.00    -0.200 N 
ATOM      5  C   LIG    1       10.416   1.461  32.620  0.00  0.00    +0.252 C 
ATOM      6  O   LIG    1        9.510   0.702  32.329  0.00  0.00    -0.270 OA
ATOM      7  C   LIG    1       10.749   1.799  34.007  0.00  0.00    +0.023 C 
ATOM      8  C   LIG    1       10.054   1.285  35.197  0.00  0.00    +0.041 C 
ATOM      9  C   LIG    1       10.569   1.865  36.520  0.00  0.00    +0.005 C 
ATOM     10  C   LIG    1       11.832   2.749  36.517  0.00  0.00    +0.005 C 
ATOM     11  C   LIG    1       12.412   3.239  35.181  0.00  0.00    +0.041 C 
ATOM     12  C   LIG    1       11.773   2.645  33.996  0.00  0.00    +0.023 C 
ENDBRANCH   1   4
BRANCH   1  13
ATOM     13  O   LIG    1       10.110   2.543  29.847  0.00  0.00    -0.444 OA
BRANCH  13  14
ATOM     14  C   LIG    1        9.492   1.628  29.071  0.00  0.00    +0.313 C 
ATOM     15  O   LIG    1        9.895   0.497  28.837  0.00  0.00    -0.250 OA
BRANCH  14  16
ATOM     16  C   LIG    1        8.206   2.176  28.582  0.00  0.00    +0.111 C 
ATOM     17  C   LIG    1        7.673   2.078  27.162  0.00  0.00    -0.014 C 
ATOM     18  C   LIG    1        6.170   1.963  27.011  0.00  0.00    +0.012 C 
ATOM     19  C   LIG    1        8.420   1.312  26.099  0.00  0.00    +0.012 C 
ATOM     20  C   LIG    1        8.192   3.404  27.687  0.00  0.00    +0.032 C 
BRANCH  20  21
ATOM     21  C   LIG    1        9.463   3.994  27.237  0.00  0.00    -0.023 C 
ATOM     22  C   LIG    1        9.629   4.900  26.252  0.00  0.00    -0.079 C 
ATOM     23  C   LIG    1       10.993   5.425  25.895  0.00  0.00    +0.038 C 
ATOM     24  C   LIG    1        8.504   5.457  25.422  0.00  0.00    +0.038 C 
ENDBRANCH  20  21
ENDBRANCH  14  16
ENDBRANCH  13  14
ENDBRANCH   1  13
TORSDOF 5
ENDMDL
MODEL 6
REMARK VINA RESULT:      -8.8      1.539      2.778
REMARK  Name = 
REMARK                            x       y       z     vdW  Elec       q    Type
REMARK                         _______ _______ _______ _____ _____    ______ ____
ROOT
ATOM      1  C   LIG    1       11.347   1.906  30.288  0.00  0.00    +0.352 C 
ENDROOT
BRANCH   1   4
ATOM      2  O   LIG    1        9.632   0.547  32.194  0.00  0.00    -0.270 OA
ATOM      3  C   LIG    1       10.479   1.359  32.520  0.00  0.00    +0.252 C 
ATOM      4  N   LIG    1       11.332   2.057  31.726  0.00  0.00    -0.200 N 
ATOM      5  C   LIG    1       12.122   2.871  32.476  0.00  0.00    +0.252 C 
ATOM      6  O   LIG    1       13.001   3.648  32.150  0.00  0.00    -0.270 OA
ATOM      7  C   LIG    1       11.731   2.662  33.873  0.00  0.00    +0.023 C 
ATOM      8  C   LIG    1       12.329   3.340  35.034  0.00  0.00    +0.041 C 
ATOM      9  C   LIG    1       11.773   2.873  36.385  0.00  0.00    +0.005 C 
ATOM     10  C   LIG    1       10.562   1.920  36.414  0.00  0.00    +0.005 C 
ATOM     11  C   LIG    1       10.084   1.257  35.113  0.00  0.00    +0.041 C 
ATOM     12  C   LIG    1       10.756   1.760  33.903  0.00  0.00    +0.023 C 
ENDBRANCH   1   4
BRANCH   1  13
ATOM     13  O   LIG    1       10.162   2.449  29.733  0.00  0.00    -0.444 OA
BRANCH  13  14
ATOM     14  C   LIG    1        9.446   1.607  28.958  0.00  0.00    +0.313 C 
ATOM     15  O   LIG    1        9.760   0.462  28.663  0.00  0.00    -0.250 OA
BRANCH  14  16
ATOM     16  C   LIG    1        8.177   2.257  28.556  0.00  0.00    +0.111 C 
ATOM     17  C   LIG    1        7.589   2.284  27.155  0.00  0.00    -0.014 C 
ATOM     18  C   LIG    1        6.078   2.263  27.056  0.00  0.00    +0.012 C 
ATOM     19  C   LIG    1        8.253   1.552  26.016  0.00  0.00    +0.012 C 
ATOM     20  C   LIG    1        8.202   3.542  27.746  0.00  0.00    +0.032 C 
BRANCH  20  21
ATOM     21  C   LIG    1        9.488   4.090  27.286  0.00  0.00    -0.023 C 
ATOM     22  C   LIG    1        9.683   4.936  26.254  0.00  0.00    -0.079 C 
ATOM     23  C   LIG    1       11.060   5.425  25.893  0.00  0.00    +0.038 C 
ATOM     24  C   LIG    1        8.580   5.460  25.374  0.00  0.00    +0.038 C 
ENDBRANCH  20  21
ENDBRANCH  14  16
ENDBRANCH  13  14
ENDBRANCH   1  13
TORSDOF 5
ENDMDL
MODEL 7
REMARK VINA RESULT:      -8.8      8.748     10.502
REMARK  Name = 
REMARK                            x       y       z     vdW  Elec       q    Type
REMARK                         _______ _______ _______ _____ _____    ______ ____
ROOT
ATOM      1  C   LIG    1       19.253   4.453  26.103  0.00  0.00    +0.352 C 
ENDROOT
BRANCH   1   4
ATOM      2  O   LIG    1       17.125   3.869  27.986  0.00  0.00    -0.270 OA
ATOM      3  C   LIG    1       17.898   4.800  28.122  0.00  0.00    +0.252 C 
ATOM      4  N   LIG    1       18.923   5.174  27.312  0.00  0.00    -0.200 N 
ATOM      5  C   LIG    1       19.545   6.276  27.810  0.00  0.00    +0.252 C 
ATOM      6  O   LIG    1       20.493   6.913  27.388  0.00  0.00    -0.270 OA
ATOM      7  C   LIG    1       18.848   6.625  29.051  0.00  0.00    +0.023 C 
ATOM      8  C   LIG    1       19.189   7.756  29.928  0.00  0.00    +0.041 C 
ATOM      9  C   LIG    1       18.334   7.840  31.199  0.00  0.00    +0.005 C 
ATOM     10  C   LIG    1       17.125   6.899  31.360  0.00  0.00    +0.005 C 
ATOM     11  C   LIG    1       16.933   5.733  30.377  0.00  0.00    +0.041 C 
ATOM     12  C   LIG    1       17.870   5.747  29.242  0.00  0.00    +0.023 C 
ENDBRANCH   1   4
BRANCH   1  13
ATOM     13  O   LIG    1       18.542   4.998  25.005  0.00  0.00    -0.444 OA
BRANCH  13  14
ATOM     14  C   LIG    1       18.913   4.540  23.790  0.00  0.00    +0.313 C 
ATOM     15  O   LIG    1       20.057   4.290  23.436  0.00  0.00    -0.250 OA
BRANCH  14  16
ATOM     16  C   LIG    1       17.711   4.323  22.953  0.00  0.00    +0.111 C 
ATOM     17  C   LIG    1       16.431   3.629  23.386  0.00  0.00    -0.014 C 
ATOM     18  C   LIG    1       15.143   4.147  22.780  0.00  0.00    +0.012 C 
ATOM     19  C   LIG    1       16.248   3.141  24.801  0.00  0.00    +0.012 C 
ATOM     20  C   LIG    1       17.385   2.934  22.431  0.00  0.00    +0.032 C 
BRANCH  20  21
ATOM     21  C   LIG    1       18.218   1.789  22.833  0.00  0.00    -0.023 C 
ATOM     22  C   LIG    1       18.929   0.981  22.020  0.00  0.00    -0.079 C 
ATOM     23  C   LIG    1       19.746  -0.157  22.569  0.00  0.00    +0.038 C 
ATOM     24  C   LIG    1       18.972   1.121  20.522  0.00  0.00    +0.038 C 
ENDBRANCH  20  21
ENDBRANCH  14  16
ENDBRANCH  13  14
ENDBRANCH   1  13
TORSDOF 5
ENDMDL
MODEL 8
REMARK VINA RESULT:      -8.6      1.701      2.536
REMARK  Name = 
REMARK                            x       y       z     vdW  Elec       q    Type
REMARK                         _______ _______ _______ _____ _____    ______ ____
ROOT
ATOM      1  C   LIG    1       10.742   2.512  29.218  0.00  0.00    +0.352 C 
ENDROOT
BRANCH   1   4
ATOM      2  O   LIG    1       12.881   3.582  30.859  0.00  0.00    -0.270 OA
ATOM      3  C   LIG    1       11.938   2.962  31.316  0.00  0.00    +0.252 C 
ATOM      4  N   LIG    1       10.887   2.412  30.654  0.00  0.00    -0.200 N 
ATOM      5  C   LIG    1       10.047   1.794  31.525  0.00  0.00    +0.252 C 
ATOM      6  O   LIG    1        9.007   1.190  31.334  0.00  0.00    -0.270 OA
ATOM      7  C   LIG    1       10.622   1.974  32.861  0.00  0.00    +0.023 C 
ATOM      8  C   LIG    1       10.039   1.467  34.113  0.00  0.00    +0.041 C 
ATOM      9  C   LIG    1       10.820   1.867  35.371  0.00  0.00    +0.005 C 
ATOM     10  C   LIG    1       12.183   2.570  35.224  0.00  0.00    +0.005 C 
ATOM     11  C   LIG    1       12.630   3.080  33.844  0.00  0.00    +0.041 C 
ATOM     12  C   LIG    1       11.746   2.672  32.740  0.00  0.00    +0.023 C 
ENDBRANCH   1   4
BRANCH   1  13
ATOM     13  O   LIG    1       10.235   3.789  28.871  0.00  0.00    -0.444 OA
BRANCH  13  14
ATOM     14  C   LIG    1        9.522   3.837  27.725  0.00  0.00    +0.313 C 
ATOM     15  O   LIG    1        9.888   4.345  26.674  0.00  0.00    -0.250 OA
BRANCH  14  16
ATOM     16  C   LIG    1        8.237   3.125  27.908  0.00  0.00    +0.111 C 
ATOM     17  C   LIG    1        7.233   2.793  26.815  0.00  0.00    -0.014 C 
ATOM     18  C   LIG    1        6.462   1.500  26.977  0.00  0.00    +0.012 C 
ATOM     19  C   LIG    1        7.517   3.120  25.371  0.00  0.00    +0.012 C 
ATOM     20  C   LIG    1        6.924   3.886  27.823  0.00  0.00    +0.032 C 
BRANCH  20  21
ATOM     21  C   LIG    1        6.931   5.315  27.472  0.00  0.00    -0.023 C 
ATOM     22  C   LIG    1        5.940   6.205  27.688  0.00  0.00    -0.079 C 
ATOM     23  C   LIG    1        6.082   7.646  27.280  0.00  0.00    +0.038 C 
ATOM     24  C   LIG    1        4.625   5.860  28.332  0.00  0.00    +0.038 C 
ENDBRANCH  20  21
ENDBRANCH  14  16
ENDBRANCH  13  14
ENDBRANCH   1  13
TORSDOF 5
ENDMDL
MODEL 9
REMARK VINA RESULT:      -8.5      3.705      7.072
REMARK  Name = 
REMARK                            x       y       z     vdW  Elec       q    Type
REMARK                         _______ _______ _______ _____ _____    ______ ____
ROOT
ATOM      1  C   LIG    1        7.355   3.056  25.858  0.00  0.00    +0.352 C 
ENDROOT
BRANCH   1   4
ATOM      2  O   LIG    1        8.455   5.739  25.747  0.00  0.00    -0.270 OA
ATOM      3  C   LIG    1        7.453   5.455  26.379  0.00  0.00    +0.252 C 
ATOM      4  N   LIG    1        6.850   4.244  26.509  0.00  0.00    -0.200 N 
ATOM      5  C   LIG    1        5.754   4.343  27.308  0.00  0.00    +0.252 C 
ATOM      6  O   LIG    1        4.954   3.498  27.668  0.00  0.00    -0.270 OA
ATOM      7  C   LIG    1        5.658   5.747  27.715  0.00  0.00    +0.023 C 
ATOM      8  C   LIG    1        4.614   6.310  28.586  0.00  0.00    +0.041 C 
ATOM      9  C   LIG    1        4.719   7.827  28.786  0.00  0.00    +0.005 C 
ATOM     10  C   LIG    1        5.952   8.577  28.246  0.00  0.00    +0.005 C 
ATOM     11  C   LIG    1        6.931   7.853  27.309  0.00  0.00    +0.041 C 
ATOM     12  C   LIG    1        6.665   6.413  27.161  0.00  0.00    +0.023 C 
ENDBRANCH   1   4
BRANCH   1  13
ATOM     13  O   LIG    1        7.599   2.044  26.820  0.00  0.00    -0.444 OA
BRANCH  13  14
ATOM     14  C   LIG    1        8.639   2.273  27.650  0.00  0.00    +0.313 C 
ATOM     15  O   LIG    1        9.595   3.000  27.418  0.00  0.00    -0.250 OA
BRANCH  14  16
ATOM     16  C   LIG    1        8.425   1.552  28.926  0.00  0.00    +0.111 C 
ATOM     17  C   LIG    1        9.510   1.076  29.878  0.00  0.00    -0.014 C 
ATOM     18  C   LIG    1        9.168   1.093  31.354  0.00  0.00    +0.012 C 
ATOM     19  C   LIG    1       10.964   1.379  29.618  0.00  0.00    +0.012 C 
ATOM     20  C   LIG    1        8.751   0.071  29.028  0.00  0.00    +0.032 C 
BRANCH  20  21
ATOM     21  C   LIG    1        9.363  -0.622  27.884  0.00  0.00    -0.023 C 
ATOM     22  C   LIG    1        8.717  -1.282  26.900  0.00  0.00    -0.079 C 
ATOM     23  C   LIG    1        9.471  -1.947  25.780  0.00  0.00    +0.038 C 
ATOM     24  C   LIG    1        7.221  -1.427  26.824  0.00  0.00    +0.038 C 
ENDBRANCH  20  21
ENDBRANCH  14  16
ENDBRANCH  13  14
ENDBRANCH   1  13
TORSDOF 5
ENDMDL
