MODEL 1
REMARK VINA RESULT:      -2.4      0.000      0.000
REMARK  Name = 
REMARK                            x       y       z     vdW  Elec       q    Type
REMARK                         _______ _______ _______ _____ _____    ______ ____
ROOT
ATOM      1  C   LIG    1       15.200   5.468  54.972  0.00  0.00    +0.352 C 
ENDROOT
BRANCH   1   4
ATOM      2  O   LIG    1       18.089   5.204  54.928  0.00  0.00    -0.270 OA
ATOM      3  C   LIG    1       17.450   5.683  54.009  0.00  0.00    +0.252 C 
ATOM      4  N   LIG    1       16.106   5.862  53.916  0.00  0.00    -0.200 N 
ATOM      5  C   LIG    1       15.784   6.438  52.728  0.00  0.00    +0.252 C 
ATOM      6  O   LIG    1       14.704   6.760  52.267  0.00  0.00    -0.270 OA
ATOM      7  C   LIG    1       17.042   6.637  52.004  0.00  0.00    +0.023 C 
ATOM      8  C   LIG    1       17.168   7.233  50.665  0.00  0.00    +0.041 C 
ATOM      9  C   LIG    1       18.602   7.251  50.121  0.00  0.00    +0.005 C 
ATOM     10  C   LIG    1       19.765   6.841  51.045  0.00  0.00    +0.005 C 
ATOM     11  C   LIG    1       19.463   6.189  52.404  0.00  0.00    +0.041 C 
ATOM     12  C   LIG    1       18.035   6.185  52.762  0.00  0.00    +0.023 C 
ENDBRANCH   1   4
BRANCH   1  13
ATOM     13  O   LIG    1       14.245   4.549  54.472  0.00  0.00    -0.444 OA
BRANCH  13  14
ATOM     14  C   LIG    1       14.703   3.297  54.255  0.00  0.00    +0.313 C 
ATOM     15  O   LIG    1       15.132   2.533  55.109  0.00  0.00    -0.250 OA
BRANCH  14  16
ATOM     16  C   LIG    1       14.556   2.955  52.822  0.00  0.00    +0.111 C 
ATOM     17  C   LIG    1       14.645   1.562  52.220  0.00  0.00    -0.014 C 
ATOM     18  C   LIG    1       13.762   1.286  51.021  0.00  0.00    +0.012 C 
ATOM     19  C   LIG    1       14.831   0.346  53.092  0.00  0.00    +0.012 C 
ATOM     20  C   LIG    1       15.773   2.556  52.005  0.00  0.00    +0.032 C 
BRANCH  20  21
ATOM     21  C   LIG    1       17.083   2.425  52.662  0.00  0.00    -0.023 C 
ATOM     22  C   LIG    1       18.292   2.639  52.105  0.00  0.00    -0.079 C 
ATOM     23  C   LIG    1       19.560   2.472  52.899  0.00  0.00    +0.038 C 
ATOM     24  C   LIG    1       18.498   3.046  50.671  0.00  0.00    +0.038 C 
ENDBRANCH  20  21
ENDBRANCH  14  16
ENDBRANCH  13  14
ENDBRANCH   1  13
TORSDOF 5
ENDMDL
MODEL 2
REMARK VINA RESULT:      -2.1      2.236      5.732
REMARK  Name = 
REMARK                            x       y       z     vdW  Elec       q    Type
REMARK                         _______ _______ _______ _____ _____    ______ ____
ROOT
ATOM      1  C   LIG    1       16.842   2.535  54.701  0.00  0.00    +0.352 C 
ENDROOT
BRANCH   1   4
ATOM      2  O   LIG    1       14.903   3.577  52.811  0.00  0.00    -0.270 OA
ATOM      3  C   LIG    1       15.258   2.412  52.828  0.00  0.00    +0.252 C 
ATOM      4  N   LIG    1       16.147   1.810  53.660  0.00  0.00    -0.200 N 
ATOM      5  C   LIG    1       16.263   0.490  53.358  0.00  0.00    +0.252 C 
ATOM      6  O   LIG    1       16.945  -0.384  53.862  0.00  0.00    -0.270 OA
ATOM      7  C   LIG    1       15.365   0.238  52.228  0.00  0.00    +0.023 C 
ATOM      8  C   LIG    1       15.173  -1.062  51.568  0.00  0.00    +0.041 C 
ATOM      9  C   LIG    1       14.224  -1.017  50.363  0.00  0.00    +0.005 C 
ATOM     10  C   LIG    1       13.440   0.276  50.068  0.00  0.00    +0.005 C 
ATOM     11  C   LIG    1       13.794   1.569  50.820  0.00  0.00    +0.041 C 
ATOM     12  C   LIG    1       14.768   1.381  51.907  0.00  0.00    +0.023 C 
ENDBRANCH   1   4
BRANCH   1  13
ATOM     13  O   LIG    1       18.222   2.626  54.388  0.00  0.00    -0.444 OA
BRANCH  13  14
ATOM     14  C   LIG    1       18.790   3.828  54.623  0.00  0.00    +0.313 C 
ATOM     15  O   LIG    1       19.493   4.114  55.583  0.00  0.00    -0.250 OA
BRANCH  14  16
ATOM     16  C   LIG    1       18.485   4.750  53.505  0.00  0.00    +0.111 C 
ATOM     17  C   LIG    1       18.580   4.423  52.023  0.00  0.00    -0.014 C 
ATOM     18  C   LIG    1       17.571   5.098  51.117  0.00  0.00    +0.012 C 
ATOM     19  C   LIG    1       18.945   3.038  51.552  0.00  0.00    +0.012 C 
ATOM     20  C   LIG    1       19.611   5.333  52.668  0.00  0.00    +0.032 C 
BRANCH  20  21
ATOM     21  C   LIG    1       20.999   4.909  52.915  0.00  0.00    -0.023 C 
ATOM     22  C   LIG    1       21.978   4.773  51.998  0.00  0.00    -0.079 C 
ATOM     23  C   LIG    1       23.362   4.333  52.391  0.00  0.00    +0.038 C 
ATOM     24  C   LIG    1       21.795   5.029  50.526  0.00  0.00    +0.038 C 
ENDBRANCH  20  21
ENDBRANCH  14  16
ENDBRANCH  13  14
ENDBRANCH   1  13
TORSDOF 5
ENDMDL
MODEL 3
REMARK VINA RESULT:      -2.1      3.021      4.669
REMARK  Name = 
REMARK                            x       y       z     vdW  Elec       q    Type
REMARK                         _______ _______ _______ _____ _____    ______ ____
ROOT
ATOM      1  C   LIG    1       18.647   3.117  53.209  0.00  0.00    +0.352 C 
ENDROOT
BRANCH   1   4
ATOM      2  O   LIG    1       19.352   5.211  51.329  0.00  0.00    -0.270 OA
ATOM      3  C   LIG    1       20.129   4.342  51.680  0.00  0.00    +0.252 C 
ATOM      4  N   LIG    1       19.916   3.314  52.543  0.00  0.00    -0.200 N 
ATOM      5  C   LIG    1       21.036   2.555  52.665  0.00  0.00    +0.252 C 
ATOM      6  O   LIG    1       21.253   1.558  53.330  0.00  0.00    -0.270 OA
ATOM      7  C   LIG    1       22.051   3.163  51.800  0.00  0.00    +0.023 C 
ATOM      8  C   LIG    1       23.425   2.668  51.624  0.00  0.00    +0.041 C 
ATOM      9  C   LIG    1       24.292   3.546  50.712  0.00  0.00    +0.005 C 
ATOM     10  C   LIG    1       23.640   4.709  49.940  0.00  0.00    +0.005 C 
ATOM     11  C   LIG    1       22.200   5.130  50.274  0.00  0.00    +0.041 C 
ATOM     12  C   LIG    1       21.516   4.229  51.216  0.00  0.00    +0.023 C 
ENDBRANCH   1   4
BRANCH   1  13
ATOM     13  O   LIG    1       17.828   2.251  52.441  0.00  0.00    -0.444 OA
BRANCH  13  14
ATOM     14  C   LIG    1       16.602   2.731  52.139  0.00  0.00    +0.313 C 
ATOM     15  O   LIG    1       16.245   3.897  52.234  0.00  0.00    -0.250 OA
BRANCH  14  16
ATOM     16  C   LIG    1       15.756   1.636  51.612  0.00  0.00    +0.111 C 
ATOM     17  C   LIG    1       14.244   1.533  51.737  0.00  0.00    -0.014 C 
ATOM     18  C   LIG    1       13.515   0.878  50.582  0.00  0.00    +0.012 C 
ATOM     19  C   LIG    1       13.438   2.634  52.379  0.00  0.00    +0.012 C 
ATOM     20  C   LIG    1       15.137   0.625  52.564  0.00  0.00    +0.032 C 
BRANCH  20  21
ATOM     21  C   LIG    1       15.309   0.790  54.016  0.00  0.00    -0.023 C 
ATOM     22  C   LIG    1       16.230   0.185  54.795  0.00  0.00    -0.079 C 
ATOM     23  C   LIG    1       16.297   0.450  56.275  0.00  0.00    +0.038 C 
ATOM     24  C   LIG    1       17.251  -0.795  54.284  0.00  0.00    +0.038 C 
ENDBRANCH  20  21
ENDBRANCH  14  16
ENDBRANCH  13  14
ENDBRANCH   1  13
TORSDOF 5
ENDMDL
MODEL 4
REMARK VINA RESULT:      -2.1      2.087      5.233
REMARK  Name = 
REMARK                            x       y       z     vdW  Elec       q    Type
REMARK                         _______ _______ _______ _____ _____    ______ ____
ROOT
ATOM      1  C   LIG    1       17.024   3.829  54.860  0.00  0.00    +0.352 C 
ENDROOT
BRANCH   1   4
ATOM      2  O   LIG    1       17.447   0.985  54.477  0.00  0.00    -0.270 OA
ATOM      3  C   LIG    1       16.584   1.614  53.893  0.00  0.00    +0.252 C 
ATOM      4  N   LIG    1       16.294   2.939  53.985  0.00  0.00    -0.200 N 
ATOM      5  C   LIG    1       15.259   3.257  53.163  0.00  0.00    +0.252 C 
ATOM      6  O   LIG    1       14.707   4.323  52.957  0.00  0.00    -0.270 OA
ATOM      7  C   LIG    1       14.859   2.017  52.494  0.00  0.00    +0.023 C 
ATOM      8  C   LIG    1       13.769   1.894  51.513  0.00  0.00    +0.041 C 
ATOM      9  C   LIG    1       13.525   0.459  51.028  0.00  0.00    +0.005 C 
ATOM     10  C   LIG    1       14.508  -0.654  51.437  0.00  0.00    +0.005 C 
ATOM     11  C   LIG    1       15.569  -0.374  52.513  0.00  0.00    +0.041 C 
ATOM     12  C   LIG    1       15.642   1.036  52.928  0.00  0.00    +0.023 C 
ENDBRANCH   1   4
BRANCH   1  13
ATOM     13  O   LIG    1       17.763   4.763  54.092  0.00  0.00    -0.444 OA
BRANCH  13  14
ATOM     14  C   LIG    1       19.011   4.375  53.753  0.00  0.00    +0.313 C 
ATOM     15  O   LIG    1       19.733   3.632  54.404  0.00  0.00    -0.250 OA
BRANCH  14  16
ATOM     16  C   LIG    1       19.367   4.942  52.432  0.00  0.00    +0.111 C 
ATOM     17  C   LIG    1       19.083   4.308  51.080  0.00  0.00    -0.014 C 
ATOM     18  C   LIG    1       18.788   5.258  49.938  0.00  0.00    +0.012 C 
ATOM     19  C   LIG    1       18.313   3.016  50.970  0.00  0.00    +0.012 C 
ATOM     20  C   LIG    1       20.501   4.336  51.622  0.00  0.00    +0.032 C 
BRANCH  20  21
ATOM     21  C   LIG    1       21.186   3.131  52.115  0.00  0.00    -0.023 C 
ATOM     22  C   LIG    1       22.457   2.761  51.856  0.00  0.00    -0.079 C 
ATOM     23  C   LIG    1       23.037   1.498  52.432  0.00  0.00    +0.038 C 
ATOM     24  C   LIG    1       23.400   3.544  50.983  0.00  0.00    +0.038 C 
ENDBRANCH  20  21
ENDBRANCH  14  16
ENDBRANCH  13  14
ENDBRANCH   1  13
TORSDOF 5
ENDMDL
MODEL 5
REMARK VINA RESULT:      -2.0      2.461      4.517
REMARK  Name = 
REMARK                            x       y       z     vdW  Elec       q    Type
REMARK                         _______ _______ _______ _____ _____    ______ ____
ROOT
ATOM      1  C   LIG    1       17.788   5.026  52.817  0.00  0.00    +0.352 C 
ENDROOT
BRANCH   1   4
ATOM      2  O   LIG    1       18.035   4.465  55.653  0.00  0.00    -0.270 OA
ATOM      3  C   LIG    1       18.643   3.849  54.796  0.00  0.00    +0.252 C 
ATOM      4  N   LIG    1       18.614   4.021  53.449  0.00  0.00    -0.200 N 
ATOM      5  C   LIG    1       19.443   3.134  52.838  0.00  0.00    +0.252 C 
ATOM      6  O   LIG    1       19.698   2.966  51.659  0.00  0.00    -0.270 OA
ATOM      7  C   LIG    1       20.049   2.327  53.901  0.00  0.00    +0.023 C 
ATOM      8  C   LIG    1       21.015   1.237  53.694  0.00  0.00    +0.041 C 
ATOM      9  C   LIG    1       21.428   0.516  54.984  0.00  0.00    +0.005 C 
ATOM     10  C   LIG    1       20.971   1.079  56.344  0.00  0.00    +0.005 C 
ATOM     11  C   LIG    1       19.917   2.197  56.388  0.00  0.00    +0.041 C 
ATOM     12  C   LIG    1       19.572   2.747  55.067  0.00  0.00    +0.023 C 
ENDBRANCH   1   4
BRANCH   1  13
ATOM     13  O   LIG    1       16.914   4.416  51.882  0.00  0.00    -0.444 OA
BRANCH  13  14
ATOM     14  C   LIG    1       15.925   3.668  52.416  0.00  0.00    +0.313 C 
ATOM     15  O   LIG    1       15.072   4.061  53.199  0.00  0.00    -0.250 OA
BRANCH  14  16
ATOM     16  C   LIG    1       15.987   2.295  51.865  0.00  0.00    +0.111 C 
ATOM     17  C   LIG    1       14.868   1.267  51.893  0.00  0.00    -0.014 C 
ATOM     18  C   LIG    1       14.788   0.323  50.712  0.00  0.00    +0.012 C 
ATOM     19  C   LIG    1       13.510   1.608  52.454  0.00  0.00    +0.012 C 
ATOM     20  C   LIG    1       16.075   1.101  52.800  0.00  0.00    +0.032 C 
BRANCH  20  21
ATOM     21  C   LIG    1       16.009   1.308  54.256  0.00  0.00    -0.023 C 
ATOM     22  C   LIG    1       16.686   0.624  55.201  0.00  0.00    -0.079 C 
ATOM     23  C   LIG    1       16.526   0.945  56.663  0.00  0.00    +0.038 C 
ATOM     24  C   LIG    1       17.637  -0.504  54.905  0.00  0.00    +0.038 C 
ENDBRANCH  20  21
ENDBRANCH  14  16
ENDBRANCH  13  14
ENDBRANCH   1  13
TORSDOF 5
ENDMDL
MODEL 6
REMARK VINA RESULT:      -2.0      1.929      5.855
REMARK  Name = 
REMARK                            x       y       z     vdW  Elec       q    Type
REMARK                         _______ _______ _______ _____ _____    ______ ____
ROOT
ATOM      1  C   LIG    1       16.378   2.519  54.932  0.00  0.00    +0.352 C 
ENDROOT
BRANCH   1   4
ATOM      2  O   LIG    1       14.441   3.464  52.990  0.00  0.00    -0.270 OA
ATOM      3  C   LIG    1       14.905   2.339  52.974  0.00  0.00    +0.252 C 
ATOM      4  N   LIG    1       15.807   1.783  53.825  0.00  0.00    -0.200 N 
ATOM      5  C   LIG    1       16.065   0.497  53.471  0.00  0.00    +0.252 C 
ATOM      6  O   LIG    1       16.804  -0.333  53.971  0.00  0.00    -0.270 OA
ATOM      7  C   LIG    1       15.251   0.217  52.285  0.00  0.00    +0.023 C 
ATOM      8  C   LIG    1       15.218  -1.062  51.560  0.00  0.00    +0.041 C 
ATOM      9  C   LIG    1       14.328  -1.048  50.309  0.00  0.00    +0.005 C 
ATOM     10  C   LIG    1       13.438   0.178  50.030  0.00  0.00    +0.005 C 
ATOM     11  C   LIG    1       13.628   1.460  50.856  0.00  0.00    +0.041 C 
ATOM     12  C   LIG    1       14.562   1.312  51.984  0.00  0.00    +0.023 C 
ENDBRANCH   1   4
BRANCH   1  13
ATOM     13  O   LIG    1       17.218   3.551  54.445  0.00  0.00    -0.444 OA
BRANCH  13  14
ATOM     14  C   LIG    1       18.282   3.140  53.723  0.00  0.00    +0.313 C 
ATOM     15  O   LIG    1       19.225   2.484  54.145  0.00  0.00    -0.250 OA
BRANCH  14  16
ATOM     16  C   LIG    1       18.115   3.553  52.310  0.00  0.00    +0.111 C 
ATOM     17  C   LIG    1       19.195   4.139  51.415  0.00  0.00    -0.014 C 
ATOM     18  C   LIG    1       19.118   3.784  49.945  0.00  0.00    +0.012 C 
ATOM     19  C   LIG    1       20.615   4.288  51.901  0.00  0.00    +0.012 C 
ATOM     20  C   LIG    1       18.084   5.028  51.946  0.00  0.00    +0.032 C 
BRANCH  20  21
ATOM     21  C   LIG    1       18.308   6.042  52.988  0.00  0.00    -0.023 C 
ATOM     22  C   LIG    1       17.385   6.864  53.529  0.00  0.00    -0.079 C 
ATOM     23  C   LIG    1       17.753   7.858  54.597  0.00  0.00    +0.038 C 
ATOM     24  C   LIG    1       15.935   6.880  53.127  0.00  0.00    +0.038 C 
ENDBRANCH  20  21
ENDBRANCH  14  16
ENDBRANCH  13  14
ENDBRANCH   1  13
TORSDOF 5
ENDMDL
MODEL 7
REMARK VINA RESULT:      -2.0      3.210      5.530
REMARK  Name = 
REMARK                            x       y       z     vdW  Elec       q    Type
REMARK                         _______ _______ _______ _____ _____    ______ ____
ROOT
ATOM      1  C   LIG    1       18.778   3.054  52.741  0.00  0.00    +0.352 C 
ENDROOT
BRANCH   1   4
ATOM      2  O   LIG    1       19.734   0.478  53.669  0.00  0.00    -0.270 OA
ATOM      3  C   LIG    1       19.212   1.298  54.402  0.00  0.00    +0.252 C 
ATOM      4  N   LIG    1       18.724   2.526  54.086  0.00  0.00    -0.200 N 
ATOM      5  C   LIG    1       18.212   3.133  55.189  0.00  0.00    +0.252 C 
ATOM      6  O   LIG    1       17.688   4.223  55.326  0.00  0.00    -0.270 OA
ATOM      7  C   LIG    1       18.398   2.200  56.304  0.00  0.00    +0.023 C 
ATOM      8  C   LIG    1       17.990   2.448  57.696  0.00  0.00    +0.041 C 
ATOM      9  C   LIG    1       18.375   1.325  58.668  0.00  0.00    +0.005 C 
ATOM     10  C   LIG    1       18.956   0.011  58.113  0.00  0.00    +0.005 C 
ATOM     11  C   LIG    1       19.373  -0.071  56.636  0.00  0.00    +0.041 C 
ATOM     12  C   LIG    1       18.996   1.109  55.841  0.00  0.00    +0.023 C 
ENDBRANCH   1   4
BRANCH   1  13
ATOM     13  O   LIG    1       17.899   2.326  51.900  0.00  0.00    -0.444 OA
BRANCH  13  14
ATOM     14  C   LIG    1       16.605   2.708  51.946  0.00  0.00    +0.313 C 
ATOM     15  O   LIG    1       16.194   3.810  52.283  0.00  0.00    -0.250 OA
BRANCH  14  16
ATOM     16  C   LIG    1       15.743   1.603  51.466  0.00  0.00    +0.111 C 
ATOM     17  C   LIG    1       14.253   1.452  51.726  0.00  0.00    -0.014 C 
ATOM     18  C   LIG    1       13.438   0.808  50.624  0.00  0.00    +0.012 C 
ATOM     19  C   LIG    1       13.481   2.510  52.474  0.00  0.00    +0.012 C 
ATOM     20  C   LIG    1       15.244   0.548  52.439  0.00  0.00    +0.032 C 
BRANCH  20  21
ATOM     21  C   LIG    1       15.545   0.677  53.874  0.00  0.00    -0.023 C 
ATOM     22  C   LIG    1       14.901   0.073  54.893  0.00  0.00    -0.079 C 
ATOM     23  C   LIG    1       15.319   0.291  56.322  0.00  0.00    +0.038 C 
ATOM     24  C   LIG    1       13.724  -0.849  54.716  0.00  0.00    +0.038 C 
ENDBRANCH  20  21
ENDBRANCH  14  16
ENDBRANCH  13  14
ENDBRANCH   1  13
TORSDOF 5
ENDMDL
MODEL 8
REMARK VINA RESULT:      -1.9      2.751      5.891
REMARK  Name = 
REMARK                            x       y       z     vdW  Elec       q    Type
REMARK                         _______ _______ _______ _____ _____    ______ ____
ROOT
ATOM      1  C   LIG    1       18.938   4.085  49.939  0.00  0.00    +0.352 C 
ENDROOT
BRANCH   1   4
ATOM      2  O   LIG    1       17.496   2.527  51.916  0.00  0.00    -0.270 OA
ATOM      3  C   LIG    1       17.362   3.730  51.789  0.00  0.00    +0.252 C 
ATOM      4  N   LIG    1       17.973   4.561  50.904  0.00  0.00    -0.200 N 
ATOM      5  C   LIG    1       17.545   5.840  51.080  0.00  0.00    +0.252 C 
ATOM      6  O   LIG    1       17.846   6.865  50.496  0.00  0.00    -0.270 OA
ATOM      7  C   LIG    1       16.577   5.811  52.179  0.00  0.00    +0.023 C 
ATOM      8  C   LIG    1       15.860   6.980  52.712  0.00  0.00    +0.041 C 
ATOM      9  C   LIG    1       14.960   6.666  53.914  0.00  0.00    +0.005 C 
ATOM     10  C   LIG    1       14.740   5.198  54.330  0.00  0.00    +0.005 C 
ATOM     11  C   LIG    1       15.606   4.093  53.705  0.00  0.00    +0.041 C 
ATOM     12  C   LIG    1       16.468   4.557  52.606  0.00  0.00    +0.023 C 
ENDBRANCH   1   4
BRANCH   1  13
ATOM     13  O   LIG    1       20.079   4.926  49.940  0.00  0.00    -0.444 OA
BRANCH  13  14
ATOM     14  C   LIG    1       20.944   4.727  50.957  0.00  0.00    +0.313 C 
ATOM     15  O   LIG    1       21.473   3.663  51.251  0.00  0.00    -0.250 OA
BRANCH  14  16
ATOM     16  C   LIG    1       21.210   6.012  51.644  0.00  0.00    +0.111 C 
ATOM     17  C   LIG    1       22.261   6.254  52.714  0.00  0.00    -0.014 C 
ATOM     18  C   LIG    1       22.905   7.625  52.729  0.00  0.00    +0.012 C 
ATOM     19  C   LIG    1       23.214   5.163  53.134  0.00  0.00    +0.012 C 
ATOM     20  C   LIG    1       20.791   6.203  53.092  0.00  0.00    +0.032 C 
BRANCH  20  21
ATOM     21  C   LIG    1       20.201   5.079  53.836  0.00  0.00    -0.023 C 
ATOM     22  C   LIG    1       19.260   5.153  54.800  0.00  0.00    -0.079 C 
ATOM     23  C   LIG    1       18.739   3.916  55.480  0.00  0.00    +0.038 C 
ATOM     24  C   LIG    1       18.656   6.441  55.290  0.00  0.00    +0.038 C 
ENDBRANCH  20  21
ENDBRANCH  14  16
ENDBRANCH  13  14
ENDBRANCH   1  13
TORSDOF 5
ENDMDL
MODEL 9
REMARK VINA RESULT:      -1.8      2.739      4.054
REMARK  Name = 
REMARK                            x       y       z     vdW  Elec       q    Type
REMARK                         _______ _______ _______ _____ _____    ______ ____
ROOT
ATOM      1  C   LIG    1       17.520   4.928  51.502  0.00  0.00    +0.352 C 
ENDROOT
BRANCH   1   4
ATOM      2  O   LIG    1       19.387   3.302  49.991  0.00  0.00    -0.270 OA
ATOM      3  C   LIG    1       19.687   3.876  51.022  0.00  0.00    +0.252 C 
ATOM      4  N   LIG    1       18.905   4.655  51.814  0.00  0.00    -0.200 N 
ATOM      5  C   LIG    1       19.613   5.108  52.883  0.00  0.00    +0.252 C 
ATOM      6  O   LIG    1       19.281   5.821  53.812  0.00  0.00    -0.270 OA
ATOM      7  C   LIG    1       20.967   4.564  52.749  0.00  0.00    +0.023 C 
ATOM      8  C   LIG    1       22.075   4.801  53.688  0.00  0.00    +0.041 C 
ATOM      9  C   LIG    1       23.404   4.165  53.258  0.00  0.00    +0.005 C 
ATOM     10  C   LIG    1       23.431   3.220  52.042  0.00  0.00    +0.005 C 
ATOM     11  C   LIG    1       22.197   3.118  51.132  0.00  0.00    +0.041 C 
ATOM     12  C   LIG    1       21.016   3.834  51.641  0.00  0.00    +0.023 C 
ENDBRANCH   1   4
BRANCH   1  13
ATOM     13  O   LIG    1       16.729   3.784  51.774  0.00  0.00    -0.444 OA
BRANCH  13  14
ATOM     14  C   LIG    1       16.192   3.731  53.012  0.00  0.00    +0.313 C 
ATOM     15  O   LIG    1       16.074   4.674  53.783  0.00  0.00    -0.250 OA
BRANCH  14  16
ATOM     16  C   LIG    1       15.706   2.359  53.285  0.00  0.00    +0.111 C 
ATOM     17  C   LIG    1       15.746   1.646  54.627  0.00  0.00    -0.014 C 
ATOM     18  C   LIG    1       14.606   0.692  54.918  0.00  0.00    +0.012 C 
ATOM     19  C   LIG    1       16.247   2.344  55.867  0.00  0.00    +0.012 C 
ATOM     20  C   LIG    1       16.697   1.231  53.518  0.00  0.00    +0.032 C 
BRANCH  20  21
ATOM     21  C   LIG    1       18.139   1.523  53.559  0.00  0.00    -0.023 C 
ATOM     22  C   LIG    1       19.123   0.683  53.940  0.00  0.00    -0.079 C 
ATOM     23  C   LIG    1       20.565   1.113  53.929  0.00  0.00    +0.038 C 
ATOM     24  C   LIG    1       18.891  -0.727  54.412  0.00  0.00    +0.038 C 
ENDBRANCH  20  21
ENDBRANCH  14  16
ENDBRANCH  13  14
ENDBRANCH   1  13
TORSDOF 5
ENDMDL
