MODEL 1
REMARK VINA RESULT:      -8.4      0.000      0.000
REMARK  Name = 
REMARK                            x       y       z     vdW  Elec       q    Type
REMARK                         _______ _______ _______ _____ _____    ______ ____
ROOT
ATOM      1  C   LIG    1       28.467   2.913  19.911  0.00  0.00    +0.352 C 
ENDROOT
BRANCH   1   4
ATOM      2  O   LIG    1       31.227   2.271  20.532  0.00  0.00    -0.270 OA
ATOM      3  C   LIG    1       30.280   1.654  20.987  0.00  0.00    +0.252 C 
ATOM      4  N   LIG    1       28.955   1.855  20.768  0.00  0.00    -0.200 N 
ATOM      5  C   LIG    1       28.215   0.946  21.457  0.00  0.00    +0.252 C 
ATOM      6  O   LIG    1       27.009   0.791  21.525  0.00  0.00    -0.270 OA
ATOM      7  C   LIG    1       29.164   0.095  22.179  0.00  0.00    +0.023 C 
ATOM      8  C   LIG    1       28.801  -1.027  23.059  0.00  0.00    +0.041 C 
ATOM      9  C   LIG    1       30.000  -1.697  23.742  0.00  0.00    +0.005 C 
ATOM     10  C   LIG    1       31.428  -1.291  23.332  0.00  0.00    +0.005 C 
ATOM     11  C   LIG    1       31.640  -0.061  22.435  0.00  0.00    +0.041 C 
ATOM     12  C   LIG    1       30.394   0.516  21.905  0.00  0.00    +0.023 C 
ENDBRANCH   1   4
BRANCH   1  13
ATOM     13  O   LIG    1       27.058   2.821  19.784  0.00  0.00    -0.444 OA
BRANCH  13  14
ATOM     14  C   LIG    1       26.479   3.788  19.040  0.00  0.00    +0.313 C 
ATOM     15  O   LIG    1       25.990   4.825  19.466  0.00  0.00    -0.250 OA
BRANCH  14  16
ATOM     16  C   LIG    1       26.574   3.435  17.605  0.00  0.00    +0.111 C 
ATOM     17  C   LIG    1       25.416   3.050  16.699  0.00  0.00    -0.014 C 
ATOM     18  C   LIG    1       25.524   3.472  15.248  0.00  0.00    +0.012 C 
ATOM     19  C   LIG    1       23.994   3.067  17.201  0.00  0.00    +0.012 C 
ATOM     20  C   LIG    1       26.401   1.991  17.161  0.00  0.00    +0.032 C 
BRANCH  20  21
ATOM     21  C   LIG    1       26.052   0.961  18.152  0.00  0.00    -0.023 C 
ATOM     22  C   LIG    1       26.359  -0.352  18.095  0.00  0.00    -0.079 C 
ATOM     23  C   LIG    1       25.941  -1.300  19.186  0.00  0.00    +0.038 C 
ATOM     24  C   LIG    1       27.121  -0.990  16.965  0.00  0.00    +0.038 C 
ENDBRANCH  20  21
ENDBRANCH  14  16
ENDBRANCH  13  14
ENDBRANCH   1  13
TORSDOF 5
ENDMDL
MODEL 2
REMARK VINA RESULT:      -8.0      0.801      2.760
REMARK  Name = 
REMARK                            x       y       z     vdW  Elec       q    Type
REMARK                         _______ _______ _______ _____ _____    ______ ____
ROOT
ATOM      1  C   LIG    1       28.578   2.816  19.950  0.00  0.00    +0.352 C 
ENDROOT
BRANCH   1   4
ATOM      2  O   LIG    1       31.325   2.239  20.682  0.00  0.00    -0.270 OA
ATOM      3  C   LIG    1       30.377   1.589  21.086  0.00  0.00    +0.252 C 
ATOM      4  N   LIG    1       29.057   1.758  20.812  0.00  0.00    -0.200 N 
ATOM      5  C   LIG    1       28.314   0.818  21.454  0.00  0.00    +0.252 C 
ATOM      6  O   LIG    1       27.111   0.629  21.468  0.00  0.00    -0.270 OA
ATOM      7  C   LIG    1       29.254  -0.018  22.205  0.00  0.00    +0.023 C 
ATOM      8  C   LIG    1       28.885  -1.164  23.050  0.00  0.00    +0.041 C 
ATOM      9  C   LIG    1       30.071  -1.813  23.776  0.00  0.00    +0.005 C 
ATOM     10  C   LIG    1       31.504  -1.361  23.434  0.00  0.00    +0.005 C 
ATOM     11  C   LIG    1       31.720  -0.112  22.566  0.00  0.00    +0.041 C 
ATOM     12  C   LIG    1       30.483   0.440  21.991  0.00  0.00    +0.023 C 
ENDBRANCH   1   4
BRANCH   1  13
ATOM     13  O   LIG    1       27.168   2.919  20.050  0.00  0.00    -0.444 OA
BRANCH  13  14
ATOM     14  C   LIG    1       26.512   3.051  18.877  0.00  0.00    +0.313 C 
ATOM     15  O   LIG    1       26.516   4.043  18.161  0.00  0.00    -0.250 OA
BRANCH  14  16
ATOM     16  C   LIG    1       25.823   1.783  18.546  0.00  0.00    +0.111 C 
ATOM     17  C   LIG    1       26.448   0.573  17.872  0.00  0.00    -0.014 C 
ATOM     18  C   LIG    1       25.922  -0.783  18.294  0.00  0.00    +0.012 C 
ATOM     19  C   LIG    1       27.917   0.542  17.531  0.00  0.00    +0.012 C 
ATOM     20  C   LIG    1       25.480   1.455  17.103  0.00  0.00    +0.032 C 
BRANCH  20  21
ATOM     21  C   LIG    1       25.914   2.360  16.026  0.00  0.00    -0.023 C 
ATOM     22  C   LIG    1       25.170   3.305  15.416  0.00  0.00    -0.079 C 
ATOM     23  C   LIG    1       25.745   4.168  14.325  0.00  0.00    +0.038 C 
ATOM     24  C   LIG    1       23.728   3.582  15.742  0.00  0.00    +0.038 C 
ENDBRANCH  20  21
ENDBRANCH  14  16
ENDBRANCH  13  14
ENDBRANCH   1  13
TORSDOF 5
ENDMDL
MODEL 3
REMARK VINA RESULT:      -7.6      2.265      3.652
REMARK  Name = 
REMARK                            x       y       z     vdW  Elec       q    Type
REMARK                         _______ _______ _______ _____ _____    ______ ____
ROOT
ATOM      1  C   LIG    1       26.952  -0.982  19.787  0.00  0.00    +0.352 C 
ENDROOT
BRANCH   1   4
ATOM      2  O   LIG    1       29.588  -2.170  19.545  0.00  0.00    -0.270 OA
ATOM      3  C   LIG    1       29.162  -1.699  20.584  0.00  0.00    +0.252 C 
ATOM      4  N   LIG    1       27.954  -1.125  20.820  0.00  0.00    -0.200 N 
ATOM      5  C   LIG    1       27.860  -0.730  22.118  0.00  0.00    +0.252 C 
ATOM      6  O   LIG    1       26.953  -0.184  22.719  0.00  0.00    -0.270 OA
ATOM      7  C   LIG    1       29.130  -1.087  22.757  0.00  0.00    +0.023 C 
ATOM      8  C   LIG    1       29.470  -0.840  24.167  0.00  0.00    +0.041 C 
ATOM      9  C   LIG    1       30.899  -1.253  24.545  0.00  0.00    +0.005 C 
ATOM     10  C   LIG    1       31.757  -2.027  23.525  0.00  0.00    +0.005 C 
ATOM     11  C   LIG    1       31.274  -2.160  22.072  0.00  0.00    +0.041 C 
ATOM     12  C   LIG    1       29.908  -1.660  21.846  0.00  0.00    +0.023 C 
ENDBRANCH   1   4
BRANCH   1  13
ATOM     13  O   LIG    1       27.376  -0.023  18.832  0.00  0.00    -0.444 OA
BRANCH  13  14
ATOM     14  C   LIG    1       26.539   1.020  18.648  0.00  0.00    +0.313 C 
ATOM     15  O   LIG    1       25.963   1.301  17.606  0.00  0.00    -0.250 OA
BRANCH  14  16
ATOM     16  C   LIG    1       26.369   1.753  19.923  0.00  0.00    +0.111 C 
ATOM     17  C   LIG    1       26.336   3.263  20.090  0.00  0.00    -0.014 C 
ATOM     18  C   LIG    1       25.437   3.802  21.184  0.00  0.00    +0.012 C 
ATOM     19  C   LIG    1       26.407   4.182  18.896  0.00  0.00    +0.012 C 
ATOM     20  C   LIG    1       27.549   2.475  20.550  0.00  0.00    +0.032 C 
BRANCH  20  21
ATOM     21  C   LIG    1       28.839   2.518  19.842  0.00  0.00    -0.023 C 
ATOM     22  C   LIG    1       30.060   2.300  20.373  0.00  0.00    -0.079 C 
ATOM     23  C   LIG    1       31.303   2.371  19.528  0.00  0.00    +0.038 C 
ATOM     24  C   LIG    1       30.302   1.981  21.823  0.00  0.00    +0.038 C 
ENDBRANCH  20  21
ENDBRANCH  14  16
ENDBRANCH  13  14
ENDBRANCH   1  13
TORSDOF 5
ENDMDL
MODEL 4
REMARK VINA RESULT:      -7.5      1.972      6.950
REMARK  Name = 
REMARK                            x       y       z     vdW  Elec       q    Type
REMARK                         _______ _______ _______ _____ _____    ______ ____
ROOT
ATOM      1  C   LIG    1       27.695  -1.467  20.039  0.00  0.00    +0.352 C 
ENDROOT
BRANCH   1   4
ATOM      2  O   LIG    1       26.767   1.087  21.053  0.00  0.00    -0.270 OA
ATOM      3  C   LIG    1       26.725   0.784  19.875  0.00  0.00    +0.252 C 
ATOM      4  N   LIG    1       27.122  -0.374  19.285  0.00  0.00    -0.200 N 
ATOM      5  C   LIG    1       26.902  -0.325  17.944  0.00  0.00    +0.252 C 
ATOM      6  O   LIG    1       27.115  -1.148  17.073  0.00  0.00    -0.270 OA
ATOM      7  C   LIG    1       26.315   0.988  17.665  0.00  0.00    +0.023 C 
ATOM      8  C   LIG    1       25.917   1.476  16.335  0.00  0.00    +0.041 C 
ATOM      9  C   LIG    1       25.396   2.919  16.329  0.00  0.00    +0.005 C 
ATOM     10  C   LIG    1       25.163   3.643  17.669  0.00  0.00    +0.005 C 
ATOM     11  C   LIG    1       25.679   3.015  18.972  0.00  0.00    +0.041 C 
ATOM     12  C   LIG    1       26.212   1.652  18.811  0.00  0.00    +0.023 C 
ENDBRANCH   1   4
BRANCH   1  13
ATOM     13  O   LIG    1       28.771  -0.996  20.831  0.00  0.00    -0.444 OA
BRANCH  13  14
ATOM     14  C   LIG    1       29.849  -1.808  20.886  0.00  0.00    +0.313 C 
ATOM     15  O   LIG    1       30.109  -2.708  20.100  0.00  0.00    -0.250 OA
BRANCH  14  16
ATOM     16  C   LIG    1       30.714  -1.410  22.021  0.00  0.00    +0.111 C 
ATOM     17  C   LIG    1       30.241  -0.972  23.397  0.00  0.00    -0.014 C 
ATOM     18  C   LIG    1       31.126  -1.349  24.567  0.00  0.00    +0.012 C 
ATOM     19  C   LIG    1       28.777  -0.974  23.756  0.00  0.00    +0.012 C 
ATOM     20  C   LIG    1       30.813   0.050  22.429  0.00  0.00    +0.032 C 
BRANCH  20  21
ATOM     21  C   LIG    1       29.978   1.055  21.752  0.00  0.00    -0.023 C 
ATOM     22  C   LIG    1       30.367   1.905  20.779  0.00  0.00    -0.079 C 
ATOM     23  C   LIG    1       29.403   2.885  20.167  0.00  0.00    +0.038 C 
ATOM     24  C   LIG    1       31.764   1.968  20.225  0.00  0.00    +0.038 C 
ENDBRANCH  20  21
ENDBRANCH  14  16
ENDBRANCH  13  14
ENDBRANCH   1  13
TORSDOF 5
ENDMDL
MODEL 5
REMARK VINA RESULT:      -7.4      1.737      6.895
REMARK  Name = 
REMARK                            x       y       z     vdW  Elec       q    Type
REMARK                         _______ _______ _______ _____ _____    ______ ____
ROOT
ATOM      1  C   LIG    1       26.787  -0.554  21.348  0.00  0.00    +0.352 C 
ENDROOT
BRANCH   1   4
ATOM      2  O   LIG    1       26.774  -1.276  18.538  0.00  0.00    -0.270 OA
ATOM      3  C   LIG    1       26.544  -0.149  18.937  0.00  0.00    +0.252 C 
ATOM      4  N   LIG    1       26.525   0.308  20.217  0.00  0.00    -0.200 N 
ATOM      5  C   LIG    1       26.232   1.636  20.243  0.00  0.00    +0.252 C 
ATOM      6  O   LIG    1       26.123   2.407  21.179  0.00  0.00    -0.270 OA
ATOM      7  C   LIG    1       26.046   2.051  18.851  0.00  0.00    +0.023 C 
ATOM      8  C   LIG    1       25.711   3.414  18.408  0.00  0.00    +0.041 C 
ATOM      9  C   LIG    1       25.505   3.545  16.893  0.00  0.00    +0.005 C 
ATOM     10  C   LIG    1       25.833   2.348  15.980  0.00  0.00    +0.005 C 
ATOM     11  C   LIG    1       26.123   0.974  16.603  0.00  0.00    +0.041 C 
ATOM     12  C   LIG    1       26.227   0.991  18.071  0.00  0.00    +0.023 C 
ENDBRANCH   1   4
BRANCH   1  13
ATOM     13  O   LIG    1       27.667   0.090  22.253  0.00  0.00    -0.444 OA
BRANCH  13  14
ATOM     14  C   LIG    1       28.383  -0.733  23.050  0.00  0.00    +0.313 C 
ATOM     15  O   LIG    1       28.263  -0.839  24.262  0.00  0.00    -0.250 OA
BRANCH  14  16
ATOM     16  C   LIG    1       29.308  -1.543  22.225  0.00  0.00    +0.111 C 
ATOM     17  C   LIG    1       30.708  -1.982  22.620  0.00  0.00    -0.014 C 
ATOM     18  C   LIG    1       31.165  -3.330  22.101  0.00  0.00    +0.012 C 
ATOM     19  C   LIG    1       31.268  -1.670  23.985  0.00  0.00    +0.012 C 
ATOM     20  C   LIG    1       30.521  -0.894  21.579  0.00  0.00    +0.032 C 
BRANCH  20  21
ATOM     21  C   LIG    1       30.820   0.522  21.846  0.00  0.00    -0.023 C 
ATOM     22  C   LIG    1       30.450   1.582  21.099  0.00  0.00    -0.079 C 
ATOM     23  C   LIG    1       30.823   2.985  21.494  0.00  0.00    +0.038 C 
ATOM     24  C   LIG    1       29.656   1.478  19.825  0.00  0.00    +0.038 C 
ENDBRANCH  20  21
ENDBRANCH  14  16
ENDBRANCH  13  14
ENDBRANCH   1  13
TORSDOF 5
ENDMDL
MODEL 6
REMARK VINA RESULT:      -7.3      1.660      3.470
REMARK  Name = 
REMARK                            x       y       z     vdW  Elec       q    Type
REMARK                         _______ _______ _______ _____ _____    ______ ____
ROOT
ATOM      1  C   LIG    1       26.653   1.181  20.349  0.00  0.00    +0.352 C 
ENDROOT
BRANCH   1   4
ATOM      2  O   LIG    1       26.840  -0.830  22.431  0.00  0.00    -0.270 OA
ATOM      3  C   LIG    1       27.803  -0.212  22.013  0.00  0.00    +0.252 C 
ATOM      4  N   LIG    1       27.839   0.748  21.053  0.00  0.00    -0.200 N 
ATOM      5  C   LIG    1       29.110   1.199  20.880  0.00  0.00    +0.252 C 
ATOM      6  O   LIG    1       29.557   2.046  20.127  0.00  0.00    -0.270 OA
ATOM      7  C   LIG    1       29.952   0.450  21.816  0.00  0.00    +0.023 C 
ATOM      8  C   LIG    1       31.406   0.613  21.969  0.00  0.00    +0.041 C 
ATOM      9  C   LIG    1       32.040  -0.356  22.976  0.00  0.00    +0.005 C 
ATOM     10  C   LIG    1       31.130  -1.247  23.843  0.00  0.00    +0.005 C 
ATOM     11  C   LIG    1       29.629  -1.339  23.524  0.00  0.00    +0.041 C 
ATOM     12  C   LIG    1       29.178  -0.393  22.490  0.00  0.00    +0.023 C 
ENDBRANCH   1   4
BRANCH   1  13
ATOM     13  O   LIG    1       26.542   0.490  19.117  0.00  0.00    -0.444 OA
BRANCH  13  14
ATOM     14  C   LIG    1       26.108   1.230  18.074  0.00  0.00    +0.313 C 
ATOM     15  O   LIG    1       25.277   0.885  17.246  0.00  0.00    -0.250 OA
BRANCH  14  16
ATOM     16  C   LIG    1       26.751   2.564  18.110  0.00  0.00    +0.111 C 
ATOM     17  C   LIG    1       26.259   3.775  18.885  0.00  0.00    -0.014 C 
ATOM     18  C   LIG    1       27.322   4.704  19.432  0.00  0.00    +0.012 C 
ATOM     19  C   LIG    1       25.051   3.687  19.784  0.00  0.00    +0.012 C 
ATOM     20  C   LIG    1       26.120   3.734  17.374  0.00  0.00    +0.032 C 
BRANCH  20  21
ATOM     21  C   LIG    1       24.824   3.559  16.700  0.00  0.00    -0.023 C 
ATOM     22  C   LIG    1       24.569   3.716  15.385  0.00  0.00    -0.079 C 
ATOM     23  C   LIG    1       23.189   3.500  14.825  0.00  0.00    +0.038 C 
ATOM     24  C   LIG    1       25.603   4.121  14.369  0.00  0.00    +0.038 C 
ENDBRANCH  20  21
ENDBRANCH  14  16
ENDBRANCH  13  14
ENDBRANCH   1  13
TORSDOF 5
ENDMDL
MODEL 7
REMARK VINA RESULT:      -7.3      1.344      2.457
REMARK  Name = 
REMARK                            x       y       z     vdW  Elec       q    Type
REMARK                         _______ _______ _______ _____ _____    ______ ____
ROOT
ATOM      1  C   LIG    1       28.654   2.244  19.699  0.00  0.00    +0.352 C 
ENDROOT
BRANCH   1   4
ATOM      2  O   LIG    1       31.351   2.062  20.752  0.00  0.00    -0.270 OA
ATOM      3  C   LIG    1       30.442   1.340  21.120  0.00  0.00    +0.252 C 
ATOM      4  N   LIG    1       29.150   1.327  20.701  0.00  0.00    -0.200 N 
ATOM      5  C   LIG    1       28.448   0.361  21.352  0.00  0.00    +0.252 C 
ATOM      6  O   LIG    1       27.280   0.031  21.263  0.00  0.00    -0.270 OA
ATOM      7  C   LIG    1       29.387  -0.292  22.268  0.00  0.00    +0.023 C 
ATOM      8  C   LIG    1       29.054  -1.399  23.178  0.00  0.00    +0.041 C 
ATOM      9  C   LIG    1       30.218  -1.839  24.076  0.00  0.00    +0.005 C 
ATOM     10  C   LIG    1       31.621  -1.250  23.838  0.00  0.00    +0.005 C 
ATOM     11  C   LIG    1       31.793  -0.060  22.881  0.00  0.00    +0.041 C 
ATOM     12  C   LIG    1       30.573   0.290  22.136  0.00  0.00    +0.023 C 
ENDBRANCH   1   4
BRANCH   1  13
ATOM     13  O   LIG    1       27.958   3.310  20.321  0.00  0.00    -0.444 OA
BRANCH  13  14
ATOM     14  C   LIG    1       27.633   4.341  19.512  0.00  0.00    +0.313 C 
ATOM     15  O   LIG    1       28.393   4.922  18.750  0.00  0.00    -0.250 OA
BRANCH  14  16
ATOM     16  C   LIG    1       26.186   4.634  19.636  0.00  0.00    +0.111 C 
ATOM     17  C   LIG    1       25.198   3.903  20.530  0.00  0.00    -0.014 C 
ATOM     18  C   LIG    1       24.073   4.733  21.113  0.00  0.00    +0.012 C 
ATOM     19  C   LIG    1       25.652   2.809  21.463  0.00  0.00    +0.012 C 
ATOM     20  C   LIG    1       25.162   3.691  19.027  0.00  0.00    +0.032 C 
BRANCH  20  21
ATOM     21  C   LIG    1       25.608   2.442  18.390  0.00  0.00    -0.023 C 
ATOM     22  C   LIG    1       25.699   2.197  17.067  0.00  0.00    -0.079 C 
ATOM     23  C   LIG    1       26.178   0.867  16.550  0.00  0.00    +0.038 C 
ATOM     24  C   LIG    1       25.336   3.193  15.999  0.00  0.00    +0.038 C 
ENDBRANCH  20  21
ENDBRANCH  14  16
ENDBRANCH  13  14
ENDBRANCH   1  13
TORSDOF 5
ENDMDL
MODEL 8
REMARK VINA RESULT:      -7.2      1.754      6.869
REMARK  Name = 
REMARK                            x       y       z     vdW  Elec       q    Type
REMARK                         _______ _______ _______ _____ _____    ______ ____
ROOT
ATOM      1  C   LIG    1       26.693  -0.491  21.592  0.00  0.00    +0.352 C 
ENDROOT
BRANCH   1   4
ATOM      2  O   LIG    1       26.083   2.328  21.275  0.00  0.00    -0.270 OA
ATOM      3  C   LIG    1       26.208   1.563  20.335  0.00  0.00    +0.252 C 
ATOM      4  N   LIG    1       26.486   0.233  20.358  0.00  0.00    -0.200 N 
ATOM      5  C   LIG    1       26.535  -0.263  19.093  0.00  0.00    +0.252 C 
ATOM      6  O   LIG    1       26.752  -1.392  18.691  0.00  0.00    -0.270 OA
ATOM      7  C   LIG    1       26.266   0.860  18.191  0.00  0.00    +0.023 C 
ATOM      8  C   LIG    1       26.223   0.779  16.723  0.00  0.00    +0.041 C 
ATOM      9  C   LIG    1       25.991   2.128  16.030  0.00  0.00    +0.005 C 
ATOM     10  C   LIG    1       25.649   3.366  16.882  0.00  0.00    +0.005 C 
ATOM     11  C   LIG    1       25.785   3.297  18.411  0.00  0.00    +0.041 C 
ATOM     12  C   LIG    1       26.075   1.949  18.927  0.00  0.00    +0.023 C 
ENDBRANCH   1   4
BRANCH   1  13
ATOM     13  O   LIG    1       27.762   0.090  22.320  0.00  0.00    -0.444 OA
BRANCH  13  14
ATOM     14  C   LIG    1       28.475  -0.766  23.083  0.00  0.00    +0.313 C 
ATOM     15  O   LIG    1       28.365  -0.911  24.292  0.00  0.00    -0.250 OA
BRANCH  14  16
ATOM     16  C   LIG    1       29.385  -1.558  22.224  0.00  0.00    +0.111 C 
ATOM     17  C   LIG    1       30.805  -1.976  22.569  0.00  0.00    -0.014 C 
ATOM     18  C   LIG    1       31.265  -3.314  22.029  0.00  0.00    +0.012 C 
ATOM     19  C   LIG    1       31.405  -1.660  23.916  0.00  0.00    +0.012 C 
ATOM     20  C   LIG    1       30.564  -0.887  21.539  0.00  0.00    +0.032 C 
BRANCH  20  21
ATOM     21  C   LIG    1       30.850   0.533  21.803  0.00  0.00    -0.023 C 
ATOM     22  C   LIG    1       30.463   1.587  21.057  0.00  0.00    -0.079 C 
ATOM     23  C   LIG    1       30.824   2.995  21.448  0.00  0.00    +0.038 C 
ATOM     24  C   LIG    1       29.662   1.472  19.789  0.00  0.00    +0.038 C 
ENDBRANCH  20  21
ENDBRANCH  14  16
ENDBRANCH  13  14
ENDBRANCH   1  13
TORSDOF 5
ENDMDL
MODEL 9
REMARK VINA RESULT:      -7.2      1.664      3.052
REMARK  Name = 
REMARK                            x       y       z     vdW  Elec       q    Type
REMARK                         _______ _______ _______ _____ _____    ______ ____
ROOT
ATOM      1  C   LIG    1       26.693   1.252  20.340  0.00  0.00    +0.352 C 
ENDROOT
BRANCH   1   4
ATOM      2  O   LIG    1       29.477   2.026  20.090  0.00  0.00    -0.270 OA
ATOM      3  C   LIG    1       29.088   1.183  20.878  0.00  0.00    +0.252 C 
ATOM      4  N   LIG    1       27.822   0.736  21.082  0.00  0.00    -0.200 N 
ATOM      5  C   LIG    1       27.804  -0.220  22.049  0.00  0.00    +0.252 C 
ATOM      6  O   LIG    1       26.881  -0.861  22.516  0.00  0.00    -0.270 OA
ATOM      7  C   LIG    1       29.189  -0.387  22.496  0.00  0.00    +0.023 C 
ATOM      8  C   LIG    1       29.638  -1.323  23.539  0.00  0.00    +0.041 C 
ATOM      9  C   LIG    1       31.137  -1.234  23.854  0.00  0.00    +0.005 C 
ATOM     10  C   LIG    1       32.044  -0.356  22.971  0.00  0.00    +0.005 C 
ATOM     11  C   LIG    1       31.412   0.604  21.951  0.00  0.00    +0.041 C 
ATOM     12  C   LIG    1       29.956   0.448  21.804  0.00  0.00    +0.023 C 
ENDBRANCH   1   4
BRANCH   1  13
ATOM     13  O   LIG    1       26.516   0.507  19.147  0.00  0.00    -0.444 OA
BRANCH  13  14
ATOM     14  C   LIG    1       26.110   1.219  18.075  0.00  0.00    +0.313 C 
ATOM     15  O   LIG    1       25.308   0.847  17.229  0.00  0.00    -0.250 OA
BRANCH  14  16
ATOM     16  C   LIG    1       26.740   2.559  18.099  0.00  0.00    +0.111 C 
ATOM     17  C   LIG    1       26.231   3.774  18.857  0.00  0.00    -0.014 C 
ATOM     18  C   LIG    1       27.282   4.720  19.400  0.00  0.00    +0.012 C 
ATOM     19  C   LIG    1       25.017   3.686  19.748  0.00  0.00    +0.012 C 
ATOM     20  C   LIG    1       26.104   3.715  17.345  0.00  0.00    +0.032 C 
BRANCH  20  21
ATOM     21  C   LIG    1       24.814   3.520  16.664  0.00  0.00    -0.023 C 
ATOM     22  C   LIG    1       24.548   3.737  15.360  0.00  0.00    -0.079 C 
ATOM     23  C   LIG    1       23.176   3.491  14.790  0.00  0.00    +0.038 C 
ATOM     24  C   LIG    1       25.559   4.241  14.366  0.00  0.00    +0.038 C 
ENDBRANCH  20  21
ENDBRANCH  14  16
ENDBRANCH  13  14
ENDBRANCH   1  13
TORSDOF 5
ENDMDL
