MODEL 1
REMARK VINA RESULT:      -9.4      0.000      0.000
REMARK  Name = 
REMARK                            x       y       z     vdW  Elec       q    Type
REMARK                         _______ _______ _______ _____ _____    ______ ____
ROOT
ATOM      1  C   LIG    1        2.765  20.060  28.486  0.00  0.00    +0.352 C 
ENDROOT
BRANCH   1   4
ATOM      2  O   LIG    1        1.294  20.781  30.880  0.00  0.00    -0.270 OA
ATOM      3  C   LIG    1        1.832  19.699  30.730  0.00  0.00    +0.252 C 
ATOM      4  N   LIG    1        2.547  19.250  29.665  0.00  0.00    -0.200 N 
ATOM      5  C   LIG    1        2.990  17.985  29.888  0.00  0.00    +0.252 C 
ATOM      6  O   LIG    1        3.656  17.241  29.191  0.00  0.00    -0.270 OA
ATOM      7  C   LIG    1        2.507  17.600  31.217  0.00  0.00    +0.023 C 
ATOM      8  C   LIG    1        2.751  16.304  31.868  0.00  0.00    +0.041 C 
ATOM      9  C   LIG    1        2.062  16.150  33.230  0.00  0.00    +0.005 C 
ATOM     10  C   LIG    1        1.363  17.367  33.865  0.00  0.00    +0.005 C 
ATOM     11  C   LIG    1        1.148  18.641  33.032  0.00  0.00    +0.041 C 
ATOM     12  C   LIG    1        1.814  18.616  31.719  0.00  0.00    +0.023 C 
ENDBRANCH   1   4
BRANCH   1  13
ATOM     13  O   LIG    1        4.088  20.566  28.485  0.00  0.00    -0.444 OA
BRANCH  13  14
ATOM     14  C   LIG    1        4.914  20.027  27.562  0.00  0.00    +0.313 C 
ATOM     15  O   LIG    1        4.739  20.035  26.351  0.00  0.00    -0.250 OA
BRANCH  14  16
ATOM     16  C   LIG    1        6.109  19.465  28.231  0.00  0.00    +0.111 C 
ATOM     17  C   LIG    1        6.765  20.003  29.493  0.00  0.00    -0.014 C 
ATOM     18  C   LIG    1        7.392  18.979  30.417  0.00  0.00    +0.012 C 
ATOM     19  C   LIG    1        6.175  21.171  30.241  0.00  0.00    +0.012 C 
ATOM     20  C   LIG    1        7.442  20.191  28.147  0.00  0.00    +0.032 C 
BRANCH  20  21
ATOM     21  C   LIG    1        7.521  21.496  27.473  0.00  0.00    -0.023 C 
ATOM     22  C   LIG    1        7.961  21.734  26.221  0.00  0.00    -0.079 C 
ATOM     23  C   LIG    1        7.984  23.127  25.652  0.00  0.00    +0.038 C 
ATOM     24  C   LIG    1        8.470  20.667  25.290  0.00  0.00    +0.038 C 
ENDBRANCH  20  21
ENDBRANCH  14  16
ENDBRANCH  13  14
ENDBRANCH   1  13
TORSDOF 5
ENDMDL
MODEL 2
REMARK VINA RESULT:      -9.3      0.731      2.803
REMARK  Name = 
REMARK                            x       y       z     vdW  Elec       q    Type
REMARK                         _______ _______ _______ _____ _____    ______ ____
ROOT
ATOM      1  C   LIG    1        3.137  20.249  28.266  0.00  0.00    +0.352 C 
ENDROOT
BRANCH   1   4
ATOM      2  O   LIG    1        1.535  20.835  30.612  0.00  0.00    -0.270 OA
ATOM      3  C   LIG    1        2.097  19.769  30.439  0.00  0.00    +0.252 C 
ATOM      4  N   LIG    1        2.872  19.381  29.392  0.00  0.00    -0.200 N 
ATOM      5  C   LIG    1        3.322  18.112  29.578  0.00  0.00    +0.252 C 
ATOM      6  O   LIG    1        4.033  17.411  28.882  0.00  0.00    -0.270 OA
ATOM      7  C   LIG    1        2.776  17.658  30.860  0.00  0.00    +0.023 C 
ATOM      8  C   LIG    1        3.006  16.335  31.461  0.00  0.00    +0.041 C 
ATOM      9  C   LIG    1        2.251  16.108  32.777  0.00  0.00    +0.005 C 
ATOM     10  C   LIG    1        1.503  17.284  33.432  0.00  0.00    +0.005 C 
ATOM     11  C   LIG    1        1.312  18.593  32.649  0.00  0.00    +0.041 C 
ATOM     12  C   LIG    1        2.044  18.640  31.373  0.00  0.00    +0.023 C 
ENDBRANCH   1   4
BRANCH   1  13
ATOM     13  O   LIG    1        4.471  20.726  28.327  0.00  0.00    -0.444 OA
BRANCH  13  14
ATOM     14  C   LIG    1        5.206  20.532  27.211  0.00  0.00    +0.313 C 
ATOM     15  O   LIG    1        4.903  19.816  26.267  0.00  0.00    -0.250 OA
BRANCH  14  16
ATOM     16  C   LIG    1        6.426  21.370  27.269  0.00  0.00    +0.111 C 
ATOM     17  C   LIG    1        7.772  21.035  26.647  0.00  0.00    -0.014 C 
ATOM     18  C   LIG    1        8.587  22.203  26.132  0.00  0.00    +0.012 C 
ATOM     19  C   LIG    1        7.961  19.789  25.819  0.00  0.00    +0.012 C 
ATOM     20  C   LIG    1        7.592  20.959  28.153  0.00  0.00    +0.032 C 
BRANCH  20  21
ATOM     21  C   LIG    1        7.540  19.683  28.883  0.00  0.00    -0.023 C 
ATOM     22  C   LIG    1        7.101  19.490  30.144  0.00  0.00    -0.079 C 
ATOM     23  C   LIG    1        7.099  18.122  30.771  0.00  0.00    +0.038 C 
ATOM     24  C   LIG    1        6.590  20.590  31.035  0.00  0.00    +0.038 C 
ENDBRANCH  20  21
ENDBRANCH  14  16
ENDBRANCH  13  14
ENDBRANCH   1  13
TORSDOF 5
ENDMDL
MODEL 3
REMARK VINA RESULT:      -9.3      0.724      3.335
REMARK  Name = 
REMARK                            x       y       z     vdW  Elec       q    Type
REMARK                         _______ _______ _______ _____ _____    ______ ____
ROOT
ATOM      1  C   LIG    1        3.126  20.284  28.261  0.00  0.00    +0.352 C 
ENDROOT
BRANCH   1   4
ATOM      2  O   LIG    1        3.982  17.572  28.831  0.00  0.00    -0.270 OA
ATOM      3  C   LIG    1        3.270  18.217  29.579  0.00  0.00    +0.252 C 
ATOM      4  N   LIG    1        2.803  19.483  29.421  0.00  0.00    -0.200 N 
ATOM      5  C   LIG    1        2.031  19.841  30.480  0.00  0.00    +0.252 C 
ATOM      6  O   LIG    1        1.435  20.876  30.716  0.00  0.00    -0.270 OA
ATOM      7  C   LIG    1        2.012  18.694  31.392  0.00  0.00    +0.023 C 
ATOM      8  C   LIG    1        1.296  18.639  32.676  0.00  0.00    +0.041 C 
ATOM      9  C   LIG    1        1.513  17.337  33.457  0.00  0.00    +0.005 C 
ATOM     10  C   LIG    1        2.268  16.172  32.788  0.00  0.00    +0.005 C 
ATOM     11  C   LIG    1        3.003  16.406  31.460  0.00  0.00    +0.041 C 
ATOM     12  C   LIG    1        2.752  17.727  30.861  0.00  0.00    +0.023 C 
ENDBRANCH   1   4
BRANCH   1  13
ATOM     13  O   LIG    1        4.473  20.720  28.334  0.00  0.00    -0.444 OA
BRANCH  13  14
ATOM     14  C   LIG    1        5.206  20.523  27.217  0.00  0.00    +0.313 C 
ATOM     15  O   LIG    1        4.902  19.802  26.278  0.00  0.00    -0.250 OA
BRANCH  14  16
ATOM     16  C   LIG    1        6.424  21.365  27.267  0.00  0.00    +0.111 C 
ATOM     17  C   LIG    1        7.768  21.032  26.641  0.00  0.00    -0.014 C 
ATOM     18  C   LIG    1        8.578  22.201  26.119  0.00  0.00    +0.012 C 
ATOM     19  C   LIG    1        7.957  19.784  25.816  0.00  0.00    +0.012 C 
ATOM     20  C   LIG    1        7.594  20.960  28.148  0.00  0.00    +0.032 C 
BRANCH  20  21
ATOM     21  C   LIG    1        7.549  19.686  28.883  0.00  0.00    -0.023 C 
ATOM     22  C   LIG    1        7.076  19.488  30.130  0.00  0.00    -0.079 C 
ATOM     23  C   LIG    1        7.086  18.123  30.763  0.00  0.00    +0.038 C 
ATOM     24  C   LIG    1        6.513  20.580  31.000  0.00  0.00    +0.038 C 
ENDBRANCH  20  21
ENDBRANCH  14  16
ENDBRANCH  13  14
ENDBRANCH   1  13
TORSDOF 5
ENDMDL
MODEL 4
REMARK VINA RESULT:      -9.3      0.064      1.814
REMARK  Name = 
REMARK                            x       y       z     vdW  Elec       q    Type
REMARK                         _______ _______ _______ _____ _____    ______ ____
ROOT
ATOM      1  C   LIG    1        2.779  19.939  28.389  0.00  0.00    +0.352 C 
ENDROOT
BRANCH   1   4
ATOM      2  O   LIG    1        3.579  17.241  29.096  0.00  0.00    -0.270 OA
ATOM      3  C   LIG    1        2.943  17.964  29.841  0.00  0.00    +0.252 C 
ATOM      4  N   LIG    1        2.510  19.233  29.622  0.00  0.00    -0.200 N 
ATOM      5  C   LIG    1        1.825  19.695  30.702  0.00  0.00    +0.252 C 
ATOM      6  O   LIG    1        1.283  20.767  30.901  0.00  0.00    -0.270 OA
ATOM      7  C   LIG    1        1.830  18.616  31.693  0.00  0.00    +0.023 C 
ATOM      8  C   LIG    1        1.202  18.680  33.022  0.00  0.00    +0.041 C 
ATOM      9  C   LIG    1        1.427  17.428  33.880  0.00  0.00    +0.005 C 
ATOM     10  C   LIG    1        2.094  16.190  33.250  0.00  0.00    +0.005 C 
ATOM     11  C   LIG    1        2.744  16.301  31.861  0.00  0.00    +0.041 C 
ATOM     12  C   LIG    1        2.498  17.586  31.186  0.00  0.00    +0.023 C 
ENDBRANCH   1   4
BRANCH   1  13
ATOM     13  O   LIG    1        4.076  20.509  28.431  0.00  0.00    -0.444 OA
BRANCH  13  14
ATOM     14  C   LIG    1        4.953  20.022  27.527  0.00  0.00    +0.313 C 
ATOM     15  O   LIG    1        4.823  20.058  26.311  0.00  0.00    -0.250 OA
BRANCH  14  16
ATOM     16  C   LIG    1        6.141  19.482  28.227  0.00  0.00    +0.111 C 
ATOM     17  C   LIG    1        6.763  20.040  29.496  0.00  0.00    -0.014 C 
ATOM     18  C   LIG    1        7.383  19.033  30.443  0.00  0.00    +0.012 C 
ATOM     19  C   LIG    1        6.144  21.209  30.220  0.00  0.00    +0.012 C 
ATOM     20  C   LIG    1        7.466  20.223  28.163  0.00  0.00    +0.032 C 
BRANCH  20  21
ATOM     21  C   LIG    1        7.543  21.523  27.477  0.00  0.00    -0.023 C 
ATOM     22  C   LIG    1        7.973  21.749  26.219  0.00  0.00    -0.079 C 
ATOM     23  C   LIG    1        7.995  23.137  25.639  0.00  0.00    +0.038 C 
ATOM     24  C   LIG    1        8.470  20.672  25.293  0.00  0.00    +0.038 C 
ENDBRANCH  20  21
ENDBRANCH  14  16
ENDBRANCH  13  14
ENDBRANCH   1  13
TORSDOF 5
ENDMDL
MODEL 5
REMARK VINA RESULT:      -8.6      1.524      6.359
REMARK  Name = 
REMARK                            x       y       z     vdW  Elec       q    Type
REMARK                         _______ _______ _______ _____ _____    ______ ____
ROOT
ATOM      1  C   LIG    1        2.796  20.476  29.717  0.00  0.00    +0.352 C 
ENDROOT
BRANCH   1   4
ATOM      2  O   LIG    1        3.236  19.346  27.081  0.00  0.00    -0.270 OA
ATOM      3  C   LIG    1        4.109  19.902  27.722  0.00  0.00    +0.252 C 
ATOM      4  N   LIG    1        4.027  20.462  28.957  0.00  0.00    -0.200 N 
ATOM      5  C   LIG    1        5.229  20.976  29.328  0.00  0.00    +0.252 C 
ATOM      6  O   LIG    1        5.568  21.551  30.346  0.00  0.00    -0.270 OA
ATOM      7  C   LIG    1        6.154  20.719  28.221  0.00  0.00    +0.023 C 
ATOM      8  C   LIG    1        7.572  21.109  28.190  0.00  0.00    +0.041 C 
ATOM      9  C   LIG    1        8.282  20.775  26.872  0.00  0.00    +0.005 C 
ATOM     10  C   LIG    1        7.549  19.931  25.811  0.00  0.00    +0.005 C 
ATOM     11  C   LIG    1        6.048  19.646  25.972  0.00  0.00    +0.041 C 
ATOM     12  C   LIG    1        5.490  20.083  27.262  0.00  0.00    +0.023 C 
ENDBRANCH   1   4
BRANCH   1  13
ATOM     13  O   LIG    1        2.418  19.151  30.050  0.00  0.00    -0.444 OA
BRANCH  13  14
ATOM     14  C   LIG    1        1.905  18.990  31.289  0.00  0.00    +0.313 C 
ATOM     15  O   LIG    1        1.511  19.884  32.024  0.00  0.00    -0.250 OA
BRANCH  14  16
ATOM     16  C   LIG    1        1.833  17.546  31.613  0.00  0.00    +0.111 C 
ATOM     17  C   LIG    1        2.101  16.920  32.972  0.00  0.00    -0.014 C 
ATOM     18  C   LIG    1        1.284  15.693  33.322  0.00  0.00    +0.012 C 
ATOM     19  C   LIG    1        2.408  17.772  34.177  0.00  0.00    +0.012 C 
ATOM     20  C   LIG    1        3.108  16.753  31.848  0.00  0.00    +0.032 C 
BRANCH  20  21
ATOM     21  C   LIG    1        4.409  17.442  31.839  0.00  0.00    -0.023 C 
ATOM     22  C   LIG    1        5.259  17.550  30.798  0.00  0.00    -0.079 C 
ATOM     23  C   LIG    1        6.562  18.291  30.926  0.00  0.00    +0.038 C 
ATOM     24  C   LIG    1        5.008  16.950  29.440  0.00  0.00    +0.038 C 
ENDBRANCH  20  21
ENDBRANCH  14  16
ENDBRANCH  13  14
ENDBRANCH   1  13
TORSDOF 5
ENDMDL
MODEL 6
REMARK VINA RESULT:      -7.8      1.553      7.067
REMARK  Name = 
REMARK                            x       y       z     vdW  Elec       q    Type
REMARK                         _______ _______ _______ _____ _____    ______ ____
ROOT
ATOM      1  C   LIG    1        2.889  20.541  29.057  0.00  0.00    +0.352 C 
ENDROOT
BRANCH   1   4
ATOM      2  O   LIG    1        3.608  19.629  26.399  0.00  0.00    -0.270 OA
ATOM      3  C   LIG    1        4.411  20.111  27.177  0.00  0.00    +0.252 C 
ATOM      4  N   LIG    1        4.197  20.566  28.439  0.00  0.00    -0.200 N 
ATOM      5  C   LIG    1        5.356  21.024  28.983  0.00  0.00    +0.252 C 
ATOM      6  O   LIG    1        5.585  21.504  30.078  0.00  0.00    -0.270 OA
ATOM      7  C   LIG    1        6.395  20.842  27.966  0.00  0.00    +0.023 C 
ATOM      8  C   LIG    1        7.812  21.205  28.125  0.00  0.00    +0.041 C 
ATOM      9  C   LIG    1        8.661  20.970  26.870  0.00  0.00    +0.005 C 
ATOM     10  C   LIG    1        8.042  20.233  25.666  0.00  0.00    +0.005 C 
ATOM     11  C   LIG    1        6.530  19.965  25.635  0.00  0.00    +0.041 C 
ATOM     12  C   LIG    1        5.836  20.303  26.889  0.00  0.00    +0.023 C 
ENDBRANCH   1   4
BRANCH   1  13
ATOM     13  O   LIG    1        2.504  19.202  29.318  0.00  0.00    -0.444 OA
BRANCH  13  14
ATOM     14  C   LIG    1        2.267  18.910  30.615  0.00  0.00    +0.313 C 
ATOM     15  O   LIG    1        1.168  18.716  31.117  0.00  0.00    -0.250 OA
BRANCH  14  16
ATOM     16  C   LIG    1        3.551  18.801  31.343  0.00  0.00    +0.111 C 
ATOM     17  C   LIG    1        4.670  17.817  31.042  0.00  0.00    -0.014 C 
ATOM     18  C   LIG    1        6.083  18.304  31.292  0.00  0.00    +0.012 C 
ATOM     19  C   LIG    1        4.583  16.871  29.871  0.00  0.00    +0.012 C 
ATOM     20  C   LIG    1        3.802  17.626  32.274  0.00  0.00    +0.032 C 
BRANCH  20  21
ATOM     21  C   LIG    1        2.801  16.553  32.381  0.00  0.00    -0.023 C 
ATOM     22  C   LIG    1        2.004  16.294  33.438  0.00  0.00    -0.079 C 
ATOM     23  C   LIG    1        1.015  15.160  33.411  0.00  0.00    +0.038 C 
ATOM     24  C   LIG    1        2.024  17.081  34.720  0.00  0.00    +0.038 C 
ENDBRANCH  20  21
ENDBRANCH  14  16
ENDBRANCH  13  14
ENDBRANCH   1  13
TORSDOF 5
ENDMDL
MODEL 7
REMARK VINA RESULT:      -7.6      1.633      2.472
REMARK  Name = 
REMARK                            x       y       z     vdW  Elec       q    Type
REMARK                         _______ _______ _______ _____ _____    ______ ____
ROOT
ATOM      1  C   LIG    1        5.102  18.327  29.208  0.00  0.00    +0.352 C 
ENDROOT
BRANCH   1   4
ATOM      2  O   LIG    1        3.099  20.167  30.215  0.00  0.00    -0.270 OA
ATOM      3  C   LIG    1        3.215  19.023  30.617  0.00  0.00    +0.252 C 
ATOM      4  N   LIG    1        4.109  18.077  30.229  0.00  0.00    -0.200 N 
ATOM      5  C   LIG    1        3.916  16.926  30.925  0.00  0.00    +0.252 C 
ATOM      6  O   LIG    1        4.500  15.859  30.875  0.00  0.00    -0.270 OA
ATOM      7  C   LIG    1        2.792  17.169  31.833  0.00  0.00    +0.023 C 
ATOM      8  C   LIG    1        2.235  16.189  32.778  0.00  0.00    +0.041 C 
ATOM      9  C   LIG    1        1.012  16.695  33.554  0.00  0.00    +0.005 C 
ATOM     10  C   LIG    1        0.599  18.175  33.432  0.00  0.00    +0.005 C 
ATOM     11  C   LIG    1        1.252  19.060  32.359  0.00  0.00    +0.041 C 
ATOM     12  C   LIG    1        2.370  18.416  31.650  0.00  0.00    +0.023 C 
ENDBRANCH   1   4
BRANCH   1  13
ATOM     13  O   LIG    1        6.268  18.882  29.792  0.00  0.00    -0.444 OA
BRANCH  13  14
ATOM     14  C   LIG    1        6.833  19.898  29.105  0.00  0.00    +0.313 C 
ATOM     15  O   LIG    1        8.028  20.154  29.057  0.00  0.00    -0.250 OA
BRANCH  14  16
ATOM     16  C   LIG    1        5.788  20.637  28.360  0.00  0.00    +0.111 C 
ATOM     17  C   LIG    1        5.182  20.229  27.027  0.00  0.00    -0.014 C 
ATOM     18  C   LIG    1        3.724  20.581  26.812  0.00  0.00    +0.012 C 
ATOM     19  C   LIG    1        5.569  18.935  26.357  0.00  0.00    +0.012 C 
ATOM     20  C   LIG    1        6.148  21.399  27.096  0.00  0.00    +0.032 C 
BRANCH  20  21
ATOM     21  C   LIG    1        7.519  21.329  26.567  0.00  0.00    -0.023 C 
ATOM     22  C   LIG    1        8.232  22.342  26.032  0.00  0.00    -0.079 C 
ATOM     23  C   LIG    1        9.634  22.131  25.530  0.00  0.00    +0.038 C 
ATOM     24  C   LIG    1        7.713  23.746  25.876  0.00  0.00    +0.038 C 
ENDBRANCH  20  21
ENDBRANCH  14  16
ENDBRANCH  13  14
ENDBRANCH   1  13
TORSDOF 5
ENDMDL
MODEL 8
REMARK VINA RESULT:      -7.4      1.772      7.336
REMARK  Name = 
REMARK                            x       y       z     vdW  Elec       q    Type
REMARK                         _______ _______ _______ _____ _____    ______ ____
ROOT
ATOM      1  C   LIG    1        2.553  18.214  30.090  0.00  0.00    +0.352 C 
ENDROOT
BRANCH   1   4
ATOM      2  O   LIG    1        3.282  19.545  27.617  0.00  0.00    -0.270 OA
ATOM      3  C   LIG    1        4.067  19.358  28.529  0.00  0.00    +0.252 C 
ATOM      4  N   LIG    1        3.846  18.748  29.723  0.00  0.00    -0.200 N 
ATOM      5  C   LIG    1        4.985  18.733  30.466  0.00  0.00    +0.252 C 
ATOM      6  O   LIG    1        5.202  18.285  31.577  0.00  0.00    -0.270 OA
ATOM      7  C   LIG    1        6.016  19.398  29.666  0.00  0.00    +0.023 C 
ATOM      8  C   LIG    1        7.411  19.609  30.083  0.00  0.00    +0.041 C 
ATOM      9  C   LIG    1        8.252  20.399  29.073  0.00  0.00    +0.005 C 
ATOM     10  C   LIG    1        7.659  20.729  27.689  0.00  0.00    +0.005 C 
ATOM     11  C   LIG    1        6.164  20.485  27.426  0.00  0.00    +0.041 C 
ATOM     12  C   LIG    1        5.473  19.774  28.514  0.00  0.00    +0.023 C 
ENDBRANCH   1   4
BRANCH   1  13
ATOM     13  O   LIG    1        1.963  19.023  31.093  0.00  0.00    -0.444 OA
BRANCH  13  14
ATOM     14  C   LIG    1        1.370  18.351  32.103  0.00  0.00    +0.313 C 
ATOM     15  O   LIG    1        0.345  18.686  32.681  0.00  0.00    -0.250 OA
BRANCH  14  16
ATOM     16  C   LIG    1        2.116  17.102  32.377  0.00  0.00    +0.111 C 
ATOM     17  C   LIG    1        1.518  15.784  32.840  0.00  0.00    -0.014 C 
ATOM     18  C   LIG    1        2.194  14.524  32.342  0.00  0.00    +0.012 C 
ATOM     19  C   LIG    1        0.027  15.617  32.997  0.00  0.00    +0.012 C 
ATOM     20  C   LIG    1        2.321  16.635  33.809  0.00  0.00    +0.032 C 
BRANCH  20  21
ATOM     21  C   LIG    1        1.699  17.379  34.916  0.00  0.00    -0.023 C 
ATOM     22  C   LIG    1        2.155  18.514  35.483  0.00  0.00    -0.079 C 
ATOM     23  C   LIG    1        1.413  19.176  36.612  0.00  0.00    +0.038 C 
ATOM     24  C   LIG    1        3.422  19.213  35.068  0.00  0.00    +0.038 C 
ENDBRANCH  20  21
ENDBRANCH  14  16
ENDBRANCH  13  14
ENDBRANCH   1  13
TORSDOF 5
ENDMDL
MODEL 9
REMARK VINA RESULT:      -7.4      1.481      2.800
REMARK  Name = 
REMARK                            x       y       z     vdW  Elec       q    Type
REMARK                         _______ _______ _______ _____ _____    ______ ____
ROOT
ATOM      1  C   LIG    1        3.599  19.247  29.508  0.00  0.00    +0.352 C 
ENDROOT
BRANCH   1   4
ATOM      2  O   LIG    1        1.685  20.318  31.406  0.00  0.00    -0.270 OA
ATOM      3  C   LIG    1        2.121  19.183  31.469  0.00  0.00    +0.252 C 
ATOM      4  N   LIG    1        3.017  18.574  30.648  0.00  0.00    -0.200 N 
ATOM      5  C   LIG    1        3.250  17.301  31.061  0.00  0.00    +0.252 C 
ATOM      6  O   LIG    1        3.978  16.438  30.603  0.00  0.00    -0.270 OA
ATOM      7  C   LIG    1        2.422  17.087  32.250  0.00  0.00    +0.023 C 
ATOM      8  C   LIG    1        2.357  15.840  33.028  0.00  0.00    +0.041 C 
ATOM      9  C   LIG    1        1.349  15.877  34.184  0.00  0.00    +0.005 C 
ATOM     10  C   LIG    1        0.657  17.207  34.541  0.00  0.00    +0.005 C 
ATOM     11  C   LIG    1        0.791  18.411  33.595  0.00  0.00    +0.041 C 
ATOM     12  C   LIG    1        1.746  18.204  32.494  0.00  0.00    +0.023 C 
ENDBRANCH   1   4
BRANCH   1  13
ATOM     13  O   LIG    1        5.010  19.106  29.533  0.00  0.00    -0.444 OA
BRANCH  13  14
ATOM     14  C   LIG    1        5.709  20.235  29.288  0.00  0.00    +0.313 C 
ATOM     15  O   LIG    1        5.527  21.321  29.821  0.00  0.00    -0.250 OA
BRANCH  14  16
ATOM     16  C   LIG    1        6.781  19.953  28.306  0.00  0.00    +0.111 C 
ATOM     17  C   LIG    1        7.230  20.872  27.181  0.00  0.00    -0.014 C 
ATOM     18  C   LIG    1        8.700  20.829  26.821  0.00  0.00    +0.012 C 
ATOM     19  C   LIG    1        6.633  22.246  27.011  0.00  0.00    +0.012 C 
ATOM     20  C   LIG    1        6.429  19.621  26.866  0.00  0.00    +0.032 C 
BRANCH  20  21
ATOM     21  C   LIG    1        5.024  19.666  26.429  0.00  0.00    -0.023 C 
ATOM     22  C   LIG    1        4.190  18.617  26.279  0.00  0.00    -0.079 C 
ATOM     23  C   LIG    1        2.768  18.808  25.827  0.00  0.00    +0.038 C 
ATOM     24  C   LIG    1        4.583  17.186  26.532  0.00  0.00    +0.038 C 
ENDBRANCH  20  21
ENDBRANCH  14  16
ENDBRANCH  13  14
ENDBRANCH   1  13
TORSDOF 5
ENDMDL
