MODEL 1
REMARK VINA RESULT:      -9.6      0.000      0.000
REMARK  Name = 
REMARK                            x       y       z     vdW  Elec       q    Type
REMARK                         _______ _______ _______ _____ _____    ______ ____
ROOT
ATOM      1  C   LIG    1       21.442 -16.934  18.045  0.00  0.00    +0.352 C 
ENDROOT
BRANCH   1   4
ATOM      2  O   LIG    1       20.095 -14.494  17.240  0.00  0.00    -0.270 OA
ATOM      3  C   LIG    1       19.542 -15.390  17.851  0.00  0.00    +0.252 C 
ATOM      4  N   LIG    1       20.064 -16.567  18.284  0.00  0.00    -0.200 N 
ATOM      5  C   LIG    1       19.119 -17.295  18.936  0.00  0.00    +0.252 C 
ATOM      6  O   LIG    1       19.185 -18.389  19.467  0.00  0.00    -0.270 OA
ATOM      7  C   LIG    1       17.887 -16.503  18.909  0.00  0.00    +0.023 C 
ATOM      8  C   LIG    1       16.602 -16.909  19.500  0.00  0.00    +0.041 C 
ATOM      9  C   LIG    1       15.461 -15.912  19.258  0.00  0.00    +0.005 C 
ATOM     10  C   LIG    1       15.774 -14.547  18.614  0.00  0.00    +0.005 C 
ATOM     11  C   LIG    1       17.161 -14.296  18.003  0.00  0.00    +0.041 C 
ATOM     12  C   LIG    1       18.134 -15.370  18.261  0.00  0.00    +0.023 C 
ENDBRANCH   1   4
BRANCH   1  13
ATOM     13  O   LIG    1       22.270 -16.389  19.058  0.00  0.00    -0.444 OA
BRANCH  13  14
ATOM     14  C   LIG    1       23.373 -15.746  18.621  0.00  0.00    +0.313 C 
ATOM     15  O   LIG    1       23.395 -14.826  17.815  0.00  0.00    -0.250 OA
BRANCH  14  16
ATOM     16  C   LIG    1       24.569 -16.283  19.312  0.00  0.00    +0.111 C 
ATOM     17  C   LIG    1       26.014 -16.082  18.887  0.00  0.00    -0.014 C 
ATOM     18  C   LIG    1       27.038 -15.991  19.999  0.00  0.00    +0.012 C 
ATOM     19  C   LIG    1       26.366 -15.214  17.705  0.00  0.00    +0.012 C 
ATOM     20  C   LIG    1       25.349 -17.434  18.700  0.00  0.00    +0.032 C 
BRANCH  20  21
ATOM     21  C   LIG    1       24.967 -17.955  17.378  0.00  0.00    -0.023 C 
ATOM     22  C   LIG    1       24.187 -19.027  17.127  0.00  0.00    -0.079 C 
ATOM     23  C   LIG    1       23.870 -19.449  15.717  0.00  0.00    +0.038 C 
ATOM     24  C   LIG    1       23.577 -19.894  18.195  0.00  0.00    +0.038 C 
ENDBRANCH  20  21
ENDBRANCH  14  16
ENDBRANCH  13  14
ENDBRANCH   1  13
TORSDOF 5
ENDMDL
MODEL 2
REMARK VINA RESULT:      -9.6      0.063      1.815
REMARK  Name = 
REMARK                            x       y       z     vdW  Elec       q    Type
REMARK                         _______ _______ _______ _____ _____    ______ ____
ROOT
ATOM      1  C   LIG    1       21.439 -17.005  18.223  0.00  0.00    +0.352 C 
ENDROOT
BRANCH   1   4
ATOM      2  O   LIG    1       19.232 -18.390  19.497  0.00  0.00    -0.270 OA
ATOM      3  C   LIG    1       19.118 -17.298  18.971  0.00  0.00    +0.252 C 
ATOM      4  N   LIG    1       20.069 -16.558  18.343  0.00  0.00    -0.200 N 
ATOM      5  C   LIG    1       19.539 -15.395  17.881  0.00  0.00    +0.252 C 
ATOM      6  O   LIG    1       20.053 -14.474  17.273  0.00  0.00    -0.270 OA
ATOM      7  C   LIG    1       18.123 -15.403  18.256  0.00  0.00    +0.023 C 
ATOM      8  C   LIG    1       17.159 -14.332  17.958  0.00  0.00    +0.041 C 
ATOM      9  C   LIG    1       15.758 -14.575  18.534  0.00  0.00    +0.005 C 
ATOM     10  C   LIG    1       15.432 -15.935  19.181  0.00  0.00    +0.005 C 
ATOM     11  C   LIG    1       16.567 -16.932  19.465  0.00  0.00    +0.041 C 
ATOM     12  C   LIG    1       17.869 -16.532  18.907  0.00  0.00    +0.023 C 
ENDBRANCH   1   4
BRANCH   1  13
ATOM     13  O   LIG    1       22.256 -16.317  19.155  0.00  0.00    -0.444 OA
BRANCH  13  14
ATOM     14  C   LIG    1       23.365 -15.743  18.640  0.00  0.00    +0.313 C 
ATOM     15  O   LIG    1       23.388 -14.872  17.781  0.00  0.00    -0.250 OA
BRANCH  14  16
ATOM     16  C   LIG    1       24.566 -16.286  19.315  0.00  0.00    +0.111 C 
ATOM     17  C   LIG    1       26.007 -16.082  18.879  0.00  0.00    -0.014 C 
ATOM     18  C   LIG    1       27.041 -16.000  19.983  0.00  0.00    +0.012 C 
ATOM     19  C   LIG    1       26.349 -15.205  17.701  0.00  0.00    +0.012 C 
ATOM     20  C   LIG    1       25.341 -17.433  18.688  0.00  0.00    +0.032 C 
BRANCH  20  21
ATOM     21  C   LIG    1       24.946 -17.943  17.365  0.00  0.00    -0.023 C 
ATOM     22  C   LIG    1       24.179 -19.023  17.111  0.00  0.00    -0.079 C 
ATOM     23  C   LIG    1       23.848 -19.433  15.702  0.00  0.00    +0.038 C 
ATOM     24  C   LIG    1       23.600 -19.913  18.177  0.00  0.00    +0.038 C 
ENDBRANCH  20  21
ENDBRANCH  14  16
ENDBRANCH  13  14
ENDBRANCH   1  13
TORSDOF 5
ENDMDL
MODEL 3
REMARK VINA RESULT:      -9.5      1.201      2.734
REMARK  Name = 
REMARK                            x       y       z     vdW  Elec       q    Type
REMARK                         _______ _______ _______ _____ _____    ______ ____
ROOT
ATOM      1  C   LIG    1       21.079 -16.964  18.626  0.00  0.00    +0.352 C 
ENDROOT
BRANCH   1   4
ATOM      2  O   LIG    1       19.727 -14.522  17.835  0.00  0.00    -0.270 OA
ATOM      3  C   LIG    1       19.137 -15.515  18.220  0.00  0.00    +0.252 C 
ATOM      4  N   LIG    1       19.656 -16.706  18.619  0.00  0.00    -0.200 N 
ATOM      5  C   LIG    1       18.663 -17.559  18.984  0.00  0.00    +0.252 C 
ATOM      6  O   LIG    1       18.710 -18.705  19.395  0.00  0.00    -0.270 OA
ATOM      7  C   LIG    1       17.401 -16.839  18.794  0.00  0.00    +0.023 C 
ATOM      8  C   LIG    1       16.062 -17.385  19.064  0.00  0.00    +0.041 C 
ATOM      9  C   LIG    1       14.915 -16.431  18.705  0.00  0.00    +0.005 C 
ATOM     10  C   LIG    1       15.239 -14.982  18.291  0.00  0.00    +0.005 C 
ATOM     11  C   LIG    1       16.694 -14.581  18.004  0.00  0.00    +0.041 C 
ATOM     12  C   LIG    1       17.679 -15.624  18.336  0.00  0.00    +0.023 C 
ENDBRANCH   1   4
BRANCH   1  13
ATOM     13  O   LIG    1       21.525 -17.250  17.312  0.00  0.00    -0.444 OA
BRANCH  13  14
ATOM     14  C   LIG    1       22.569 -16.510  16.881  0.00  0.00    +0.313 C 
ATOM     15  O   LIG    1       22.594 -15.291  16.790  0.00  0.00    -0.250 OA
BRANCH  14  16
ATOM     16  C   LIG    1       23.717 -17.396  16.582  0.00  0.00    +0.111 C 
ATOM     17  C   LIG    1       24.658 -18.018  17.601  0.00  0.00    -0.014 C 
ATOM     18  C   LIG    1       25.204 -19.391  17.267  0.00  0.00    +0.012 C 
ATOM     19  C   LIG    1       24.441 -17.826  19.081  0.00  0.00    +0.012 C 
ATOM     20  C   LIG    1       25.138 -16.876  16.722  0.00  0.00    +0.032 C 
BRANCH  20  21
ATOM     21  C   LIG    1       25.371 -15.519  17.239  0.00  0.00    -0.023 C 
ATOM     22  C   LIG    1       26.471 -15.076  17.882  0.00  0.00    -0.079 C 
ATOM     23  C   LIG    1       26.579 -13.653  18.357  0.00  0.00    +0.038 C 
ATOM     24  C   LIG    1       27.668 -15.935  18.191  0.00  0.00    +0.038 C 
ENDBRANCH  20  21
ENDBRANCH  14  16
ENDBRANCH  13  14
ENDBRANCH   1  13
TORSDOF 5
ENDMDL
MODEL 4
REMARK VINA RESULT:      -9.4      1.168      3.275
REMARK  Name = 
REMARK                            x       y       z     vdW  Elec       q    Type
REMARK                         _______ _______ _______ _____ _____    ______ ____
ROOT
ATOM      1  C   LIG    1       21.064 -17.073  18.479  0.00  0.00    +0.352 C 
ENDROOT
BRANCH   1   4
ATOM      2  O   LIG    1       18.830 -18.661  19.430  0.00  0.00    -0.270 OA
ATOM      3  C   LIG    1       18.705 -17.535  18.985  0.00  0.00    +0.252 C 
ATOM      4  N   LIG    1       19.667 -16.701  18.509  0.00  0.00    -0.200 N 
ATOM      5  C   LIG    1       19.118 -15.529  18.095  0.00  0.00    +0.252 C 
ATOM      6  O   LIG    1       19.632 -14.537  17.612  0.00  0.00    -0.270 OA
ATOM      7  C   LIG    1       17.676 -15.633  18.337  0.00  0.00    +0.023 C 
ATOM      8  C   LIG    1       16.687 -14.586  18.039  0.00  0.00    +0.041 C 
ATOM      9  C   LIG    1       15.256 -14.941  18.463  0.00  0.00    +0.005 C 
ATOM     10  C   LIG    1       14.948 -16.364  18.967  0.00  0.00    +0.005 C 
ATOM     11  C   LIG    1       16.105 -17.329  19.272  0.00  0.00    +0.041 C 
ATOM     12  C   LIG    1       17.427 -16.824  18.870  0.00  0.00    +0.023 C 
ENDBRANCH   1   4
BRANCH   1  13
ATOM     13  O   LIG    1       21.514 -17.152  17.137  0.00  0.00    -0.444 OA
BRANCH  13  14
ATOM     14  C   LIG    1       22.608 -16.416  16.849  0.00  0.00    +0.313 C 
ATOM     15  O   LIG    1       22.677 -15.194  16.872  0.00  0.00    -0.250 OA
BRANCH  14  16
ATOM     16  C   LIG    1       23.748 -17.313  16.552  0.00  0.00    +0.111 C 
ATOM     17  C   LIG    1       24.672 -17.956  17.574  0.00  0.00    -0.014 C 
ATOM     18  C   LIG    1       25.204 -19.332  17.232  0.00  0.00    +0.012 C 
ATOM     19  C   LIG    1       24.443 -17.776  19.054  0.00  0.00    +0.012 C 
ATOM     20  C   LIG    1       25.174 -16.812  16.711  0.00  0.00    +0.032 C 
BRANCH  20  21
ATOM     21  C   LIG    1       25.419 -15.462  17.244  0.00  0.00    -0.023 C 
ATOM     22  C   LIG    1       26.498 -15.052  17.940  0.00  0.00    -0.079 C 
ATOM     23  C   LIG    1       26.622 -13.633  18.425  0.00  0.00    +0.038 C 
ATOM     24  C   LIG    1       27.655 -15.944  18.304  0.00  0.00    +0.038 C 
ENDBRANCH  20  21
ENDBRANCH  14  16
ENDBRANCH  13  14
ENDBRANCH   1  13
TORSDOF 5
ENDMDL
MODEL 5
REMARK VINA RESULT:      -9.4      1.364      3.693
REMARK  Name = 
REMARK                            x       y       z     vdW  Elec       q    Type
REMARK                         _______ _______ _______ _____ _____    ______ ____
ROOT
ATOM      1  C   LIG    1       22.014 -16.855  17.560  0.00  0.00    +0.352 C 
ENDROOT
BRANCH   1   4
ATOM      2  O   LIG    1       19.994 -18.382  18.976  0.00  0.00    -0.270 OA
ATOM      3  C   LIG    1       19.796 -17.266  18.533  0.00  0.00    +0.252 C 
ATOM      4  N   LIG    1       20.654 -16.460  17.855  0.00  0.00    -0.200 N 
ATOM      5  C   LIG    1       20.047 -15.289  17.525  0.00  0.00    +0.252 C 
ATOM      6  O   LIG    1       20.467 -14.317  16.924  0.00  0.00    -0.270 OA
ATOM      7  C   LIG    1       18.680 -15.364  18.049  0.00  0.00    +0.023 C 
ATOM      8  C   LIG    1       17.663 -14.309  17.923  0.00  0.00    +0.041 C 
ATOM      9  C   LIG    1       16.340 -14.631  18.630  0.00  0.00    +0.005 C 
ATOM     10  C   LIG    1       16.122 -16.036  19.223  0.00  0.00    +0.005 C 
ATOM     11  C   LIG    1       17.305 -17.011  19.321  0.00  0.00    +0.041 C 
ATOM     12  C   LIG    1       18.529 -16.537  18.652  0.00  0.00    +0.023 C 
ENDBRANCH   1   4
BRANCH   1  13
ATOM     13  O   LIG    1       22.873 -16.448  18.611  0.00  0.00    -0.444 OA
BRANCH  13  14
ATOM     14  C   LIG    1       23.579 -15.321  18.379  0.00  0.00    +0.313 C 
ATOM     15  O   LIG    1       23.388 -14.234  18.907  0.00  0.00    -0.250 OA
BRANCH  14  16
ATOM     16  C   LIG    1       24.672 -15.606  17.422  0.00  0.00    +0.111 C 
ATOM     17  C   LIG    1       25.723 -16.696  17.561  0.00  0.00    -0.014 C 
ATOM     18  C   LIG    1       26.208 -17.334  16.275  0.00  0.00    +0.012 C 
ATOM     19  C   LIG    1       25.689 -17.669  18.712  0.00  0.00    +0.012 C 
ATOM     20  C   LIG    1       26.106 -15.242  17.770  0.00  0.00    +0.032 C 
BRANCH  20  21
ATOM     21  C   LIG    1       26.415 -14.685  19.097  0.00  0.00    -0.023 C 
ATOM     22  C   LIG    1       26.701 -13.400  19.388  0.00  0.00    -0.079 C 
ATOM     23  C   LIG    1       26.997 -12.964  20.798  0.00  0.00    +0.038 C 
ATOM     24  C   LIG    1       26.763 -12.299  18.364  0.00  0.00    +0.038 C 
ENDBRANCH  20  21
ENDBRANCH  14  16
ENDBRANCH  13  14
ENDBRANCH   1  13
TORSDOF 5
ENDMDL
MODEL 6
REMARK VINA RESULT:      -9.3      1.401      3.061
REMARK  Name = 
REMARK                            x       y       z     vdW  Elec       q    Type
REMARK                         _______ _______ _______ _____ _____    ______ ____
ROOT
ATOM      1  C   LIG    1       21.866 -16.804  17.525  0.00  0.00    +0.352 C 
ENDROOT
BRANCH   1   4
ATOM      2  O   LIG    1       20.396 -14.362  16.990  0.00  0.00    -0.270 OA
ATOM      3  C   LIG    1       19.916 -15.312  17.580  0.00  0.00    +0.252 C 
ATOM      4  N   LIG    1       20.501 -16.498  17.892  0.00  0.00    -0.200 N 
ATOM      5  C   LIG    1       19.630 -17.296  18.564  0.00  0.00    +0.252 C 
ATOM      6  O   LIG    1       19.766 -18.420  19.014  0.00  0.00    -0.270 OA
ATOM      7  C   LIG    1       18.379 -16.543  18.684  0.00  0.00    +0.023 C 
ATOM      8  C   LIG    1       17.155 -17.027  19.342  0.00  0.00    +0.041 C 
ATOM      9  C   LIG    1       15.972 -16.054  19.254  0.00  0.00    +0.005 C 
ATOM     10  C   LIG    1       16.198 -14.641  18.682  0.00  0.00    +0.005 C 
ATOM     11  C   LIG    1       17.526 -14.306  17.985  0.00  0.00    +0.041 C 
ATOM     12  C   LIG    1       18.544 -15.363  18.096  0.00  0.00    +0.023 C 
ENDBRANCH   1   4
BRANCH   1  13
ATOM     13  O   LIG    1       22.746 -16.406  18.563  0.00  0.00    -0.444 OA
BRANCH  13  14
ATOM     14  C   LIG    1       23.483 -15.305  18.306  0.00  0.00    +0.313 C 
ATOM     15  O   LIG    1       23.307 -14.195  18.790  0.00  0.00    -0.250 OA
BRANCH  14  16
ATOM     16  C   LIG    1       24.589 -15.650  17.383  0.00  0.00    +0.111 C 
ATOM     17  C   LIG    1       25.744 -16.592  17.682  0.00  0.00    -0.014 C 
ATOM     18  C   LIG    1       26.276 -17.399  16.516  0.00  0.00    +0.012 C 
ATOM     19  C   LIG    1       25.820 -17.342  18.988  0.00  0.00    +0.012 C 
ATOM     20  C   LIG    1       25.983 -15.093  17.621  0.00  0.00    +0.032 C 
BRANCH  20  21
ATOM     21  C   LIG    1       26.250 -14.282  18.819  0.00  0.00    -0.023 C 
ATOM     22  C   LIG    1       27.425 -14.167  19.472  0.00  0.00    -0.079 C 
ATOM     23  C   LIG    1       27.560 -13.293  20.690  0.00  0.00    +0.038 C 
ATOM     24  C   LIG    1       28.685 -14.884  19.070  0.00  0.00    +0.038 C 
ENDBRANCH  20  21
ENDBRANCH  14  16
ENDBRANCH  13  14
ENDBRANCH   1  13
TORSDOF 5
ENDMDL
MODEL 7
REMARK VINA RESULT:      -8.6      2.480      7.666
REMARK  Name = 
REMARK                            x       y       z     vdW  Elec       q    Type
REMARK                         _______ _______ _______ _____ _____    ______ ____
ROOT
ATOM      1  C   LIG    1       24.717 -16.057  16.947  0.00  0.00    +0.352 C 
ENDROOT
BRANCH   1   4
ATOM      2  O   LIG    1       27.477 -16.932  17.120  0.00  0.00    -0.270 OA
ATOM      3  C   LIG    1       27.027 -16.012  17.779  0.00  0.00    +0.252 C 
ATOM      4  N   LIG    1       25.762 -15.518  17.788  0.00  0.00    -0.200 N 
ATOM      5  C   LIG    1       25.660 -14.489  18.671  0.00  0.00    +0.252 C 
ATOM      6  O   LIG    1       24.708 -13.790  18.971  0.00  0.00    -0.270 OA
ATOM      7  C   LIG    1       26.986 -14.318  19.270  0.00  0.00    +0.023 C 
ATOM      8  C   LIG    1       27.337 -13.310  20.283  0.00  0.00    +0.041 C 
ATOM      9  C   LIG    1       28.820 -13.314  20.678  0.00  0.00    +0.005 C 
ATOM     10  C   LIG    1       29.738 -14.435  20.156  0.00  0.00    +0.005 C 
ATOM     11  C   LIG    1       29.230 -15.385  19.060  0.00  0.00    +0.041 C 
ATOM     12  C   LIG    1       27.803 -15.220  18.739  0.00  0.00    +0.023 C 
ENDBRANCH   1   4
BRANCH   1  13
ATOM     13  O   LIG    1       24.367 -17.359  17.385  0.00  0.00    -0.444 OA
BRANCH  13  14
ATOM     14  C   LIG    1       23.051 -17.560  17.612  0.00  0.00    +0.313 C 
ATOM     15  O   LIG    1       22.570 -18.441  18.312  0.00  0.00    -0.250 OA
BRANCH  14  16
ATOM     16  C   LIG    1       22.262 -16.509  16.929  0.00  0.00    +0.111 C 
ATOM     17  C   LIG    1       21.602 -15.311  17.592  0.00  0.00    -0.014 C 
ATOM     18  C   LIG    1       21.544 -14.036  16.778  0.00  0.00    +0.012 C 
ATOM     19  C   LIG    1       21.767 -15.048  19.068  0.00  0.00    +0.012 C 
ATOM     20  C   LIG    1       20.752 -16.465  17.089  0.00  0.00    +0.032 C 
BRANCH  20  21
ATOM     21  C   LIG    1       20.085 -17.414  17.994  0.00  0.00    -0.023 C 
ATOM     22  C   LIG    1       18.884 -17.257  18.588  0.00  0.00    -0.079 C 
ATOM     23  C   LIG    1       18.316 -18.317  19.493  0.00  0.00    +0.038 C 
ATOM     24  C   LIG    1       18.015 -16.040  18.422  0.00  0.00    +0.038 C 
ENDBRANCH  20  21
ENDBRANCH  14  16
ENDBRANCH  13  14
ENDBRANCH   1  13
TORSDOF 5
ENDMDL
MODEL 8
REMARK VINA RESULT:      -8.6      2.857      7.636
REMARK  Name = 
REMARK                            x       y       z     vdW  Elec       q    Type
REMARK                         _______ _______ _______ _____ _____    ______ ____
ROOT
ATOM      1  C   LIG    1       24.316 -15.112  19.369  0.00  0.00    +0.352 C 
ENDROOT
BRANCH   1   4
ATOM      2  O   LIG    1       25.635 -12.601  18.760  0.00  0.00    -0.270 OA
ATOM      3  C   LIG    1       26.224 -13.575  19.192  0.00  0.00    +0.252 C 
ATOM      4  N   LIG    1       25.721 -14.797  19.508  0.00  0.00    -0.200 N 
ATOM      5  C   LIG    1       26.709 -15.618  19.953  0.00  0.00    +0.252 C 
ATOM      6  O   LIG    1       26.672 -16.775  20.328  0.00  0.00    -0.270 OA
ATOM      7  C   LIG    1       27.949 -14.838  19.916  0.00  0.00    +0.023 C 
ATOM      8  C   LIG    1       29.276 -15.332  20.316  0.00  0.00    +0.041 C 
ATOM      9  C   LIG    1       30.384 -14.274  20.243  0.00  0.00    +0.005 C 
ATOM     10  C   LIG    1       30.079 -12.903  19.609  0.00  0.00    +0.005 C 
ATOM     11  C   LIG    1       28.626 -12.522  19.286  0.00  0.00    +0.041 C 
ATOM     12  C   LIG    1       27.664 -13.621  19.468  0.00  0.00    +0.023 C 
ENDBRANCH   1   4
BRANCH   1  13
ATOM     13  O   LIG    1       23.970 -15.183  17.997  0.00  0.00    -0.444 OA
BRANCH  13  14
ATOM     14  C   LIG    1       24.473 -16.243  17.327  0.00  0.00    +0.313 C 
ATOM     15  O   LIG    1       25.278 -16.193  16.407  0.00  0.00    -0.250 OA
BRANCH  14  16
ATOM     16  C   LIG    1       23.945 -17.497  17.911  0.00  0.00    +0.111 C 
ATOM     17  C   LIG    1       23.326 -18.652  17.142  0.00  0.00    -0.014 C 
ATOM     18  C   LIG    1       23.562 -20.040  17.702  0.00  0.00    +0.012 C 
ATOM     19  C   LIG    1       23.262 -18.641  15.635  0.00  0.00    +0.012 C 
ATOM     20  C   LIG    1       22.446 -17.737  17.974  0.00  0.00    +0.032 C 
BRANCH  20  21
ATOM     21  C   LIG    1       21.524 -16.760  17.374  0.00  0.00    -0.023 C 
ATOM     22  C   LIG    1       20.713 -15.905  18.029  0.00  0.00    -0.079 C 
ATOM     23  C   LIG    1       19.819 -14.950  17.285  0.00  0.00    +0.038 C 
ATOM     24  C   LIG    1       20.610 -15.823  19.528  0.00  0.00    +0.038 C 
ENDBRANCH  20  21
ENDBRANCH  14  16
ENDBRANCH  13  14
ENDBRANCH   1  13
TORSDOF 5
ENDMDL
MODEL 9
REMARK VINA RESULT:      -8.6      2.376      7.740
REMARK  Name = 
REMARK                            x       y       z     vdW  Elec       q    Type
REMARK                         _______ _______ _______ _____ _____    ______ ____
ROOT
ATOM      1  C   LIG    1       24.357 -14.206  18.111  0.00  0.00    +0.352 C 
ENDROOT
BRANCH   1   4
ATOM      2  O   LIG    1       26.480 -16.082  17.486  0.00  0.00    -0.270 OA
ATOM      3  C   LIG    1       26.573 -15.237  18.358  0.00  0.00    +0.252 C 
ATOM      4  N   LIG    1       25.653 -14.314  18.743  0.00  0.00    -0.200 N 
ATOM      5  C   LIG    1       26.139 -13.555  19.761  0.00  0.00    +0.252 C 
ATOM      6  O   LIG    1       25.633 -12.635  20.378  0.00  0.00    -0.270 OA
ATOM      7  C   LIG    1       27.492 -14.045  20.040  0.00  0.00    +0.023 C 
ATOM      8  C   LIG    1       28.394 -13.508  21.070  0.00  0.00    +0.041 C 
ATOM      9  C   LIG    1       29.779 -14.168  21.091  0.00  0.00    +0.005 C 
ATOM     10  C   LIG    1       30.042 -15.403  20.208  0.00  0.00    +0.005 C 
ATOM     11  C   LIG    1       29.010 -15.809  19.144  0.00  0.00    +0.041 C 
ATOM     12  C   LIG    1       27.755 -15.043  19.204  0.00  0.00    +0.023 C 
ENDBRANCH   1   4
BRANCH   1  13
ATOM     13  O   LIG    1       23.334 -14.305  19.087  0.00  0.00    -0.444 OA
BRANCH  13  14
ATOM     14  C   LIG    1       22.217 -14.953  18.691  0.00  0.00    +0.313 C 
ATOM     15  O   LIG    1       21.203 -14.429  18.250  0.00  0.00    -0.250 OA
BRANCH  14  16
ATOM     16  C   LIG    1       22.419 -16.415  18.816  0.00  0.00    +0.111 C 
ATOM     17  C   LIG    1       22.403 -17.421  17.677  0.00  0.00    -0.014 C 
ATOM     18  C   LIG    1       23.331 -18.610  17.814  0.00  0.00    +0.012 C 
ATOM     19  C   LIG    1       22.242 -16.976  16.245  0.00  0.00    +0.012 C 
ATOM     20  C   LIG    1       21.242 -17.363  18.655  0.00  0.00    +0.032 C 
BRANCH  20  21
ATOM     21  C   LIG    1       19.921 -16.831  18.288  0.00  0.00    -0.023 C 
ATOM     22  C   LIG    1       18.720 -17.345  18.624  0.00  0.00    -0.079 C 
ATOM     23  C   LIG    1       17.438 -16.692  18.182  0.00  0.00    +0.038 C 
ATOM     24  C   LIG    1       18.539 -18.593  19.445  0.00  0.00    +0.038 C 
ENDBRANCH  20  21
ENDBRANCH  14  16
ENDBRANCH  13  14
ENDBRANCH   1  13
TORSDOF 5
ENDMDL
