MODEL 1
REMARK VINA RESULT:      -7.3      0.000      0.000
REMARK  Name = 
REMARK                            x       y       z     vdW  Elec       q    Type
REMARK                         _______ _______ _______ _____ _____    ______ ____
ROOT
ATOM      1  C   LIG    1        2.787   9.628  -1.918  0.00  0.00    +0.352 C 
ENDROOT
BRANCH   1   4
ATOM      2  O   LIG    1        4.851  11.613  -2.382  0.00  0.00    -0.270 OA
ATOM      3  C   LIG    1        4.614  10.704  -3.157  0.00  0.00    +0.252 C 
ATOM      4  N   LIG    1        3.678   9.725  -3.052  0.00  0.00    -0.200 N 
ATOM      5  C   LIG    1        3.727   8.903  -4.134  0.00  0.00    +0.252 C 
ATOM      6  O   LIG    1        3.065   7.921  -4.417  0.00  0.00    -0.270 OA
ATOM      7  C   LIG    1        4.796   9.410  -4.998  0.00  0.00    +0.023 C 
ATOM      8  C   LIG    1        5.202   8.821  -6.283  0.00  0.00    +0.041 C 
ATOM      9  C   LIG    1        6.401   9.520  -6.939  0.00  0.00    +0.005 C 
ATOM     10  C   LIG    1        6.938  10.829  -6.330  0.00  0.00    +0.005 C 
ATOM     11  C   LIG    1        6.439  11.287  -4.951  0.00  0.00    +0.041 C 
ATOM     12  C   LIG    1        5.329  10.480  -4.418  0.00  0.00    +0.023 C 
ENDBRANCH   1   4
BRANCH   1  13
ATOM     13  O   LIG    1        3.295   8.691  -0.983  0.00  0.00    -0.444 OA
BRANCH  13  14
ATOM     14  C   LIG    1        2.372   7.898  -0.398  0.00  0.00    +0.313 C 
ATOM     15  O   LIG    1        2.116   7.857   0.798  0.00  0.00    -0.250 OA
BRANCH  14  16
ATOM     16  C   LIG    1        1.662   7.113  -1.434  0.00  0.00    +0.111 C 
ATOM     17  C   LIG    1        0.731   5.937  -1.186  0.00  0.00    -0.014 C 
ATOM     18  C   LIG    1       -0.429   5.780  -2.147  0.00  0.00    +0.012 C 
ATOM     19  C   LIG    1        0.385   5.499   0.215  0.00  0.00    +0.012 C 
ATOM     20  C   LIG    1        2.115   5.701  -1.765  0.00  0.00    +0.032 C 
BRANCH  20  21
ATOM     21  C   LIG    1        3.205   5.084  -0.992  0.00  0.00    -0.023 C 
ATOM     22  C   LIG    1        4.529   5.224  -1.209  0.00  0.00    -0.079 C 
ATOM     23  C   LIG    1        5.541   4.536  -0.333  0.00  0.00    +0.038 C 
ATOM     24  C   LIG    1        5.117   6.051  -2.320  0.00  0.00    +0.038 C 
ENDBRANCH  20  21
ENDBRANCH  14  16
ENDBRANCH  13  14
ENDBRANCH   1  13
TORSDOF 5
ENDMDL
MODEL 2
REMARK VINA RESULT:      -7.2      2.730      4.357
REMARK  Name = 
REMARK                            x       y       z     vdW  Elec       q    Type
REMARK                         _______ _______ _______ _____ _____    ______ ____
ROOT
ATOM      1  C   LIG    1        4.684   9.841  -2.674  0.00  0.00    +0.352 C 
ENDROOT
BRANCH   1   4
ATOM      2  O   LIG    1        3.661  12.335  -3.747  0.00  0.00    -0.270 OA
ATOM      3  C   LIG    1        4.261  12.261  -2.690  0.00  0.00    +0.252 C 
ATOM      4  N   LIG    1        4.787  11.160  -2.091  0.00  0.00    -0.200 N 
ATOM      5  C   LIG    1        5.388  11.498  -0.920  0.00  0.00    +0.252 C 
ATOM      6  O   LIG    1        5.970  10.813  -0.098  0.00  0.00    -0.270 OA
ATOM      7  C   LIG    1        5.221  12.946  -0.766  0.00  0.00    +0.023 C 
ATOM      8  C   LIG    1        5.717  13.742   0.367  0.00  0.00    +0.041 C 
ATOM      9  C   LIG    1        5.335  15.227   0.301  0.00  0.00    +0.005 C 
ATOM     10  C   LIG    1        4.662  15.778  -0.971  0.00  0.00    +0.005 C 
ATOM     11  C   LIG    1        4.160  14.803  -2.048  0.00  0.00    +0.041 C 
ATOM     12  C   LIG    1        4.548  13.402  -1.816  0.00  0.00    +0.023 C 
ENDBRANCH   1   4
BRANCH   1  13
ATOM     13  O   LIG    1        3.395   9.304  -2.428  0.00  0.00    -0.444 OA
BRANCH  13  14
ATOM     14  C   LIG    1        3.345   8.321  -1.503  0.00  0.00    +0.313 C 
ATOM     15  O   LIG    1        4.127   8.169  -0.575  0.00  0.00    -0.250 OA
BRANCH  14  16
ATOM     16  C   LIG    1        2.156   7.472  -1.744  0.00  0.00    +0.111 C 
ATOM     17  C   LIG    1        2.027   5.995  -1.407  0.00  0.00    -0.014 C 
ATOM     18  C   LIG    1        0.651   5.515  -0.992  0.00  0.00    +0.012 C 
ATOM     19  C   LIG    1        3.135   5.257  -0.700  0.00  0.00    +0.012 C 
ATOM     20  C   LIG    1        2.172   6.434  -2.854  0.00  0.00    +0.032 C 
BRANCH  20  21
ATOM     21  C   LIG    1        3.402   6.215  -3.631  0.00  0.00    -0.023 C 
ATOM     22  C   LIG    1        3.711   6.757  -4.826  0.00  0.00    -0.079 C 
ATOM     23  C   LIG    1        5.015   6.448  -5.512  0.00  0.00    +0.038 C 
ATOM     24  C   LIG    1        2.808   7.693  -5.584  0.00  0.00    +0.038 C 
ENDBRANCH  20  21
ENDBRANCH  14  16
ENDBRANCH  13  14
ENDBRANCH   1  13
TORSDOF 5
ENDMDL
MODEL 3
REMARK VINA RESULT:      -7.2      2.168      6.999
REMARK  Name = 
REMARK                            x       y       z     vdW  Elec       q    Type
REMARK                         _______ _______ _______ _____ _____    ______ ____
ROOT
ATOM      1  C   LIG    1        4.831   7.030  -1.687  0.00  0.00    +0.352 C 
ENDROOT
BRANCH   1   4
ATOM      2  O   LIG    1        2.748   5.892  -3.354  0.00  0.00    -0.270 OA
ATOM      3  C   LIG    1        2.588   6.159  -2.177  0.00  0.00    +0.252 C 
ATOM      4  N   LIG    1        3.479   6.694  -1.302  0.00  0.00    -0.200 N 
ATOM      5  C   LIG    1        2.909   6.846  -0.077  0.00  0.00    +0.252 C 
ATOM      6  O   LIG    1        3.366   7.285   0.963  0.00  0.00    -0.270 OA
ATOM      7  C   LIG    1        1.533   6.357  -0.191  0.00  0.00    +0.023 C 
ATOM      8  C   LIG    1        0.546   6.331   0.900  0.00  0.00    +0.041 C 
ATOM      9  C   LIG    1       -0.796   5.698   0.513  0.00  0.00    +0.005 C 
ATOM     10  C   LIG    1       -1.062   5.332  -0.960  0.00  0.00    +0.005 C 
ATOM     11  C   LIG    1        0.092   5.372  -1.973  0.00  0.00    +0.041 C 
ATOM     12  C   LIG    1        1.339   5.944  -1.439  0.00  0.00    +0.023 C 
ENDBRANCH   1   4
BRANCH   1  13
ATOM     13  O   LIG    1        4.840   8.248  -2.410  0.00  0.00    -0.444 OA
BRANCH  13  14
ATOM     14  C   LIG    1        4.558   9.353  -1.687  0.00  0.00    +0.313 C 
ATOM     15  O   LIG    1        5.047   9.647  -0.605  0.00  0.00    -0.250 OA
BRANCH  14  16
ATOM     16  C   LIG    1        3.598  10.202  -2.430  0.00  0.00    +0.111 C 
ATOM     17  C   LIG    1        3.939  11.165  -3.556  0.00  0.00    -0.014 C 
ATOM     18  C   LIG    1        2.899  11.324  -4.646  0.00  0.00    +0.012 C 
ATOM     19  C   LIG    1        5.348  11.285  -4.080  0.00  0.00    +0.012 C 
ATOM     20  C   LIG    1        3.560  11.702  -2.187  0.00  0.00    +0.032 C 
BRANCH  20  21
ATOM     21  C   LIG    1        4.538  12.319  -1.277  0.00  0.00    -0.023 C 
ATOM     22  C   LIG    1        4.797  13.636  -1.142  0.00  0.00    -0.079 C 
ATOM     23  C   LIG    1        5.827  14.133  -0.164  0.00  0.00    +0.038 C 
ATOM     24  C   LIG    1        4.113  14.714  -1.938  0.00  0.00    +0.038 C 
ENDBRANCH  20  21
ENDBRANCH  14  16
ENDBRANCH  13  14
ENDBRANCH   1  13
TORSDOF 5
ENDMDL
MODEL 4
REMARK VINA RESULT:      -7.1      1.950      3.586
REMARK  Name = 
REMARK                            x       y       z     vdW  Elec       q    Type
REMARK                         _______ _______ _______ _____ _____    ______ ____
ROOT
ATOM      1  C   LIG    1        4.197   8.548  -4.962  0.00  0.00    +0.352 C 
ENDROOT
BRANCH   1   4
ATOM      2  O   LIG    1        5.166  11.277  -4.793  0.00  0.00    -0.270 OA
ATOM      3  C   LIG    1        5.663  10.438  -5.522  0.00  0.00    +0.252 C 
ATOM      4  N   LIG    1        5.297   9.140  -5.689  0.00  0.00    -0.200 N 
ATOM      5  C   LIG    1        6.101   8.534  -6.603  0.00  0.00    +0.252 C 
ATOM      6  O   LIG    1        6.102   7.393  -7.028  0.00  0.00    -0.270 OA
ATOM      7  C   LIG    1        7.064   9.544  -7.049  0.00  0.00    +0.023 C 
ATOM      8  C   LIG    1        8.130   9.323  -8.039  0.00  0.00    +0.041 C 
ATOM      9  C   LIG    1        9.037  10.541  -8.260  0.00  0.00    +0.005 C 
ATOM     10  C   LIG    1        8.668  11.887  -7.608  0.00  0.00    +0.005 C 
ATOM     11  C   LIG    1        7.550  11.940  -6.555  0.00  0.00    +0.041 C 
ATOM     12  C   LIG    1        6.809  10.677  -6.405  0.00  0.00    +0.023 C 
ENDBRANCH   1   4
BRANCH   1  13
ATOM     13  O   LIG    1        4.623   7.356  -4.325  0.00  0.00    -0.444 OA
BRANCH  13  14
ATOM     14  C   LIG    1        3.680   6.716  -3.601  0.00  0.00    +0.313 C 
ATOM     15  O   LIG    1        2.527   6.505  -3.952  0.00  0.00    -0.250 OA
BRANCH  14  16
ATOM     16  C   LIG    1        4.265   6.250  -2.323  0.00  0.00    +0.111 C 
ATOM     17  C   LIG    1        3.491   5.779  -1.103  0.00  0.00    -0.014 C 
ATOM     18  C   LIG    1        4.134   4.684  -0.277  0.00  0.00    +0.012 C 
ATOM     19  C   LIG    1        1.987   5.678  -1.124  0.00  0.00    +0.012 C 
ATOM     20  C   LIG    1        4.190   7.127  -1.085  0.00  0.00    +0.032 C 
BRANCH  20  21
ATOM     21  C   LIG    1        3.457   8.402  -1.137  0.00  0.00    -0.023 C 
ATOM     22  C   LIG    1        3.972   9.620  -1.402  0.00  0.00    -0.079 C 
ATOM     23  C   LIG    1        3.103  10.847  -1.427  0.00  0.00    +0.038 C 
ATOM     24  C   LIG    1        5.429   9.875  -1.682  0.00  0.00    +0.038 C 
ENDBRANCH  20  21
ENDBRANCH  14  16
ENDBRANCH  13  14
ENDBRANCH   1  13
TORSDOF 5
ENDMDL
MODEL 5
REMARK VINA RESULT:      -7.1      2.069      3.524
REMARK  Name = 
REMARK                            x       y       z     vdW  Elec       q    Type
REMARK                         _______ _______ _______ _____ _____    ______ ____
ROOT
ATOM      1  C   LIG    1        3.630   8.948  -4.935  0.00  0.00    +0.352 C 
ENDROOT
BRANCH   1   4
ATOM      2  O   LIG    1        3.019  11.771  -4.673  0.00  0.00    -0.270 OA
ATOM      3  C   LIG    1        3.706  11.161  -3.874  0.00  0.00    +0.252 C 
ATOM      4  N   LIG    1        4.063   9.850  -3.892  0.00  0.00    -0.200 N 
ATOM      5  C   LIG    1        4.846   9.556  -2.820  0.00  0.00    +0.252 C 
ATOM      6  O   LIG    1        5.365   8.509  -2.479  0.00  0.00    -0.270 OA
ATOM      7  C   LIG    1        4.993  10.797  -2.055  0.00  0.00    +0.023 C 
ATOM      8  C   LIG    1        5.762  10.941  -0.809  0.00  0.00    +0.041 C 
ATOM      9  C   LIG    1        5.682  12.341  -0.186  0.00  0.00    +0.005 C 
ATOM     10  C   LIG    1        4.997  13.478  -0.967  0.00  0.00    +0.005 C 
ATOM     11  C   LIG    1        4.193  13.152  -2.235  0.00  0.00    +0.041 C 
ATOM     12  C   LIG    1        4.312  11.753  -2.677  0.00  0.00    +0.023 C 
ENDBRANCH   1   4
BRANCH   1  13
ATOM     13  O   LIG    1        2.695   8.019  -4.415  0.00  0.00    -0.444 OA
BRANCH  13  14
ATOM     14  C   LIG    1        3.149   6.754  -4.278  0.00  0.00    +0.313 C 
ATOM     15  O   LIG    1        4.166   6.299  -4.783  0.00  0.00    -0.250 OA
BRANCH  14  16
ATOM     16  C   LIG    1        2.256   6.001  -3.369  0.00  0.00    +0.111 C 
ATOM     17  C   LIG    1        1.991   6.319  -1.906  0.00  0.00    -0.014 C 
ATOM     18  C   LIG    1        0.601   6.013  -1.389  0.00  0.00    +0.012 C 
ATOM     19  C   LIG    1        2.596   7.535  -1.251  0.00  0.00    +0.012 C 
ATOM     20  C   LIG    1        2.844   5.119  -2.280  0.00  0.00    +0.032 C 
BRANCH  20  21
ATOM     21  C   LIG    1        4.301   5.086  -2.075  0.00  0.00    -0.023 C 
ATOM     22  C   LIG    1        4.950   4.797  -0.929  0.00  0.00    -0.079 C 
ATOM     23  C   LIG    1        6.453   4.795  -0.860  0.00  0.00    +0.038 C 
ATOM     24  C   LIG    1        4.261   4.463   0.367  0.00  0.00    +0.038 C 
ENDBRANCH  20  21
ENDBRANCH  14  16
ENDBRANCH  13  14
ENDBRANCH   1  13
TORSDOF 5
ENDMDL
MODEL 6
REMARK VINA RESULT:      -7.0      1.807      3.255
REMARK  Name = 
REMARK                            x       y       z     vdW  Elec       q    Type
REMARK                         _______ _______ _______ _____ _____    ______ ____
ROOT
ATOM      1  C   LIG    1        4.283   8.509  -5.008  0.00  0.00    +0.352 C 
ENDROOT
BRANCH   1   4
ATOM      2  O   LIG    1        6.094   7.392  -6.980  0.00  0.00    -0.270 OA
ATOM      3  C   LIG    1        6.151   8.548  -6.602  0.00  0.00    +0.252 C 
ATOM      4  N   LIG    1        5.368   9.180  -5.689  0.00  0.00    -0.200 N 
ATOM      5  C   LIG    1        5.759  10.473  -5.540  0.00  0.00    +0.252 C 
ATOM      6  O   LIG    1        5.321  11.359  -4.828  0.00  0.00    -0.270 OA
ATOM      7  C   LIG    1        6.892  10.675  -6.447  0.00  0.00    +0.023 C 
ATOM      8  C   LIG    1        7.631  11.936  -6.617  0.00  0.00    +0.041 C 
ATOM      9  C   LIG    1        8.726  11.878  -7.689  0.00  0.00    +0.005 C 
ATOM     10  C   LIG    1        9.078  10.525  -8.338  0.00  0.00    +0.005 C 
ATOM     11  C   LIG    1        8.174   9.307  -8.092  0.00  0.00    +0.041 C 
ATOM     12  C   LIG    1        7.126   9.533  -7.084  0.00  0.00    +0.023 C 
ENDBRANCH   1   4
BRANCH   1  13
ATOM     13  O   LIG    1        4.601   8.343  -3.637  0.00  0.00    -0.444 OA
BRANCH  13  14
ATOM     14  C   LIG    1        3.634   8.709  -2.769  0.00  0.00    +0.313 C 
ATOM     15  O   LIG    1        3.462   9.834  -2.320  0.00  0.00    -0.250 OA
BRANCH  14  16
ATOM     16  C   LIG    1        2.760   7.549  -2.479  0.00  0.00    +0.111 C 
ATOM     17  C   LIG    1        2.561   6.896  -1.121  0.00  0.00    -0.014 C 
ATOM     18  C   LIG    1        1.186   6.327  -0.840  0.00  0.00    +0.012 C 
ATOM     19  C   LIG    1        3.220   7.453   0.116  0.00  0.00    +0.012 C 
ATOM     20  C   LIG    1        3.371   6.188  -2.192  0.00  0.00    +0.032 C 
BRANCH  20  21
ATOM     21  C   LIG    1        4.834   6.045  -2.118  0.00  0.00    -0.023 C 
ATOM     22  C   LIG    1        5.523   5.182  -1.344  0.00  0.00    -0.079 C 
ATOM     23  C   LIG    1        7.027   5.139  -1.369  0.00  0.00    +0.038 C 
ATOM     24  C   LIG    1        4.883   4.207  -0.394  0.00  0.00    +0.038 C 
ENDBRANCH  20  21
ENDBRANCH  14  16
ENDBRANCH  13  14
ENDBRANCH   1  13
TORSDOF 5
ENDMDL
MODEL 7
REMARK VINA RESULT:      -7.0      2.657      4.353
REMARK  Name = 
REMARK                            x       y       z     vdW  Elec       q    Type
REMARK                         _______ _______ _______ _____ _____    ______ ____
ROOT
ATOM      1  C   LIG    1        4.402   8.123  -5.598  0.00  0.00    +0.352 C 
ENDROOT
BRANCH   1   4
ATOM      2  O   LIG    1        6.295   9.897  -6.896  0.00  0.00    -0.270 OA
ATOM      3  C   LIG    1        6.430   8.687  -6.864  0.00  0.00    +0.252 C 
ATOM      4  N   LIG    1        5.616   7.760  -6.296  0.00  0.00    -0.200 N 
ATOM      5  C   LIG    1        6.115   6.509  -6.484  0.00  0.00    +0.252 C 
ATOM      6  O   LIG    1        5.689   5.423  -6.136  0.00  0.00    -0.270 OA
ATOM      7  C   LIG    1        7.361   6.665  -7.239  0.00  0.00    +0.023 C 
ATOM      8  C   LIG    1        8.240   5.565  -7.663  0.00  0.00    +0.041 C 
ATOM      9  C   LIG    1        9.517   6.027  -8.378  0.00  0.00    +0.005 C 
ATOM     10  C   LIG    1        9.681   7.514  -8.745  0.00  0.00    +0.005 C 
ATOM     11  C   LIG    1        8.695   8.549  -8.182  0.00  0.00    +0.041 C 
ATOM     12  C   LIG    1        7.554   7.960  -7.463  0.00  0.00    +0.023 C 
ENDBRANCH   1   4
BRANCH   1  13
ATOM     13  O   LIG    1        4.556   7.895  -4.208  0.00  0.00    -0.444 OA
BRANCH  13  14
ATOM     14  C   LIG    1        3.773   6.926  -3.689  0.00  0.00    +0.313 C 
ATOM     15  O   LIG    1        2.742   6.494  -4.187  0.00  0.00    -0.250 OA
BRANCH  14  16
ATOM     16  C   LIG    1        4.379   6.411  -2.440  0.00  0.00    +0.111 C 
ATOM     17  C   LIG    1        3.628   5.828  -1.254  0.00  0.00    -0.014 C 
ATOM     18  C   LIG    1        4.324   4.718  -0.494  0.00  0.00    +0.012 C 
ATOM     19  C   LIG    1        2.131   5.654  -1.288  0.00  0.00    +0.012 C 
ATOM     20  C   LIG    1        4.258   7.205  -1.150  0.00  0.00    +0.032 C 
BRANCH  20  21
ATOM     21  C   LIG    1        3.463   8.443  -1.127  0.00  0.00    -0.023 C 
ATOM     22  C   LIG    1        3.915   9.698  -1.321  0.00  0.00    -0.079 C 
ATOM     23  C   LIG    1        2.985  10.881  -1.274  0.00  0.00    +0.038 C 
ATOM     24  C   LIG    1        5.356  10.042  -1.588  0.00  0.00    +0.038 C 
ENDBRANCH  20  21
ENDBRANCH  14  16
ENDBRANCH  13  14
ENDBRANCH   1  13
TORSDOF 5
ENDMDL
MODEL 8
REMARK VINA RESULT:      -6.9      5.113      7.443
REMARK  Name = 
REMARK                            x       y       z     vdW  Elec       q    Type
REMARK                         _______ _______ _______ _____ _____    ______ ____
ROOT
ATOM      1  C   LIG    1        8.613   6.648  -7.356  0.00  0.00    +0.352 C 
ENDROOT
BRANCH   1   4
ATOM      2  O   LIG    1        9.712   4.755  -9.260  0.00  0.00    -0.270 OA
ATOM      3  C   LIG    1        9.722   5.959  -9.437  0.00  0.00    +0.252 C 
ATOM      4  N   LIG    1        9.246   6.938  -8.623  0.00  0.00    -0.200 N 
ATOM      5  C   LIG    1        9.455   8.161  -9.179  0.00  0.00    +0.252 C 
ATOM      6  O   LIG    1        9.180   9.276  -8.773  0.00  0.00    -0.270 OA
ATOM      7  C   LIG    1       10.121   7.930 -10.463  0.00  0.00    +0.023 C 
ATOM      8  C   LIG    1       10.535   8.980 -11.407  0.00  0.00    +0.041 C 
ATOM      9  C   LIG    1       11.146   8.443 -12.708  0.00  0.00    +0.005 C 
ATOM     10  C   LIG    1       11.439   6.936 -12.840  0.00  0.00    +0.005 C 
ATOM     11  C   LIG    1       10.898   5.961 -11.783  0.00  0.00    +0.041 C 
ATOM     12  C   LIG    1       10.278   6.621 -10.622  0.00  0.00    +0.023 C 
ENDBRANCH   1   4
BRANCH   1  13
ATOM     13  O   LIG    1        7.243   7.008  -7.406  0.00  0.00    -0.444 OA
BRANCH  13  14
ATOM     14  C   LIG    1        6.441   6.355  -6.538  0.00  0.00    +0.313 C 
ATOM     15  O   LIG    1        6.798   5.510  -5.729  0.00  0.00    -0.250 OA
BRANCH  14  16
ATOM     16  C   LIG    1        5.054   6.857  -6.669  0.00  0.00    +0.111 C 
ATOM     17  C   LIG    1        4.540   8.203  -6.185  0.00  0.00    -0.014 C 
ATOM     18  C   LIG    1        3.451   8.848  -7.017  0.00  0.00    +0.012 C 
ATOM     19  C   LIG    1        5.469   9.215  -5.564  0.00  0.00    +0.012 C 
ATOM     20  C   LIG    1        4.153   6.933  -5.448  0.00  0.00    +0.032 C 
BRANCH  20  21
ATOM     21  C   LIG    1        4.690   6.590  -4.121  0.00  0.00    -0.023 C 
ATOM     22  C   LIG    1        3.980   6.308  -3.010  0.00  0.00    -0.079 C 
ATOM     23  C   LIG    1        4.662   5.968  -1.712  0.00  0.00    +0.038 C 
ATOM     24  C   LIG    1        2.476   6.314  -2.947  0.00  0.00    +0.038 C 
ENDBRANCH  20  21
ENDBRANCH  14  16
ENDBRANCH  13  14
ENDBRANCH   1  13
TORSDOF 5
ENDMDL
MODEL 9
REMARK VINA RESULT:      -6.9      4.812      6.934
REMARK  Name = 
REMARK                            x       y       z     vdW  Elec       q    Type
REMARK                         _______ _______ _______ _____ _____    ______ ____
ROOT
ATOM      1  C   LIG    1        8.054   9.220  -7.625  0.00  0.00    +0.352 C 
ENDROOT
BRANCH   1   4
ATOM      2  O   LIG    1        9.020  10.466 -10.060  0.00  0.00    -0.270 OA
ATOM      3  C   LIG    1        9.265   9.312  -9.760  0.00  0.00    +0.252 C 
ATOM      4  N   LIG    1        8.869   8.621  -8.658  0.00  0.00    -0.200 N 
ATOM      5  C   LIG    1        9.347   7.349  -8.697  0.00  0.00    +0.252 C 
ATOM      6  O   LIG    1        9.218   6.427  -7.913  0.00  0.00    -0.270 OA
ATOM      7  C   LIG    1       10.119   7.230  -9.937  0.00  0.00    +0.023 C 
ATOM      8  C   LIG    1       10.821   6.018 -10.388  0.00  0.00    +0.041 C 
ATOM      9  C   LIG    1       11.610   6.201 -11.691  0.00  0.00    +0.005 C 
ATOM     10  C   LIG    1       11.461   7.513 -12.486  0.00  0.00    +0.005 C 
ATOM     11  C   LIG    1       10.729   8.707 -11.852  0.00  0.00    +0.041 C 
ATOM     12  C   LIG    1       10.076   8.397 -10.570  0.00  0.00    +0.023 C 
ENDBRANCH   1   4
BRANCH   1  13
ATOM     13  O   LIG    1        6.990   8.348  -7.283  0.00  0.00    -0.444 OA
BRANCH  13  14
ATOM     14  C   LIG    1        6.011   8.896  -6.531  0.00  0.00    +0.313 C 
ATOM     15  O   LIG    1        6.144   9.829  -5.751  0.00  0.00    -0.250 OA
BRANCH  14  16
ATOM     16  C   LIG    1        4.722   8.234  -6.834  0.00  0.00    +0.111 C 
ATOM     17  C   LIG    1        3.386   8.531  -6.173  0.00  0.00    -0.014 C 
ATOM     18  C   LIG    1        2.156   8.392  -7.046  0.00  0.00    +0.012 C 
ATOM     19  C   LIG    1        3.248   9.633  -5.153  0.00  0.00    +0.012 C 
ATOM     20  C   LIG    1        4.123   7.244  -5.848  0.00  0.00    +0.032 C 
BRANCH  20  21
ATOM     21  C   LIG    1        4.784   7.014  -4.553  0.00  0.00    -0.023 C 
ATOM     22  C   LIG    1        4.211   6.545  -3.426  0.00  0.00    -0.079 C 
ATOM     23  C   LIG    1        5.010   6.352  -2.165  0.00  0.00    +0.038 C 
ATOM     24  C   LIG    1        2.754   6.185  -3.308  0.00  0.00    +0.038 C 
ENDBRANCH  20  21
ENDBRANCH  14  16
ENDBRANCH  13  14
ENDBRANCH   1  13
TORSDOF 5
ENDMDL
