MODEL 1
REMARK VINA RESULT:      -7.8      0.000      0.000
REMARK  Name = 
REMARK                            x       y       z     vdW  Elec       q    Type
REMARK                         _______ _______ _______ _____ _____    ______ ____
ROOT
ATOM      1  C   LIG    1       -0.210  31.459   6.600  0.00  0.00    +0.352 C 
ENDROOT
BRANCH   1   4
ATOM      2  O   LIG    1       -0.477  29.030   5.037  0.00  0.00    -0.270 OA
ATOM      3  C   LIG    1        0.585  29.416   5.492  0.00  0.00    +0.252 C 
ATOM      4  N   LIG    1        0.832  30.525   6.237  0.00  0.00    -0.200 N 
ATOM      5  C   LIG    1        2.152  30.598   6.556  0.00  0.00    +0.252 C 
ATOM      6  O   LIG    1        2.768  31.426   7.203  0.00  0.00    -0.270 OA
ATOM      7  C   LIG    1        2.794  29.428   5.953  0.00  0.00    +0.023 C 
ATOM      8  C   LIG    1        4.226  29.104   6.044  0.00  0.00    +0.041 C 
ATOM      9  C   LIG    1        4.634  27.853   5.254  0.00  0.00    +0.005 C 
ATOM     10  C   LIG    1        3.542  26.971   4.619  0.00  0.00    +0.005 C 
ATOM     11  C   LIG    1        2.092  27.476   4.568  0.00  0.00    +0.041 C 
ATOM     12  C   LIG    1        1.865  28.724   5.316  0.00  0.00    +0.023 C 
ENDBRANCH   1   4
BRANCH   1  13
ATOM     13  O   LIG    1        0.362  32.700   6.975  0.00  0.00    -0.444 OA
BRANCH  13  14
ATOM     14  C   LIG    1       -0.123  33.781   6.326  0.00  0.00    +0.313 C 
ATOM     15  O   LIG    1       -1.293  33.972   6.026  0.00  0.00    -0.250 OA
BRANCH  14  16
ATOM     16  C   LIG    1        0.974  34.744   6.076  0.00  0.00    +0.111 C 
ATOM     17  C   LIG    1        1.081  35.691   4.892  0.00  0.00    -0.014 C 
ATOM     18  C   LIG    1        1.736  37.031   5.157  0.00  0.00    +0.012 C 
ATOM     19  C   LIG    1       -0.016  35.778   3.861  0.00  0.00    +0.012 C 
ATOM     20  C   LIG    1        1.988  34.476   4.976  0.00  0.00    +0.032 C 
BRANCH  20  21
ATOM     21  C   LIG    1        1.825  33.302   4.103  0.00  0.00    -0.023 C 
ATOM     22  C   LIG    1        2.784  32.427   3.740  0.00  0.00    -0.079 C 
ATOM     23  C   LIG    1        2.477  31.260   2.839  0.00  0.00    +0.038 C 
ATOM     24  C   LIG    1        4.221  32.524   4.174  0.00  0.00    +0.038 C 
ENDBRANCH  20  21
ENDBRANCH  14  16
ENDBRANCH  13  14
ENDBRANCH   1  13
TORSDOF 5
ENDMDL
MODEL 2
REMARK VINA RESULT:      -7.6      0.153      1.816
REMARK  Name = 
REMARK                            x       y       z     vdW  Elec       q    Type
REMARK                         _______ _______ _______ _____ _____    ______ ____
ROOT
ATOM      1  C   LIG    1       -0.301  31.379   6.420  0.00  0.00    +0.352 C 
ENDROOT
BRANCH   1   4
ATOM      2  O   LIG    1        2.502  31.435   7.162  0.00  0.00    -0.270 OA
ATOM      3  C   LIG    1        2.015  30.563   6.466  0.00  0.00    +0.252 C 
ATOM      4  N   LIG    1        0.728  30.433   6.051  0.00  0.00    -0.200 N 
ATOM      5  C   LIG    1        0.588  29.323   5.278  0.00  0.00    +0.252 C 
ATOM      6  O   LIG    1       -0.391  28.861   4.721  0.00  0.00    -0.270 OA
ATOM      7  C   LIG    1        1.909  28.695   5.203  0.00  0.00    +0.023 C 
ATOM      8  C   LIG    1        2.223  27.460   4.468  0.00  0.00    +0.041 C 
ATOM      9  C   LIG    1        3.677  26.994   4.623  0.00  0.00    +0.005 C 
ATOM     10  C   LIG    1        4.690  27.905   5.341  0.00  0.00    +0.005 C 
ATOM     11  C   LIG    1        4.192  29.143   6.103  0.00  0.00    +0.041 C 
ATOM     12  C   LIG    1        2.761  29.428   5.912  0.00  0.00    +0.023 C 
ENDBRANCH   1   4
BRANCH   1  13
ATOM     13  O   LIG    1        0.290  32.592   6.852  0.00  0.00    -0.444 OA
BRANCH  13  14
ATOM     14  C   LIG    1       -0.199  33.712   6.277  0.00  0.00    +0.313 C 
ATOM     15  O   LIG    1       -1.371  33.922   5.999  0.00  0.00    -0.250 OA
BRANCH  14  16
ATOM     16  C   LIG    1        0.897  34.688   6.079  0.00  0.00    +0.111 C 
ATOM     17  C   LIG    1        1.030  35.662   4.919  0.00  0.00    -0.014 C 
ATOM     18  C   LIG    1        1.667  37.000   5.231  0.00  0.00    +0.012 C 
ATOM     19  C   LIG    1       -0.038  35.763   3.859  0.00  0.00    +0.012 C 
ATOM     20  C   LIG    1        1.944  34.452   5.003  0.00  0.00    +0.032 C 
BRANCH  20  21
ATOM     21  C   LIG    1        1.815  33.296   4.100  0.00  0.00    -0.023 C 
ATOM     22  C   LIG    1        2.793  32.440   3.739  0.00  0.00    -0.079 C 
ATOM     23  C   LIG    1        2.521  31.291   2.807  0.00  0.00    +0.038 C 
ATOM     24  C   LIG    1        4.219  32.545   4.209  0.00  0.00    +0.038 C 
ENDBRANCH  20  21
ENDBRANCH  14  16
ENDBRANCH  13  14
ENDBRANCH   1  13
TORSDOF 5
ENDMDL
MODEL 3
REMARK VINA RESULT:      -6.7      1.423      6.110
REMARK  Name = 
REMARK                            x       y       z     vdW  Elec       q    Type
REMARK                         _______ _______ _______ _____ _____    ______ ____
ROOT
ATOM      1  C   LIG    1       -0.998  30.907   5.638  0.00  0.00    +0.352 C 
ENDROOT
BRANCH   1   4
ATOM      2  O   LIG    1        0.849  32.456   7.250  0.00  0.00    -0.270 OA
ATOM      3  C   LIG    1        0.358  32.871   6.217  0.00  0.00    +0.252 C 
ATOM      4  N   LIG    1       -0.515  32.246   5.384  0.00  0.00    -0.200 N 
ATOM      5  C   LIG    1       -0.832  33.051   4.336  0.00  0.00    +0.252 C 
ATOM      6  O   LIG    1       -1.571  32.865   3.386  0.00  0.00    -0.270 OA
ATOM      7  C   LIG    1       -0.086  34.298   4.524  0.00  0.00    +0.023 C 
ATOM      8  C   LIG    1       -0.126  35.457   3.620  0.00  0.00    +0.041 C 
ATOM      9  C   LIG    1        0.813  36.600   4.028  0.00  0.00    +0.005 C 
ATOM     10  C   LIG    1        1.545  36.530   5.382  0.00  0.00    +0.005 C 
ATOM     11  C   LIG    1        1.523  35.223   6.190  0.00  0.00    +0.041 C 
ATOM     12  C   LIG    1        0.626  34.193   5.641  0.00  0.00    +0.023 C 
ENDBRANCH   1   4
BRANCH   1  13
ATOM     13  O   LIG    1       -0.291  29.978   4.833  0.00  0.00    -0.444 OA
BRANCH  13  14
ATOM     14  C   LIG    1        0.659  29.263   5.473  0.00  0.00    +0.313 C 
ATOM     15  O   LIG    1        0.778  29.151   6.685  0.00  0.00    -0.250 OA
BRANCH  14  16
ATOM     16  C   LIG    1        1.517  28.576   4.481  0.00  0.00    +0.111 C 
ATOM     17  C   LIG    1        2.786  27.796   4.782  0.00  0.00    -0.014 C 
ATOM     18  C   LIG    1        3.069  26.599   3.897  0.00  0.00    +0.012 C 
ATOM     19  C   LIG    1        3.258  27.591   6.200  0.00  0.00    +0.012 C 
ATOM     20  C   LIG    1        2.872  29.156   4.113  0.00  0.00    +0.032 C 
BRANCH  20  21
ATOM     21  C   LIG    1        3.367  30.354   4.810  0.00  0.00    -0.023 C 
ATOM     22  C   LIG    1        3.255  31.633   4.398  0.00  0.00    -0.079 C 
ATOM     23  C   LIG    1        3.806  32.770   5.216  0.00  0.00    +0.038 C 
ATOM     24  C   LIG    1        2.596  32.048   3.110  0.00  0.00    +0.038 C 
ENDBRANCH  20  21
ENDBRANCH  14  16
ENDBRANCH  13  14
ENDBRANCH   1  13
TORSDOF 5
ENDMDL
MODEL 4
REMARK VINA RESULT:      -6.5      1.416      5.911
REMARK  Name = 
REMARK                            x       y       z     vdW  Elec       q    Type
REMARK                         _______ _______ _______ _____ _____    ______ ____
ROOT
ATOM      1  C   LIG    1       -1.012  30.907   5.598  0.00  0.00    +0.352 C 
ENDROOT
BRANCH   1   4
ATOM      2  O   LIG    1       -1.617  32.801   3.486  0.00  0.00    -0.270 OA
ATOM      3  C   LIG    1       -0.840  33.040   4.392  0.00  0.00    +0.252 C 
ATOM      4  N   LIG    1       -0.475  32.239   5.427  0.00  0.00    -0.200 N 
ATOM      5  C   LIG    1        0.425  32.873   6.225  0.00  0.00    +0.252 C 
ATOM      6  O   LIG    1        0.988  32.502   7.239  0.00  0.00    -0.270 OA
ATOM      7  C   LIG    1        0.644  34.198   5.639  0.00  0.00    +0.023 C 
ATOM      8  C   LIG    1        1.545  35.228   6.179  0.00  0.00    +0.041 C 
ATOM      9  C   LIG    1        1.522  36.549   5.398  0.00  0.00    +0.005 C 
ATOM     10  C   LIG    1        0.744  36.629   4.071  0.00  0.00    +0.005 C 
ATOM     11  C   LIG    1       -0.193  35.479   3.669  0.00  0.00    +0.041 C 
ATOM     12  C   LIG    1       -0.110  34.302   4.550  0.00  0.00    +0.023 C 
ENDBRANCH   1   4
BRANCH   1  13
ATOM     13  O   LIG    1       -0.282  29.987   4.805  0.00  0.00    -0.444 OA
BRANCH  13  14
ATOM     14  C   LIG    1        0.674  29.292   5.457  0.00  0.00    +0.313 C 
ATOM     15  O   LIG    1        0.799  29.209   6.671  0.00  0.00    -0.250 OA
BRANCH  14  16
ATOM     16  C   LIG    1        1.531  28.585   4.477  0.00  0.00    +0.111 C 
ATOM     17  C   LIG    1        2.790  27.794   4.794  0.00  0.00    -0.014 C 
ATOM     18  C   LIG    1        3.065  26.585   3.924  0.00  0.00    +0.012 C 
ATOM     19  C   LIG    1        3.251  27.600   6.216  0.00  0.00    +0.012 C 
ATOM     20  C   LIG    1        2.894  29.147   4.111  0.00  0.00    +0.032 C 
BRANCH  20  21
ATOM     21  C   LIG    1        3.398  30.347   4.798  0.00  0.00    -0.023 C 
ATOM     22  C   LIG    1        3.285  31.624   4.380  0.00  0.00    -0.079 C 
ATOM     23  C   LIG    1        3.846  32.763   5.189  0.00  0.00    +0.038 C 
ATOM     24  C   LIG    1        2.615  32.034   3.097  0.00  0.00    +0.038 C 
ENDBRANCH  20  21
ENDBRANCH  14  16
ENDBRANCH  13  14
ENDBRANCH   1  13
TORSDOF 5
ENDMDL
MODEL 5
REMARK VINA RESULT:      -6.4      1.162      3.379
REMARK  Name = 
REMARK                            x       y       z     vdW  Elec       q    Type
REMARK                         _______ _______ _______ _____ _____    ______ ____
ROOT
ATOM      1  C   LIG    1       -0.680  30.635   6.517  0.00  0.00    +0.352 C 
ENDROOT
BRANCH   1   4
ATOM      2  O   LIG    1        2.017  31.175   7.439  0.00  0.00    -0.270 OA
ATOM      3  C   LIG    1        1.748  30.291   6.646  0.00  0.00    +0.252 C 
ATOM      4  N   LIG    1        0.535  29.947   6.141  0.00  0.00    -0.200 N 
ATOM      5  C   LIG    1        0.658  28.906   5.275  0.00  0.00    +0.252 C 
ATOM      6  O   LIG    1       -0.181  28.312   4.622  0.00  0.00    -0.270 OA
ATOM      7  C   LIG    1        2.081  28.560   5.236  0.00  0.00    +0.023 C 
ATOM      8  C   LIG    1        2.671  27.482   4.427  0.00  0.00    +0.041 C 
ATOM      9  C   LIG    1        4.180  27.299   4.637  0.00  0.00    +0.005 C 
ATOM     10  C   LIG    1        4.954  28.324   5.489  0.00  0.00    +0.005 C 
ATOM     11  C   LIG    1        4.182  29.365   6.313  0.00  0.00    +0.041 C 
ATOM     12  C   LIG    1        2.733  29.379   6.053  0.00  0.00    +0.023 C 
ENDBRANCH   1   4
BRANCH   1  13
ATOM     13  O   LIG    1       -1.031  31.577   5.518  0.00  0.00    -0.444 OA
BRANCH  13  14
ATOM     14  C   LIG    1       -0.197  32.632   5.398  0.00  0.00    +0.313 C 
ATOM     15  O   LIG    1       -0.102  33.564   6.185  0.00  0.00    -0.250 OA
BRANCH  14  16
ATOM     16  C   LIG    1        0.641  32.470   4.188  0.00  0.00    +0.111 C 
ATOM     17  C   LIG    1        2.083  32.924   4.029  0.00  0.00    -0.014 C 
ATOM     18  C   LIG    1        2.969  32.063   3.154  0.00  0.00    +0.012 C 
ATOM     19  C   LIG    1        2.835  33.547   5.178  0.00  0.00    +0.012 C 
ATOM     20  C   LIG    1        0.969  33.673   3.320  0.00  0.00    +0.032 C 
BRANCH  20  21
ATOM     21  C   LIG    1        0.525  35.014   3.733  0.00  0.00    -0.023 C 
ATOM     22  C   LIG    1       -0.710  35.537   3.588  0.00  0.00    -0.079 C 
ATOM     23  C   LIG    1       -1.030  36.929   4.062  0.00  0.00    +0.038 C 
ATOM     24  C   LIG    1       -1.862  34.811   2.946  0.00  0.00    +0.038 C 
ENDBRANCH  20  21
ENDBRANCH  14  16
ENDBRANCH  13  14
ENDBRANCH   1  13
TORSDOF 5
ENDMDL
MODEL 6
REMARK VINA RESULT:      -6.4      1.160      2.858
REMARK  Name = 
REMARK                            x       y       z     vdW  Elec       q    Type
REMARK                         _______ _______ _______ _____ _____    ______ ____
ROOT
ATOM      1  C   LIG    1       -0.662  30.642   6.490  0.00  0.00    +0.352 C 
ENDROOT
BRANCH   1   4
ATOM      2  O   LIG    1       -0.286  28.451   4.627  0.00  0.00    -0.270 OA
ATOM      3  C   LIG    1        0.626  28.951   5.260  0.00  0.00    +0.252 C 
ATOM      4  N   LIG    1        0.574  29.970   6.158  0.00  0.00    -0.200 N 
ATOM      5  C   LIG    1        1.813  30.230   6.654  0.00  0.00    +0.252 C 
ATOM      6  O   LIG    1        2.185  31.053   7.470  0.00  0.00    -0.270 OA
ATOM      7  C   LIG    1        2.730  29.289   6.006  0.00  0.00    +0.023 C 
ATOM      8  C   LIG    1        4.180  29.215   6.244  0.00  0.00    +0.041 C 
ATOM      9  C   LIG    1        4.903  28.181   5.371  0.00  0.00    +0.005 C 
ATOM     10  C   LIG    1        4.077  27.219   4.497  0.00  0.00    +0.005 C 
ATOM     11  C   LIG    1        2.570  27.461   4.317  0.00  0.00    +0.041 C 
ATOM     12  C   LIG    1        2.028  28.529   5.172  0.00  0.00    +0.023 C 
ENDBRANCH   1   4
BRANCH   1  13
ATOM     13  O   LIG    1       -0.975  31.599   5.493  0.00  0.00    -0.444 OA
BRANCH  13  14
ATOM     14  C   LIG    1       -0.102  32.622   5.376  0.00  0.00    +0.313 C 
ATOM     15  O   LIG    1        0.033  33.544   6.169  0.00  0.00    -0.250 OA
BRANCH  14  16
ATOM     16  C   LIG    1        0.723  32.436   4.161  0.00  0.00    +0.111 C 
ATOM     17  C   LIG    1        2.170  32.867   3.986  0.00  0.00    -0.014 C 
ATOM     18  C   LIG    1        3.036  31.985   3.111  0.00  0.00    +0.012 C 
ATOM     19  C   LIG    1        2.941  33.489   5.123  0.00  0.00    +0.012 C 
ATOM     20  C   LIG    1        1.061  33.626   3.279  0.00  0.00    +0.032 C 
BRANCH  20  21
ATOM     21  C   LIG    1        0.641  34.977   3.683  0.00  0.00    -0.023 C 
ATOM     22  C   LIG    1       -0.597  35.503   3.579  0.00  0.00    -0.079 C 
ATOM     23  C   LIG    1       -0.891  36.906   4.039  0.00  0.00    +0.038 C 
ATOM     24  C   LIG    1       -1.777  34.771   3.001  0.00  0.00    +0.038 C 
ENDBRANCH  20  21
ENDBRANCH  14  16
ENDBRANCH  13  14
ENDBRANCH   1  13
TORSDOF 5
ENDMDL
MODEL 7
REMARK VINA RESULT:      -6.1      1.545      5.374
REMARK  Name = 
REMARK                            x       y       z     vdW  Elec       q    Type
REMARK                         _______ _______ _______ _____ _____    ______ ____
ROOT
ATOM      1  C   LIG    1       -1.567  31.598   5.636  0.00  0.00    +0.352 C 
ENDROOT
BRANCH   1   4
ATOM      2  O   LIG    1       -0.624  32.628   3.093  0.00  0.00    -0.270 OA
ATOM      3  C   LIG    1       -0.392  33.170   4.158  0.00  0.00    +0.252 C 
ATOM      4  N   LIG    1       -0.773  32.784   5.404  0.00  0.00    -0.200 N 
ATOM      5  C   LIG    1       -0.307  33.658   6.336  0.00  0.00    +0.252 C 
ATOM      6  O   LIG    1       -0.427  33.667   7.547  0.00  0.00    -0.270 OA
ATOM      7  C   LIG    1        0.433  34.691   5.607  0.00  0.00    +0.023 C 
ATOM      8  C   LIG    1        1.109  35.845   6.221  0.00  0.00    +0.041 C 
ATOM      9  C   LIG    1        1.745  36.807   5.209  0.00  0.00    +0.005 C 
ATOM     10  C   LIG    1        1.790  36.415   3.719  0.00  0.00    +0.005 C 
ATOM     11  C   LIG    1        0.990  35.198   3.229  0.00  0.00    +0.041 C 
ATOM     12  C   LIG    1        0.381  34.407   4.311  0.00  0.00    +0.023 C 
ENDBRANCH   1   4
BRANCH   1  13
ATOM     13  O   LIG    1       -0.874  30.714   6.501  0.00  0.00    -0.444 OA
BRANCH  13  14
ATOM     14  C   LIG    1        0.197  30.095   5.960  0.00  0.00    +0.313 C 
ATOM     15  O   LIG    1        0.167  29.110   5.236  0.00  0.00    -0.250 OA
BRANCH  14  16
ATOM     16  C   LIG    1        1.432  30.826   6.328  0.00  0.00    +0.111 C 
ATOM     17  C   LIG    1        2.539  31.249   5.377  0.00  0.00    -0.014 C 
ATOM     18  C   LIG    1        3.248  32.548   5.701  0.00  0.00    +0.012 C 
ATOM     19  C   LIG    1        2.428  31.006   3.893  0.00  0.00    +0.012 C 
ATOM     20  C   LIG    1        2.768  30.104   6.348  0.00  0.00    +0.032 C 
BRANCH  20  21
ATOM     21  C   LIG    1        2.846  28.700   5.915  0.00  0.00    -0.023 C 
ATOM     22  C   LIG    1        3.915  28.077   5.378  0.00  0.00    -0.079 C 
ATOM     23  C   LIG    1        3.857  26.626   4.981  0.00  0.00    +0.038 C 
ATOM     24  C   LIG    1        5.236  28.748   5.117  0.00  0.00    +0.038 C 
ENDBRANCH  20  21
ENDBRANCH  14  16
ENDBRANCH  13  14
ENDBRANCH   1  13
TORSDOF 5
ENDMDL
MODEL 8
REMARK VINA RESULT:      -5.4      2.104      6.231
REMARK  Name = 
REMARK                            x       y       z     vdW  Elec       q    Type
REMARK                         _______ _______ _______ _____ _____    ______ ____
ROOT
ATOM      1  C   LIG    1        4.492  31.124   4.576  0.00  0.00    +0.352 C 
ENDROOT
BRANCH   1   4
ATOM      2  O   LIG    1        3.901  33.158   6.558  0.00  0.00    -0.270 OA
ATOM      3  C   LIG    1        3.374  33.125   5.461  0.00  0.00    +0.252 C 
ATOM      4  N   LIG    1        3.565  32.227   4.458  0.00  0.00    -0.200 N 
ATOM      5  C   LIG    1        2.780  32.533   3.391  0.00  0.00    +0.252 C 
ATOM      6  O   LIG    1        2.657  31.983   2.312  0.00  0.00    -0.270 OA
ATOM      7  C   LIG    1        2.028  33.737   3.755  0.00  0.00    +0.023 C 
ATOM      8  C   LIG    1        1.054  34.424   2.893  0.00  0.00    +0.041 C 
ATOM      9  C   LIG    1        0.471  35.703   3.506  0.00  0.00    +0.005 C 
ATOM     10  C   LIG    1        0.787  36.050   4.974  0.00  0.00    +0.005 C 
ATOM     11  C   LIG    1        1.868  35.257   5.726  0.00  0.00    +0.041 C 
ATOM     12  C   LIG    1        2.382  34.094   4.985  0.00  0.00    +0.023 C 
ENDBRANCH   1   4
BRANCH   1  13
ATOM     13  O   LIG    1        3.786  29.925   4.844  0.00  0.00    -0.444 OA
BRANCH  13  14
ATOM     14  C   LIG    1        3.654  29.609   6.150  0.00  0.00    +0.313 C 
ATOM     15  O   LIG    1        4.352  30.029   7.063  0.00  0.00    -0.250 OA
BRANCH  14  16
ATOM     16  C   LIG    1        2.490  28.713   6.330  0.00  0.00    +0.111 C 
ATOM     17  C   LIG    1        1.290  28.605   5.402  0.00  0.00    -0.014 C 
ATOM     18  C   LIG    1        0.657  27.235   5.273  0.00  0.00    +0.012 C 
ATOM     19  C   LIG    1        1.223  29.396   4.119  0.00  0.00    +0.012 C 
ATOM     20  C   LIG    1        1.146  29.283   6.753  0.00  0.00    +0.032 C 
BRANCH  20  21
ATOM     21  C   LIG    1        0.985  30.739   6.898  0.00  0.00    -0.023 C 
ATOM     22  C   LIG    1       -0.099  31.469   6.563  0.00  0.00    -0.079 C 
ATOM     23  C   LIG    1       -0.132  32.959   6.770  0.00  0.00    +0.038 C 
ATOM     24  C   LIG    1       -1.349  30.890   5.957  0.00  0.00    +0.038 C 
ENDBRANCH  20  21
ENDBRANCH  14  16
ENDBRANCH  13  14
ENDBRANCH   1  13
TORSDOF 5
ENDMDL
MODEL 9
REMARK VINA RESULT:      -5.3      1.921      3.719
REMARK  Name = 
REMARK                            x       y       z     vdW  Elec       q    Type
REMARK                         _______ _______ _______ _____ _____    ______ ____
ROOT
ATOM      1  C   LIG    1        3.288  33.225   3.972  0.00  0.00    +0.352 C 
ENDROOT
BRANCH   1   4
ATOM      2  O   LIG    1        5.238  31.557   5.325  0.00  0.00    -0.270 OA
ATOM      3  C   LIG    1        4.200  31.124   4.859  0.00  0.00    +0.252 C 
ATOM      4  N   LIG    1        3.220  31.799   4.205  0.00  0.00    -0.200 N 
ATOM      5  C   LIG    1        2.224  30.951   3.834  0.00  0.00    +0.252 C 
ATOM      6  O   LIG    1        1.184  31.160   3.236  0.00  0.00    -0.270 OA
ATOM      7  C   LIG    1        2.613  29.618   4.302  0.00  0.00    +0.023 C 
ATOM      8  C   LIG    1        1.825  28.390   4.119  0.00  0.00    +0.041 C 
ATOM      9  C   LIG    1        2.443  27.149   4.776  0.00  0.00    +0.005 C 
ATOM     10  C   LIG    1        3.858  27.238   5.380  0.00  0.00    +0.005 C 
ATOM     11  C   LIG    1        4.530  28.611   5.540  0.00  0.00    +0.041 C 
ATOM     12  C   LIG    1        3.787  29.718   4.916  0.00  0.00    +0.023 C 
ENDBRANCH   1   4
BRANCH   1  13
ATOM     13  O   LIG    1        1.981  33.759   3.853  0.00  0.00    -0.444 OA
BRANCH  13  14
ATOM     14  C   LIG    1        1.444  34.238   4.995  0.00  0.00    +0.313 C 
ATOM     15  O   LIG    1        1.981  35.022   5.766  0.00  0.00    -0.250 OA
BRANCH  14  16
ATOM     16  C   LIG    1        0.068  33.716   5.157  0.00  0.00    +0.111 C 
ATOM     17  C   LIG    1       -0.795  33.834   6.402  0.00  0.00    -0.014 C 
ATOM     18  C   LIG    1       -2.286  33.976   6.180  0.00  0.00    +0.012 C 
ATOM     19  C   LIG    1       -0.316  34.596   7.613  0.00  0.00    +0.012 C 
ATOM     20  C   LIG    1       -0.187  32.495   6.025  0.00  0.00    +0.032 C 
BRANCH  20  21
ATOM     21  C   LIG    1        0.924  31.887   6.775  0.00  0.00    -0.023 C 
ATOM     22  C   LIG    1        1.004  30.613   7.210  0.00  0.00    -0.079 C 
ATOM     23  C   LIG    1        2.208  30.120   7.967  0.00  0.00    +0.038 C 
ATOM     24  C   LIG    1       -0.073  29.583   7.002  0.00  0.00    +0.038 C 
ENDBRANCH  20  21
ENDBRANCH  14  16
ENDBRANCH  13  14
ENDBRANCH   1  13
TORSDOF 5
ENDMDL
