MODEL 1
REMARK VINA RESULT:      -8.0      0.000      0.000
REMARK  Name = 
REMARK                            x       y       z     vdW  Elec       q    Type
REMARK                         _______ _______ _______ _____ _____    ______ ____
ROOT
ATOM      1  C   LIG    1      -45.776  12.129 -44.252  0.00  0.00    +0.352 C 
ENDROOT
BRANCH   1   4
ATOM      2  O   LIG    1      -48.512  12.817 -43.575  0.00  0.00    -0.270 OA
ATOM      3  C   LIG    1      -47.815  12.098 -42.882  0.00  0.00    +0.252 C 
ATOM      4  N   LIG    1      -46.530  11.711 -43.090  0.00  0.00    -0.200 N 
ATOM      5  C   LIG    1      -46.105  10.909 -42.078  0.00  0.00    +0.252 C 
ATOM      6  O   LIG    1      -45.032  10.364 -41.892  0.00  0.00    -0.270 OA
ATOM      7  C   LIG    1      -47.230  10.777 -41.148  0.00  0.00    +0.023 C 
ATOM      8  C   LIG    1      -47.217   9.991 -39.904  0.00  0.00    +0.041 C 
ATOM      9  C   LIG    1      -48.560   9.974 -39.163  0.00  0.00    +0.005 C 
ATOM     10  C   LIG    1      -49.704  10.884 -39.650  0.00  0.00    +0.005 C 
ATOM     11  C   LIG    1      -49.577  11.607 -41.000  0.00  0.00    +0.041 C 
ATOM     12  C   LIG    1      -48.251  11.480 -41.626  0.00  0.00    +0.023 C 
ENDBRANCH   1   4
BRANCH   1  13
ATOM     13  O   LIG    1      -46.035  11.254 -45.336  0.00  0.00    -0.444 OA
BRANCH  13  14
ATOM     14  C   LIG    1      -45.194  10.203 -45.446  0.00  0.00    +0.313 C 
ATOM     15  O   LIG    1      -44.081  10.121 -44.945  0.00  0.00    -0.250 OA
BRANCH  14  16
ATOM     16  C   LIG    1      -45.844   9.125 -46.225  0.00  0.00    +0.111 C 
ATOM     17  C   LIG    1      -47.337   8.853 -46.306  0.00  0.00    -0.014 C 
ATOM     18  C   LIG    1      -47.856   8.316 -47.624  0.00  0.00    +0.012 C 
ATOM     19  C   LIG    1      -48.332   9.753 -45.617  0.00  0.00    +0.012 C 
ATOM     20  C   LIG    1      -46.438   7.921 -45.512  0.00  0.00    +0.032 C 
BRANCH  20  21
ATOM     21  C   LIG    1      -46.443   7.874 -44.042  0.00  0.00    -0.023 C 
ATOM     22  C   LIG    1      -46.179   6.802 -43.267  0.00  0.00    -0.079 C 
ATOM     23  C   LIG    1      -46.217   6.894 -41.765  0.00  0.00    +0.038 C 
ATOM     24  C   LIG    1      -45.839   5.438 -43.804  0.00  0.00    +0.038 C 
ENDBRANCH  20  21
ENDBRANCH  14  16
ENDBRANCH  13  14
ENDBRANCH   1  13
TORSDOF 5
ENDMDL
MODEL 2
REMARK VINA RESULT:      -8.0      3.182      5.941
REMARK  Name = 
REMARK                            x       y       z     vdW  Elec       q    Type
REMARK                         _______ _______ _______ _____ _____    ______ ____
ROOT
ATOM      1  C   LIG    1      -43.881  10.206 -44.070  0.00  0.00    +0.352 C 
ENDROOT
BRANCH   1   4
ATOM      2  O   LIG    1      -43.936  12.597 -42.429  0.00  0.00    -0.270 OA
ATOM      3  C   LIG    1      -43.164  12.444 -43.357  0.00  0.00    +0.252 C 
ATOM      4  N   LIG    1      -43.047  11.380 -44.194  0.00  0.00    -0.200 N 
ATOM      5  C   LIG    1      -42.065  11.600 -45.109  0.00  0.00    +0.252 C 
ATOM      6  O   LIG    1      -41.656  10.903 -46.019  0.00  0.00    -0.270 OA
ATOM      7  C   LIG    1      -41.511  12.925 -44.818  0.00  0.00    +0.023 C 
ATOM      8  C   LIG    1      -40.419  13.572 -45.562  0.00  0.00    +0.041 C 
ATOM      9  C   LIG    1      -39.994  14.930 -44.991  0.00  0.00    +0.005 C 
ATOM     10  C   LIG    1      -40.823  15.568 -43.860  0.00  0.00    +0.005 C 
ATOM     11  C   LIG    1      -41.907  14.739 -43.152  0.00  0.00    +0.041 C 
ATOM     12  C   LIG    1      -42.160  13.429 -43.774  0.00  0.00    +0.023 C 
ENDBRANCH   1   4
BRANCH   1  13
ATOM     13  O   LIG    1      -45.162  10.463 -44.621  0.00  0.00    -0.444 OA
BRANCH  13  14
ATOM     14  C   LIG    1      -46.202  10.277 -43.781  0.00  0.00    +0.313 C 
ATOM     15  O   LIG    1      -47.254  10.902 -43.792  0.00  0.00    -0.250 OA
BRANCH  14  16
ATOM     16  C   LIG    1      -45.906   9.151 -42.865  0.00  0.00    +0.111 C 
ATOM     17  C   LIG    1      -46.702   7.862 -42.744  0.00  0.00    -0.014 C 
ATOM     18  C   LIG    1      -45.914   6.611 -42.415  0.00  0.00    +0.012 C 
ATOM     19  C   LIG    1      -47.877   7.583 -43.647  0.00  0.00    +0.012 C 
ATOM     20  C   LIG    1      -46.783   8.909 -41.647  0.00  0.00    +0.032 C 
BRANCH  20  21
ATOM     21  C   LIG    1      -47.977   9.741 -41.430  0.00  0.00    -0.023 C 
ATOM     22  C   LIG    1      -48.554  10.033 -40.247  0.00  0.00    -0.079 C 
ATOM     23  C   LIG    1      -49.778  10.905 -40.168  0.00  0.00    +0.038 C 
ATOM     24  C   LIG    1      -48.058   9.526 -38.920  0.00  0.00    +0.038 C 
ENDBRANCH  20  21
ENDBRANCH  14  16
ENDBRANCH  13  14
ENDBRANCH   1  13
TORSDOF 5
ENDMDL
MODEL 3
REMARK VINA RESULT:      -7.9      3.260      6.099
REMARK  Name = 
REMARK                            x       y       z     vdW  Elec       q    Type
REMARK                         _______ _______ _______ _____ _____    ______ ____
ROOT
ATOM      1  C   LIG    1      -43.704  10.263 -44.082  0.00  0.00    +0.352 C 
ENDROOT
BRANCH   1   4
ATOM      2  O   LIG    1      -41.584  10.910 -45.954  0.00  0.00    -0.270 OA
ATOM      3  C   LIG    1      -41.949  11.667 -45.073  0.00  0.00    +0.252 C 
ATOM      4  N   LIG    1      -42.919  11.476 -44.142  0.00  0.00    -0.200 N 
ATOM      5  C   LIG    1      -43.018  12.561 -43.328  0.00  0.00    +0.252 C 
ATOM      6  O   LIG    1      -43.753  12.781 -42.383  0.00  0.00    -0.270 OA
ATOM      7  C   LIG    1      -42.018  13.525 -43.794  0.00  0.00    +0.023 C 
ATOM      8  C   LIG    1      -41.776  14.850 -43.202  0.00  0.00    +0.041 C 
ATOM      9  C   LIG    1      -40.716  15.679 -43.940  0.00  0.00    +0.005 C 
ATOM     10  C   LIG    1      -39.895  15.024 -45.068  0.00  0.00    +0.005 C 
ATOM     11  C   LIG    1      -40.307  13.644 -45.605  0.00  0.00    +0.041 C 
ATOM     12  C   LIG    1      -41.383  12.999 -44.835  0.00  0.00    +0.023 C 
ENDBRANCH   1   4
BRANCH   1  13
ATOM     13  O   LIG    1      -45.031  10.523 -44.507  0.00  0.00    -0.444 OA
BRANCH  13  14
ATOM     14  C   LIG    1      -45.967  10.487 -43.535  0.00  0.00    +0.313 C 
ATOM     15  O   LIG    1      -46.862  11.306 -43.370  0.00  0.00    -0.250 OA
BRANCH  14  16
ATOM     16  C   LIG    1      -45.790   9.265 -42.718  0.00  0.00    +0.111 C 
ATOM     17  C   LIG    1      -46.628   8.000 -42.805  0.00  0.00    -0.014 C 
ATOM     18  C   LIG    1      -45.909   6.694 -42.537  0.00  0.00    +0.012 C 
ATOM     19  C   LIG    1      -47.720   7.857 -43.835  0.00  0.00    +0.012 C 
ATOM     20  C   LIG    1      -46.783   8.933 -41.617  0.00  0.00    +0.032 C 
BRANCH  20  21
ATOM     21  C   LIG    1      -47.970   9.782 -41.424  0.00  0.00    -0.023 C 
ATOM     22  C   LIG    1      -48.564  10.086 -40.252  0.00  0.00    -0.079 C 
ATOM     23  C   LIG    1      -49.777  10.975 -40.198  0.00  0.00    +0.038 C 
ATOM     24  C   LIG    1      -48.098   9.576 -38.915  0.00  0.00    +0.038 C 
ENDBRANCH  20  21
ENDBRANCH  14  16
ENDBRANCH  13  14
ENDBRANCH   1  13
TORSDOF 5
ENDMDL
MODEL 4
REMARK VINA RESULT:      -7.8      2.997      5.459
REMARK  Name = 
REMARK                            x       y       z     vdW  Elec       q    Type
REMARK                         _______ _______ _______ _____ _____    ______ ____
ROOT
ATOM      1  C   LIG    1      -45.369  10.285 -43.657  0.00  0.00    +0.352 C 
ENDROOT
BRANCH   1   4
ATOM      2  O   LIG    1      -46.405   9.036 -41.253  0.00  0.00    -0.270 OA
ATOM      3  C   LIG    1      -46.913  10.016 -41.766  0.00  0.00    +0.252 C 
ATOM      4  N   LIG    1      -46.525  10.683 -42.885  0.00  0.00    -0.200 N 
ATOM      5  C   LIG    1      -47.361  11.725 -43.132  0.00  0.00    +0.252 C 
ATOM      6  O   LIG    1      -47.358  12.553 -44.025  0.00  0.00    -0.270 OA
ATOM      7  C   LIG    1      -48.368  11.716 -42.068  0.00  0.00    +0.023 C 
ATOM      8  C   LIG    1      -49.475  12.675 -41.937  0.00  0.00    +0.041 C 
ATOM      9  C   LIG    1      -50.335  12.469 -40.682  0.00  0.00    +0.005 C 
ATOM     10  C   LIG    1      -50.102  11.225 -39.803  0.00  0.00    +0.005 C 
ATOM     11  C   LIG    1      -48.867  10.343 -40.046  0.00  0.00    +0.041 C 
ATOM     12  C   LIG    1      -48.102  10.702 -41.251  0.00  0.00    +0.023 C 
ENDBRANCH   1   4
BRANCH   1  13
ATOM     13  O   LIG    1      -44.185  10.739 -43.024  0.00  0.00    -0.444 OA
BRANCH  13  14
ATOM     14  C   LIG    1      -43.890  12.043 -43.214  0.00  0.00    +0.313 C 
ATOM     15  O   LIG    1      -43.707  12.872 -42.333  0.00  0.00    -0.250 OA
BRANCH  14  16
ATOM     16  C   LIG    1      -43.759  12.317 -44.663  0.00  0.00    +0.111 C 
ATOM     17  C   LIG    1      -42.492  12.175 -45.491  0.00  0.00    -0.014 C 
ATOM     18  C   LIG    1      -42.671  11.739 -46.930  0.00  0.00    +0.012 C 
ATOM     19  C   LIG    1      -41.217  11.648 -44.882  0.00  0.00    +0.012 C 
ATOM     20  C   LIG    1      -43.019  13.556 -45.141  0.00  0.00    +0.032 C 
BRANCH  20  21
ATOM     21  C   LIG    1      -42.357  14.434 -44.162  0.00  0.00    -0.023 C 
ATOM     22  C   LIG    1      -41.309  15.251 -44.389  0.00  0.00    -0.079 C 
ATOM     23  C   LIG    1      -40.730  16.103 -43.292  0.00  0.00    +0.038 C 
ATOM     24  C   LIG    1      -40.621  15.388 -45.721  0.00  0.00    +0.038 C 
ENDBRANCH  20  21
ENDBRANCH  14  16
ENDBRANCH  13  14
ENDBRANCH   1  13
TORSDOF 5
ENDMDL
MODEL 5
REMARK VINA RESULT:      -7.8      3.480      6.249
REMARK  Name = 
REMARK                            x       y       z     vdW  Elec       q    Type
REMARK                         _______ _______ _______ _____ _____    ______ ____
ROOT
ATOM      1  C   LIG    1      -43.388  10.478 -44.061  0.00  0.00    +0.352 C 
ENDROOT
BRANCH   1   4
ATOM      2  O   LIG    1      -41.265  11.089 -45.942  0.00  0.00    -0.270 OA
ATOM      3  C   LIG    1      -41.648  11.872 -45.092  0.00  0.00    +0.252 C 
ATOM      4  N   LIG    1      -42.623  11.701 -44.160  0.00  0.00    -0.200 N 
ATOM      5  C   LIG    1      -42.744  12.813 -43.389  0.00  0.00    +0.252 C 
ATOM      6  O   LIG    1      -43.489  13.057 -42.457  0.00  0.00    -0.270 OA
ATOM      7  C   LIG    1      -41.756  13.776 -43.883  0.00  0.00    +0.023 C 
ATOM      8  C   LIG    1      -41.539  15.125 -43.339  0.00  0.00    +0.041 C 
ATOM      9  C   LIG    1      -40.487  15.942 -44.100  0.00  0.00    +0.005 C 
ATOM     10  C   LIG    1      -39.648  15.259 -45.198  0.00  0.00    +0.005 C 
ATOM     11  C   LIG    1      -40.035  13.855 -45.686  0.00  0.00    +0.041 C 
ATOM     12  C   LIG    1      -41.105  13.221 -44.899  0.00  0.00    +0.023 C 
ENDBRANCH   1   4
BRANCH   1  13
ATOM     13  O   LIG    1      -44.762  10.748 -44.282  0.00  0.00    -0.444 OA
BRANCH  13  14
ATOM     14  C   LIG    1      -45.624   9.936 -43.634  0.00  0.00    +0.313 C 
ATOM     15  O   LIG    1      -45.319   8.989 -42.922  0.00  0.00    -0.250 OA
BRANCH  14  16
ATOM     16  C   LIG    1      -47.012  10.397 -43.865  0.00  0.00    +0.111 C 
ATOM     17  C   LIG    1      -47.691  11.573 -43.182  0.00  0.00    -0.014 C 
ATOM     18  C   LIG    1      -48.695  12.347 -44.011  0.00  0.00    +0.012 C 
ATOM     19  C   LIG    1      -46.939  12.453 -42.215  0.00  0.00    +0.012 C 
ATOM     20  C   LIG    1      -48.082  10.153 -42.814  0.00  0.00    +0.032 C 
BRANCH  20  21
ATOM     21  C   LIG    1      -47.715   9.536 -41.529  0.00  0.00    -0.023 C 
ATOM     22  C   LIG    1      -48.323   9.724 -40.340  0.00  0.00    -0.079 C 
ATOM     23  C   LIG    1      -47.844   9.023 -39.098  0.00  0.00    +0.038 C 
ATOM     24  C   LIG    1      -49.502  10.636 -40.132  0.00  0.00    +0.038 C 
ENDBRANCH  20  21
ENDBRANCH  14  16
ENDBRANCH  13  14
ENDBRANCH   1  13
TORSDOF 5
ENDMDL
MODEL 6
REMARK VINA RESULT:      -7.7      1.320      3.152
REMARK  Name = 
REMARK                            x       y       z     vdW  Elec       q    Type
REMARK                         _______ _______ _______ _____ _____    ______ ____
ROOT
ATOM      1  C   LIG    1      -46.247  12.178 -44.677  0.00  0.00    +0.352 C 
ENDROOT
BRANCH   1   4
ATOM      2  O   LIG    1      -48.832  12.793 -43.513  0.00  0.00    -0.270 OA
ATOM      3  C   LIG    1      -48.030  12.039 -42.993  0.00  0.00    +0.252 C 
ATOM      4  N   LIG    1      -46.797  11.679 -43.436  0.00  0.00    -0.200 N 
ATOM      5  C   LIG    1      -46.210  10.819 -42.562  0.00  0.00    +0.252 C 
ATOM      6  O   LIG    1      -45.122  10.274 -42.593  0.00  0.00    -0.270 OA
ATOM      7  C   LIG    1      -47.165  10.616 -41.470  0.00  0.00    +0.023 C 
ATOM      8  C   LIG    1      -46.945   9.753 -40.299  0.00  0.00    +0.041 C 
ATOM      9  C   LIG    1      -48.147   9.673 -39.348  0.00  0.00    +0.005 C 
ATOM     10  C   LIG    1      -49.355  10.601 -39.578  0.00  0.00    +0.005 C 
ATOM     11  C   LIG    1      -49.455  11.410 -40.881  0.00  0.00    +0.041 C 
ATOM     12  C   LIG    1      -48.251  11.337 -41.725  0.00  0.00    +0.023 C 
ENDBRANCH   1   4
BRANCH   1  13
ATOM     13  O   LIG    1      -45.857  11.095 -45.503  0.00  0.00    -0.444 OA
BRANCH  13  14
ATOM     14  C   LIG    1      -46.762  10.718 -46.431  0.00  0.00    +0.313 C 
ATOM     15  O   LIG    1      -46.786  11.083 -47.599  0.00  0.00    -0.250 OA
BRANCH  14  16
ATOM     16  C   LIG    1      -47.703   9.740 -45.840  0.00  0.00    +0.111 C 
ATOM     17  C   LIG    1      -47.370   8.316 -45.423  0.00  0.00    -0.014 C 
ATOM     18  C   LIG    1      -48.115   7.773 -44.221  0.00  0.00    +0.012 C 
ATOM     19  C   LIG    1      -45.963   7.784 -45.520  0.00  0.00    +0.012 C 
ATOM     20  C   LIG    1      -48.204   8.567 -46.668  0.00  0.00    +0.032 C 
BRANCH  20  21
ATOM     21  C   LIG    1      -47.683   8.359 -48.028  0.00  0.00    -0.023 C 
ATOM     22  C   LIG    1      -48.383   7.963 -49.110  0.00  0.00    -0.079 C 
ATOM     23  C   LIG    1      -47.721   7.792 -50.451  0.00  0.00    +0.038 C 
ATOM     24  C   LIG    1      -49.855   7.650 -49.092  0.00  0.00    +0.038 C 
ENDBRANCH  20  21
ENDBRANCH  14  16
ENDBRANCH  13  14
ENDBRANCH   1  13
TORSDOF 5
ENDMDL
MODEL 7
REMARK VINA RESULT:      -7.6      3.454      6.109
REMARK  Name = 
REMARK                            x       y       z     vdW  Elec       q    Type
REMARK                         _______ _______ _______ _____ _____    ______ ____
ROOT
ATOM      1  C   LIG    1      -43.495  10.509 -43.770  0.00  0.00    +0.352 C 
ENDROOT
BRANCH   1   4
ATOM      2  O   LIG    1      -43.530  13.035 -42.344  0.00  0.00    -0.270 OA
ATOM      3  C   LIG    1      -42.791  12.812 -43.285  0.00  0.00    +0.252 C 
ATOM      4  N   LIG    1      -42.686  11.680 -44.029  0.00  0.00    -0.200 N 
ATOM      5  C   LIG    1      -41.745  11.832 -44.997  0.00  0.00    +0.252 C 
ATOM      6  O   LIG    1      -41.358  11.063 -45.858  0.00  0.00    -0.270 OA
ATOM      7  C   LIG    1      -41.204  13.185 -44.846  0.00  0.00    +0.023 C 
ATOM      8  C   LIG    1      -40.152  13.779 -45.686  0.00  0.00    +0.041 C 
ATOM      9  C   LIG    1      -39.729  15.189 -45.253  0.00  0.00    +0.005 C 
ATOM     10  C   LIG    1      -40.527  15.912 -44.151  0.00  0.00    +0.005 C 
ATOM     11  C   LIG    1      -41.568  15.133 -43.331  0.00  0.00    +0.041 C 
ATOM     12  C   LIG    1      -41.821  13.770 -43.825  0.00  0.00    +0.023 C 
ENDBRANCH   1   4
BRANCH   1  13
ATOM     13  O   LIG    1      -44.819  10.725 -44.228  0.00  0.00    -0.444 OA
BRANCH  13  14
ATOM     14  C   LIG    1      -45.735   9.833 -43.793  0.00  0.00    +0.313 C 
ATOM     15  O   LIG    1      -45.494   8.731 -43.319  0.00  0.00    -0.250 OA
BRANCH  14  16
ATOM     16  C   LIG    1      -47.092  10.411 -43.922  0.00  0.00    +0.111 C 
ATOM     17  C   LIG    1      -47.650  11.573 -43.117  0.00  0.00    -0.014 C 
ATOM     18  C   LIG    1      -48.626  12.484 -43.834  0.00  0.00    +0.012 C 
ATOM     19  C   LIG    1      -46.795  12.314 -42.120  0.00  0.00    +0.012 C 
ATOM     20  C   LIG    1      -48.133  10.160 -42.844  0.00  0.00    +0.032 C 
BRANCH  20  21
ATOM     21  C   LIG    1      -47.762   9.414 -41.630  0.00  0.00    -0.023 C 
ATOM     22  C   LIG    1      -48.288   9.564 -40.398  0.00  0.00    -0.079 C 
ATOM     23  C   LIG    1      -47.815   8.728 -39.239  0.00  0.00    +0.038 C 
ATOM     24  C   LIG    1      -49.364  10.560 -40.056  0.00  0.00    +0.038 C 
ENDBRANCH  20  21
ENDBRANCH  14  16
ENDBRANCH  13  14
ENDBRANCH   1  13
TORSDOF 5
ENDMDL
MODEL 8
REMARK VINA RESULT:      -7.6      3.203      5.126
REMARK  Name = 
REMARK                            x       y       z     vdW  Elec       q    Type
REMARK                         _______ _______ _______ _____ _____    ______ ____
ROOT
ATOM      1  C   LIG    1      -45.848  11.835 -44.625  0.00  0.00    +0.352 C 
ENDROOT
BRANCH   1   4
ATOM      2  O   LIG    1      -48.492  12.626 -43.731  0.00  0.00    -0.270 OA
ATOM      3  C   LIG    1      -47.769  11.882 -43.094  0.00  0.00    +0.252 C 
ATOM      4  N   LIG    1      -46.520  11.446 -43.404  0.00  0.00    -0.200 N 
ATOM      5  C   LIG    1      -46.044  10.630 -42.427  0.00  0.00    +0.252 C 
ATOM      6  O   LIG    1      -44.981  10.045 -42.327  0.00  0.00    -0.270 OA
ATOM      7  C   LIG    1      -47.094  10.541 -41.409  0.00  0.00    +0.023 C 
ATOM      8  C   LIG    1      -47.009   9.756 -40.167  0.00  0.00    +0.041 C 
ATOM      9  C   LIG    1      -48.287   9.789 -39.319  0.00  0.00    +0.005 C 
ATOM     10  C   LIG    1      -49.432  10.742 -39.715  0.00  0.00    +0.005 C 
ATOM     11  C   LIG    1      -49.389  11.459 -41.073  0.00  0.00    +0.041 C 
ATOM     12  C   LIG    1      -48.123  11.281 -41.804  0.00  0.00    +0.023 C 
ENDBRANCH   1   4
BRANCH   1  13
ATOM     13  O   LIG    1      -44.750  12.680 -44.325  0.00  0.00    -0.444 OA
BRANCH  13  14
ATOM     14  C   LIG    1      -43.534  12.176 -44.623  0.00  0.00    +0.313 C 
ATOM     15  O   LIG    1      -43.293  11.350 -45.493  0.00  0.00    -0.250 OA
BRANCH  14  16
ATOM     16  C   LIG    1      -42.507  12.818 -43.771  0.00  0.00    +0.111 C 
ATOM     17  C   LIG    1      -41.881  14.184 -43.999  0.00  0.00    -0.014 C 
ATOM     18  C   LIG    1      -41.510  14.972 -42.759  0.00  0.00    +0.012 C 
ATOM     19  C   LIG    1      -42.333  15.070 -45.133  0.00  0.00    +0.012 C 
ATOM     20  C   LIG    1      -41.071  12.926 -44.258  0.00  0.00    +0.032 C 
BRANCH  20  21
ATOM     21  C   LIG    1      -40.724  12.470 -45.613  0.00  0.00    -0.023 C 
ATOM     22  C   LIG    1      -39.868  11.479 -45.938  0.00  0.00    -0.079 C 
ATOM     23  C   LIG    1      -39.607  11.112 -47.373  0.00  0.00    +0.038 C 
ATOM     24  C   LIG    1      -39.100  10.666 -44.931  0.00  0.00    +0.038 C 
ENDBRANCH  20  21
ENDBRANCH  14  16
ENDBRANCH  13  14
ENDBRANCH   1  13
TORSDOF 5
ENDMDL
MODEL 9
REMARK VINA RESULT:      -7.6      1.318      5.145
REMARK  Name = 
REMARK                            x       y       z     vdW  Elec       q    Type
REMARK                         _______ _______ _______ _____ _____    ______ ____
ROOT
ATOM      1  C   LIG    1      -44.738  11.986 -42.984  0.00  0.00    +0.352 C 
ENDROOT
BRANCH   1   4
ATOM      2  O   LIG    1      -43.824   9.370 -43.841  0.00  0.00    -0.270 OA
ATOM      3  C   LIG    1      -44.800   9.923 -44.314  0.00  0.00    +0.252 C 
ATOM      4  N   LIG    1      -45.319  11.139 -44.001  0.00  0.00    -0.200 N 
ATOM      5  C   LIG    1      -46.414  11.399 -44.763  0.00  0.00    +0.252 C 
ATOM      6  O   LIG    1      -47.152  12.367 -44.790  0.00  0.00    -0.270 OA
ATOM      7  C   LIG    1      -46.603  10.237 -45.635  0.00  0.00    +0.023 C 
ATOM      8  C   LIG    1      -47.678  10.086 -46.629  0.00  0.00    +0.041 C 
ATOM      9  C   LIG    1      -47.674   8.732 -47.351  0.00  0.00    +0.005 C 
ATOM     10  C   LIG    1      -46.499   7.761 -47.130  0.00  0.00    +0.005 C 
ATOM     11  C   LIG    1      -45.478   8.044 -46.016  0.00  0.00    +0.041 C 
ATOM     12  C   LIG    1      -45.647   9.355 -45.368  0.00  0.00    +0.023 C 
ENDBRANCH   1   4
BRANCH   1  13
ATOM     13  O   LIG    1      -45.644  12.137 -41.904  0.00  0.00    -0.444 OA
BRANCH  13  14
ATOM     14  C   LIG    1      -46.022  10.990 -41.301  0.00  0.00    +0.313 C 
ATOM     15  O   LIG    1      -45.281  10.200 -40.733  0.00  0.00    -0.250 OA
BRANCH  14  16
ATOM     16  C   LIG    1      -47.494  10.850 -41.377  0.00  0.00    +0.111 C 
ATOM     17  C   LIG    1      -48.377  10.119 -40.379  0.00  0.00    -0.014 C 
ATOM     18  C   LIG    1      -49.763  10.691 -40.158  0.00  0.00    +0.012 C 
ATOM     19  C   LIG    1      -47.799   9.507 -39.128  0.00  0.00    +0.012 C 
ATOM     20  C   LIG    1      -48.115   9.513 -41.746  0.00  0.00    +0.032 C 
BRANCH  20  21
ATOM     21  C   LIG    1      -47.253   8.337 -41.941  0.00  0.00    -0.023 C 
ATOM     22  C   LIG    1      -47.362   7.406 -42.911  0.00  0.00    -0.079 C 
ATOM     23  C   LIG    1      -46.403   6.249 -42.996  0.00  0.00    +0.038 C 
ATOM     24  C   LIG    1      -48.427   7.419 -43.974  0.00  0.00    +0.038 C 
ENDBRANCH  20  21
ENDBRANCH  14  16
ENDBRANCH  13  14
ENDBRANCH   1  13
TORSDOF 5
ENDMDL
