MODEL 1
REMARK VINA RESULT:      -7.4      0.000      0.000
REMARK  Name = 
REMARK                            x       y       z     vdW  Elec       q    Type
REMARK                         _______ _______ _______ _____ _____    ______ ____
ROOT
ATOM      1  C   LIG    1       22.803 -28.301 -12.433  0.00  0.00    +0.352 C 
ENDROOT
BRANCH   1   4
ATOM      2  O   LIG    1       25.596 -28.207 -13.209  0.00  0.00    -0.270 OA
ATOM      3  C   LIG    1       24.990 -27.241 -12.783  0.00  0.00    +0.252 C 
ATOM      4  N   LIG    1       23.693 -27.163 -12.386  0.00  0.00    -0.200 N 
ATOM      5  C   LIG    1       23.399 -25.904 -11.966  0.00  0.00    +0.252 C 
ATOM      6  O   LIG    1       22.362 -25.431 -11.539  0.00  0.00    -0.270 OA
ATOM      7  C   LIG    1       24.625 -25.115 -12.116  0.00  0.00    +0.023 C 
ATOM      8  C   LIG    1       24.764 -23.689 -11.782  0.00  0.00    +0.041 C 
ATOM      9  C   LIG    1       26.143 -23.103 -12.110  0.00  0.00    +0.005 C 
ATOM     10  C   LIG    1       27.277 -24.045 -12.561  0.00  0.00    +0.005 C 
ATOM     11  C   LIG    1       26.955 -25.506 -12.914  0.00  0.00    +0.041 C 
ATOM     12  C   LIG    1       25.573 -25.906 -12.606  0.00  0.00    +0.023 C 
ENDBRANCH   1   4
BRANCH   1  13
ATOM     13  O   LIG    1       22.279 -28.559 -11.141  0.00  0.00    -0.444 OA
BRANCH  13  14
ATOM     14  C   LIG    1       23.138 -29.129 -10.270  0.00  0.00    +0.313 C 
ATOM     15  O   LIG    1       23.151 -28.958  -9.059  0.00  0.00    -0.250 OA
BRANCH  14  16
ATOM     16  C   LIG    1       24.042 -30.052 -10.995  0.00  0.00    +0.111 C 
ATOM     17  C   LIG    1       24.755 -31.256 -10.402  0.00  0.00    -0.014 C 
ATOM     18  C   LIG    1       24.956 -32.442 -11.323  0.00  0.00    +0.012 C 
ATOM     19  C   LIG    1       24.531 -31.669  -8.969  0.00  0.00    +0.012 C 
ATOM     20  C   LIG    1       25.540 -30.003 -10.747  0.00  0.00    +0.032 C 
BRANCH  20  21
ATOM     21  C   LIG    1       26.081 -29.098  -9.721  0.00  0.00    -0.023 C 
ATOM     22  C   LIG    1       27.316 -28.556  -9.691  0.00  0.00    -0.079 C 
ATOM     23  C   LIG    1       27.739 -27.637  -8.577  0.00  0.00    +0.038 C 
ATOM     24  C   LIG    1       28.373 -28.811 -10.731  0.00  0.00    +0.038 C 
ENDBRANCH  20  21
ENDBRANCH  14  16
ENDBRANCH  13  14
ENDBRANCH   1  13
TORSDOF 5
ENDMDL
MODEL 2
REMARK VINA RESULT:      -7.1      1.234      5.274
REMARK  Name = 
REMARK                            x       y       z     vdW  Elec       q    Type
REMARK                         _______ _______ _______ _____ _____    ______ ____
ROOT
ATOM      1  C   LIG    1       22.806 -26.520 -12.342  0.00  0.00    +0.352 C 
ENDROOT
BRANCH   1   4
ATOM      2  O   LIG    1       21.961 -27.995  -9.992  0.00  0.00    -0.270 OA
ATOM      3  C   LIG    1       22.780 -28.420 -10.786  0.00  0.00    +0.252 C 
ATOM      4  N   LIG    1       23.255 -27.826 -11.912  0.00  0.00    -0.200 N 
ATOM      5  C   LIG    1       24.167 -28.626 -12.524  0.00  0.00    +0.252 C 
ATOM      6  O   LIG    1       24.814 -28.460 -13.541  0.00  0.00    -0.270 OA
ATOM      7  C   LIG    1       24.273 -29.839 -11.709  0.00  0.00    +0.023 C 
ATOM      8  C   LIG    1       25.148 -30.985 -12.001  0.00  0.00    +0.041 C 
ATOM      9  C   LIG    1       25.000 -32.151 -11.014  0.00  0.00    +0.005 C 
ATOM     10  C   LIG    1       24.135 -31.967  -9.752  0.00  0.00    +0.005 C 
ATOM     11  C   LIG    1       23.240 -30.725  -9.618  0.00  0.00    +0.041 C 
ATOM     12  C   LIG    1       23.446 -29.722 -10.676  0.00  0.00    +0.023 C 
ENDBRANCH   1   4
BRANCH   1  13
ATOM     13  O   LIG    1       23.891 -25.609 -12.335  0.00  0.00    -0.444 OA
BRANCH  13  14
ATOM     14  C   LIG    1       24.324 -25.234 -11.112  0.00  0.00    +0.313 C 
ATOM     15  O   LIG    1       23.680 -25.292 -10.074  0.00  0.00    -0.250 OA
BRANCH  14  16
ATOM     16  C   LIG    1       25.734 -24.789 -11.199  0.00  0.00    +0.111 C 
ATOM     17  C   LIG    1       26.750 -25.229 -12.240  0.00  0.00    -0.014 C 
ATOM     18  C   LIG    1       27.776 -24.197 -12.660  0.00  0.00    +0.012 C 
ATOM     19  C   LIG    1       26.360 -26.149 -13.370  0.00  0.00    +0.012 C 
ATOM     20  C   LIG    1       26.858 -25.736 -10.813  0.00  0.00    +0.032 C 
BRANCH  20  21
ATOM     21  C   LIG    1       26.546 -27.124 -10.438  0.00  0.00    -0.023 C 
ATOM     22  C   LIG    1       27.104 -27.836  -9.438  0.00  0.00    -0.079 C 
ATOM     23  C   LIG    1       26.685 -29.255  -9.160  0.00  0.00    +0.038 C 
ATOM     24  C   LIG    1       28.178 -27.307  -8.526  0.00  0.00    +0.038 C 
ENDBRANCH  20  21
ENDBRANCH  14  16
ENDBRANCH  13  14
ENDBRANCH   1  13
TORSDOF 5
ENDMDL
MODEL 3
REMARK VINA RESULT:      -6.9      1.610      2.085
REMARK  Name = 
REMARK                            x       y       z     vdW  Elec       q    Type
REMARK                         _______ _______ _______ _____ _____    ______ ____
ROOT
ATOM      1  C   LIG    1       22.849 -27.159 -10.184  0.00  0.00    +0.352 C 
ENDROOT
BRANCH   1   4
ATOM      2  O   LIG    1       25.750 -27.127 -10.208  0.00  0.00    -0.270 OA
ATOM      3  C   LIG    1       25.070 -26.306 -10.796  0.00  0.00    +0.252 C 
ATOM      4  N   LIG    1       23.715 -26.216 -10.855  0.00  0.00    -0.200 N 
ATOM      5  C   LIG    1       23.342 -25.150 -11.612  0.00  0.00    +0.252 C 
ATOM      6  O   LIG    1       22.237 -24.730 -11.905  0.00  0.00    -0.270 OA
ATOM      7  C   LIG    1       24.578 -24.513 -12.075  0.00  0.00    +0.023 C 
ATOM      8  C   LIG    1       24.649 -23.318 -12.931  0.00  0.00    +0.041 C 
ATOM      9  C   LIG    1       26.076 -22.912 -13.319  0.00  0.00    +0.005 C 
ATOM     10  C   LIG    1       27.271 -23.633 -12.666  0.00  0.00    +0.005 C 
ATOM     11  C   LIG    1       27.029 -24.900 -11.830  0.00  0.00    +0.041 C 
ATOM     12  C   LIG    1       25.608 -25.200 -11.595  0.00  0.00    +0.023 C 
ENDBRANCH   1   4
BRANCH   1  13
ATOM     13  O   LIG    1       22.109 -27.900 -11.139  0.00  0.00    -0.444 OA
BRANCH  13  14
ATOM     14  C   LIG    1       22.846 -28.598 -12.029  0.00  0.00    +0.313 C 
ATOM     15  O   LIG    1       23.445 -28.130 -12.988  0.00  0.00    -0.250 OA
BRANCH  14  16
ATOM     16  C   LIG    1       22.875 -30.027 -11.640  0.00  0.00    +0.111 C 
ATOM     17  C   LIG    1       23.374 -30.585 -10.318  0.00  0.00    -0.014 C 
ATOM     18  C   LIG    1       22.665 -31.816  -9.794  0.00  0.00    +0.012 C 
ATOM     19  C   LIG    1       23.839 -29.671  -9.211  0.00  0.00    +0.012 C 
ATOM     20  C   LIG    1       24.197 -30.774 -11.580  0.00  0.00    +0.032 C 
BRANCH  20  21
ATOM     21  C   LIG    1       25.455 -30.052 -11.823  0.00  0.00    -0.023 C 
ATOM     22  C   LIG    1       26.629 -30.235 -11.184  0.00  0.00    -0.079 C 
ATOM     23  C   LIG    1       27.847 -29.425 -11.539  0.00  0.00    +0.038 C 
ATOM     24  C   LIG    1       26.838 -31.232 -10.077  0.00  0.00    +0.038 C 
ENDBRANCH  20  21
ENDBRANCH  14  16
ENDBRANCH  13  14
ENDBRANCH   1  13
TORSDOF 5
ENDMDL
MODEL 4
REMARK VINA RESULT:      -6.9      1.594      2.573
REMARK  Name = 
REMARK                            x       y       z     vdW  Elec       q    Type
REMARK                         _______ _______ _______ _____ _____    ______ ____
ROOT
ATOM      1  C   LIG    1       22.725 -27.225 -10.225  0.00  0.00    +0.352 C 
ENDROOT
BRANCH   1   4
ATOM      2  O   LIG    1       22.116 -24.913 -11.867  0.00  0.00    -0.270 OA
ATOM      3  C   LIG    1       23.251 -25.243 -11.577  0.00  0.00    +0.252 C 
ATOM      4  N   LIG    1       23.659 -26.299 -10.826  0.00  0.00    -0.200 N 
ATOM      5  C   LIG    1       25.016 -26.327 -10.742  0.00  0.00    +0.252 C 
ATOM      6  O   LIG    1       25.761 -27.102 -10.170  0.00  0.00    -0.270 OA
ATOM      7  C   LIG    1       25.507 -25.180 -11.510  0.00  0.00    +0.023 C 
ATOM      8  C   LIG    1       26.922 -24.819 -11.688  0.00  0.00    +0.041 C 
ATOM      9  C   LIG    1       27.141 -23.524 -12.482  0.00  0.00    +0.005 C 
ATOM     10  C   LIG    1       25.937 -22.840 -13.158  0.00  0.00    +0.005 C 
ATOM     11  C   LIG    1       24.512 -23.313 -12.831  0.00  0.00    +0.041 C 
ATOM     12  C   LIG    1       24.459 -24.530 -12.005  0.00  0.00    +0.023 C 
ENDBRANCH   1   4
BRANCH   1  13
ATOM     13  O   LIG    1       22.066 -27.970 -11.234  0.00  0.00    -0.444 OA
BRANCH  13  14
ATOM     14  C   LIG    1       22.876 -28.646 -12.077  0.00  0.00    +0.313 C 
ATOM     15  O   LIG    1       23.509 -28.162 -13.005  0.00  0.00    -0.250 OA
BRANCH  14  16
ATOM     16  C   LIG    1       22.934 -30.070 -11.677  0.00  0.00    +0.111 C 
ATOM     17  C   LIG    1       23.422 -30.605 -10.340  0.00  0.00    -0.014 C 
ATOM     18  C   LIG    1       22.735 -31.851  -9.820  0.00  0.00    +0.012 C 
ATOM     19  C   LIG    1       23.842 -29.672  -9.233  0.00  0.00    +0.012 C 
ATOM     20  C   LIG    1       24.273 -30.782 -11.586  0.00  0.00    +0.032 C 
BRANCH  20  21
ATOM     21  C   LIG    1       25.517 -30.029 -11.811  0.00  0.00    -0.023 C 
ATOM     22  C   LIG    1       26.686 -30.184 -11.155  0.00  0.00    -0.079 C 
ATOM     23  C   LIG    1       27.888 -29.344 -11.492  0.00  0.00    +0.038 C 
ATOM     24  C   LIG    1       26.903 -31.177 -10.045  0.00  0.00    +0.038 C 
ENDBRANCH  20  21
ENDBRANCH  14  16
ENDBRANCH  13  14
ENDBRANCH   1  13
TORSDOF 5
ENDMDL
MODEL 5
REMARK VINA RESULT:      -6.7      1.473      5.509
REMARK  Name = 
REMARK                            x       y       z     vdW  Elec       q    Type
REMARK                         _______ _______ _______ _____ _____    ______ ____
ROOT
ATOM      1  C   LIG    1       22.003 -27.157 -11.783  0.00  0.00    +0.352 C 
ENDROOT
BRANCH   1   4
ATOM      2  O   LIG    1       22.856 -27.909  -9.114  0.00  0.00    -0.270 OA
ATOM      3  C   LIG    1       23.235 -28.481 -10.120  0.00  0.00    +0.252 C 
ATOM      4  N   LIG    1       22.912 -28.220 -11.414  0.00  0.00    -0.200 N 
ATOM      5  C   LIG    1       23.553 -29.082 -12.247  0.00  0.00    +0.252 C 
ATOM      6  O   LIG    1       23.532 -29.178 -13.461  0.00  0.00    -0.270 OA
ATOM      7  C   LIG    1       24.350 -29.970 -11.398  0.00  0.00    +0.023 C 
ATOM      8  C   LIG    1       25.206 -31.065 -11.881  0.00  0.00    +0.041 C 
ATOM      9  C   LIG    1       25.870 -31.879 -10.762  0.00  0.00    +0.005 C 
ATOM     10  C   LIG    1       25.748 -31.397  -9.304  0.00  0.00    +0.005 C 
ATOM     11  C   LIG    1       24.772 -30.262  -8.957  0.00  0.00    +0.041 C 
ATOM     12  C   LIG    1       24.161 -29.618 -10.131  0.00  0.00    +0.023 C 
ENDBRANCH   1   4
BRANCH   1  13
ATOM     13  O   LIG    1       22.702 -26.146 -12.488  0.00  0.00    -0.444 OA
BRANCH  13  14
ATOM     14  C   LIG    1       23.736 -25.586 -11.824  0.00  0.00    +0.313 C 
ATOM     15  O   LIG    1       23.648 -24.755 -10.931  0.00  0.00    -0.250 OA
BRANCH  14  16
ATOM     16  C   LIG    1       25.009 -26.172 -12.301  0.00  0.00    +0.111 C 
ATOM     17  C   LIG    1       26.252 -26.416 -11.461  0.00  0.00    -0.014 C 
ATOM     18  C   LIG    1       27.084 -27.629 -11.822  0.00  0.00    +0.012 C 
ATOM     19  C   LIG    1       26.262 -26.128  -9.980  0.00  0.00    +0.012 C 
ATOM     20  C   LIG    1       26.234 -25.291 -12.480  0.00  0.00    +0.032 C 
BRANCH  20  21
ATOM     21  C   LIG    1       26.175 -23.871 -12.096  0.00  0.00    -0.023 C 
ATOM     22  C   LIG    1       25.720 -22.849 -12.849  0.00  0.00    -0.079 C 
ATOM     23  C   LIG    1       25.713 -21.437 -12.327  0.00  0.00    +0.038 C 
ATOM     24  C   LIG    1       25.197 -23.003 -14.251  0.00  0.00    +0.038 C 
ENDBRANCH  20  21
ENDBRANCH  14  16
ENDBRANCH  13  14
ENDBRANCH   1  13
TORSDOF 5
ENDMDL
MODEL 6
REMARK VINA RESULT:      -6.4      1.875      3.311
REMARK  Name = 
REMARK                            x       y       z     vdW  Elec       q    Type
REMARK                         _______ _______ _______ _____ _____    ______ ____
ROOT
ATOM      1  C   LIG    1       26.607 -27.283  -9.500  0.00  0.00    +0.352 C 
ENDROOT
BRANCH   1   4
ATOM      2  O   LIG    1       28.041 -26.713 -11.957  0.00  0.00    -0.270 OA
ATOM      3  C   LIG    1       27.055 -26.093 -11.602  0.00  0.00    +0.252 C 
ATOM      4  N   LIG    1       26.308 -26.263 -10.480  0.00  0.00    -0.200 N 
ATOM      5  C   LIG    1       25.290 -25.362 -10.446  0.00  0.00    +0.252 C 
ATOM      6  O   LIG    1       24.412 -25.185  -9.622  0.00  0.00    -0.270 OA
ATOM      7  C   LIG    1       25.407 -24.552 -11.662  0.00  0.00    +0.023 C 
ATOM      8  C   LIG    1       24.507 -23.452 -12.040  0.00  0.00    +0.041 C 
ATOM      9  C   LIG    1       24.825 -22.827 -13.405  0.00  0.00    +0.005 C 
ATOM     10  C   LIG    1       26.107 -23.247 -14.149  0.00  0.00    +0.005 C 
ATOM     11  C   LIG    1       26.917 -24.451 -13.645  0.00  0.00    +0.041 C 
ATOM     12  C   LIG    1       26.454 -24.987 -12.354  0.00  0.00    +0.023 C 
ENDBRANCH   1   4
BRANCH   1  13
ATOM     13  O   LIG    1       25.506 -28.164  -9.367  0.00  0.00    -0.444 OA
BRANCH  13  14
ATOM     14  C   LIG    1       25.807 -29.479  -9.416  0.00  0.00    +0.313 C 
ATOM     15  O   LIG    1       26.933 -29.958  -9.407  0.00  0.00    -0.250 OA
BRANCH  14  16
ATOM     16  C   LIG    1       24.559 -30.276  -9.424  0.00  0.00    +0.111 C 
ATOM     17  C   LIG    1       23.967 -31.001 -10.621  0.00  0.00    -0.014 C 
ATOM     18  C   LIG    1       23.234 -32.295 -10.333  0.00  0.00    +0.012 C 
ATOM     19  C   LIG    1       24.680 -31.025 -11.950  0.00  0.00    +0.012 C 
ATOM     20  C   LIG    1       23.312 -29.733 -10.102  0.00  0.00    +0.032 C 
BRANCH  20  21
ATOM     21  C   LIG    1       23.374 -28.454 -10.827  0.00  0.00    -0.023 C 
ATOM     22  C   LIG    1       22.672 -28.114 -11.927  0.00  0.00    -0.079 C 
ATOM     23  C   LIG    1       22.830 -26.761 -12.568  0.00  0.00    +0.038 C 
ATOM     24  C   LIG    1       21.694 -29.025 -12.617  0.00  0.00    +0.038 C 
ENDBRANCH  20  21
ENDBRANCH  14  16
ENDBRANCH  13  14
ENDBRANCH   1  13
TORSDOF 5
ENDMDL
MODEL 7
REMARK VINA RESULT:      -6.4      1.669      2.863
REMARK  Name = 
REMARK                            x       y       z     vdW  Elec       q    Type
REMARK                         _______ _______ _______ _____ _____    ______ ____
ROOT
ATOM      1  C   LIG    1       23.298 -27.173  -9.554  0.00  0.00    +0.352 C 
ENDROOT
BRANCH   1   4
ATOM      2  O   LIG    1       22.281 -25.332 -11.551  0.00  0.00    -0.270 OA
ATOM      3  C   LIG    1       23.463 -25.430 -11.276  0.00  0.00    +0.252 C 
ATOM      4  N   LIG    1       24.056 -26.252 -10.371  0.00  0.00    -0.200 N 
ATOM      5  C   LIG    1       25.402 -26.063 -10.367  0.00  0.00    +0.252 C 
ATOM      6  O   LIG    1       26.278 -26.597  -9.711  0.00  0.00    -0.270 OA
ATOM      7  C   LIG    1       25.682 -25.024 -11.361  0.00  0.00    +0.023 C 
ATOM      8  C   LIG    1       27.017 -24.499 -11.690  0.00  0.00    +0.041 C 
ATOM      9  C   LIG    1       27.004 -23.362 -12.719  0.00  0.00    +0.005 C 
ATOM     10  C   LIG    1       25.687 -23.003 -13.433  0.00  0.00    +0.005 C 
ATOM     11  C   LIG    1       24.365 -23.610 -12.938  0.00  0.00    +0.041 C 
ATOM     12  C   LIG    1       24.530 -24.642 -11.901  0.00  0.00    +0.023 C 
ENDBRANCH   1   4
BRANCH   1  13
ATOM     13  O   LIG    1       23.819 -28.484  -9.694  0.00  0.00    -0.444 OA
BRANCH  13  14
ATOM     14  C   LIG    1       23.091 -29.316 -10.469  0.00  0.00    +0.313 C 
ATOM     15  O   LIG    1       22.012 -29.056 -10.985  0.00  0.00    -0.250 OA
BRANCH  14  16
ATOM     16  C   LIG    1       23.823 -30.590 -10.657  0.00  0.00    +0.111 C 
ATOM     17  C   LIG    1       25.151 -30.961 -10.018  0.00  0.00    -0.014 C 
ATOM     18  C   LIG    1       25.349 -32.424  -9.676  0.00  0.00    +0.012 C 
ATOM     19  C   LIG    1       25.829 -30.041  -9.035  0.00  0.00    +0.012 C 
ATOM     20  C   LIG    1       25.088 -30.625 -11.498  0.00  0.00    +0.032 C 
BRANCH  20  21
ATOM     21  C   LIG    1       25.632 -29.374 -12.051  0.00  0.00    -0.023 C 
ATOM     22  C   LIG    1       25.098 -28.629 -13.041  0.00  0.00    -0.079 C 
ATOM     23  C   LIG    1       25.761 -27.362 -13.509  0.00  0.00    +0.038 C 
ATOM     24  C   LIG    1       23.827 -28.979 -13.766  0.00  0.00    +0.038 C 
ENDBRANCH  20  21
ENDBRANCH  14  16
ENDBRANCH  13  14
ENDBRANCH   1  13
TORSDOF 5
ENDMDL
MODEL 8
REMARK VINA RESULT:      -6.3      1.878      3.817
REMARK  Name = 
REMARK                            x       y       z     vdW  Elec       q    Type
REMARK                         _______ _______ _______ _____ _____    ______ ____
ROOT
ATOM      1  C   LIG    1       26.463 -27.318  -9.524  0.00  0.00    +0.352 C 
ENDROOT
BRANCH   1   4
ATOM      2  O   LIG    1       24.258 -25.439  -9.679  0.00  0.00    -0.270 OA
ATOM      3  C   LIG    1       25.158 -25.478 -10.497  0.00  0.00    +0.252 C 
ATOM      4  N   LIG    1       26.233 -26.309 -10.534  0.00  0.00    -0.200 N 
ATOM      5  C   LIG    1       27.007 -26.037 -11.618  0.00  0.00    +0.252 C 
ATOM      6  O   LIG    1       28.042 -26.549 -12.004  0.00  0.00    -0.270 OA
ATOM      7  C   LIG    1       26.360 -24.930 -12.327  0.00  0.00    +0.023 C 
ATOM      8  C   LIG    1       26.858 -24.307 -13.563  0.00  0.00    +0.041 C 
ATOM      9  C   LIG    1       26.016 -23.118 -14.046  0.00  0.00    +0.005 C 
ATOM     10  C   LIG    1       24.680 -22.805 -13.346  0.00  0.00    +0.005 C 
ATOM     11  C   LIG    1       24.326 -23.519 -12.031  0.00  0.00    +0.041 C 
ATOM     12  C   LIG    1       25.262 -24.592 -11.661  0.00  0.00    +0.023 C 
ENDBRANCH   1   4
BRANCH   1  13
ATOM     13  O   LIG    1       27.393 -28.276 -10.001  0.00  0.00    -0.444 OA
BRANCH  13  14
ATOM     14  C   LIG    1       26.856 -29.335 -10.643  0.00  0.00    +0.313 C 
ATOM     15  O   LIG    1       27.217 -29.775 -11.726  0.00  0.00    -0.250 OA
BRANCH  14  16
ATOM     16  C   LIG    1       25.788 -29.934  -9.810  0.00  0.00    +0.111 C 
ATOM     17  C   LIG    1       24.884 -31.088 -10.208  0.00  0.00    -0.014 C 
ATOM     18  C   LIG    1       24.456 -32.025  -9.097  0.00  0.00    +0.012 C 
ATOM     19  C   LIG    1       25.059 -31.799 -11.527  0.00  0.00    +0.012 C 
ATOM     20  C   LIG    1       24.328 -29.677 -10.142  0.00  0.00    +0.032 C 
BRANCH  20  21
ATOM     21  C   LIG    1       23.978 -28.904 -11.344  0.00  0.00    -0.023 C 
ATOM     22  C   LIG    1       22.918 -28.084 -11.498  0.00  0.00    -0.079 C 
ATOM     23  C   LIG    1       22.680 -27.348 -12.788  0.00  0.00    +0.038 C 
ATOM     24  C   LIG    1       21.887 -27.832 -10.431  0.00  0.00    +0.038 C 
ENDBRANCH  20  21
ENDBRANCH  14  16
ENDBRANCH  13  14
ENDBRANCH   1  13
TORSDOF 5
ENDMDL
MODEL 9
REMARK VINA RESULT:      -6.1      1.430      5.753
REMARK  Name = 
REMARK                            x       y       z     vdW  Elec       q    Type
REMARK                         _______ _______ _______ _____ _____    ______ ____
ROOT
ATOM      1  C   LIG    1       22.393 -26.720 -11.219  0.00  0.00    +0.352 C 
ENDROOT
BRANCH   1   4
ATOM      2  O   LIG    1       23.757 -28.349 -13.194  0.00  0.00    -0.270 OA
ATOM      3  C   LIG    1       23.722 -28.628 -12.010  0.00  0.00    +0.252 C 
ATOM      4  N   LIG    1       23.117 -27.952 -10.998  0.00  0.00    -0.200 N 
ATOM      5  C   LIG    1       23.303 -28.598  -9.817  0.00  0.00    +0.252 C 
ATOM      6  O   LIG    1       22.925 -28.322  -8.692  0.00  0.00    -0.270 OA
ATOM      7  C   LIG    1       24.103 -29.789 -10.112  0.00  0.00    +0.023 C 
ATOM      8  C   LIG    1       24.546 -30.782  -9.121  0.00  0.00    +0.041 C 
ATOM      9  C   LIG    1       25.433 -31.891  -9.702  0.00  0.00    +0.005 C 
ATOM     10  C   LIG    1       25.627 -31.982 -11.228  0.00  0.00    +0.005 C 
ATOM     11  C   LIG    1       25.141 -30.833 -12.125  0.00  0.00    +0.041 C 
ATOM     12  C   LIG    1       24.358 -29.809 -11.415  0.00  0.00    +0.023 C 
ENDBRANCH   1   4
BRANCH   1  13
ATOM     13  O   LIG    1       23.239 -25.611 -10.970  0.00  0.00    -0.444 OA
BRANCH  13  14
ATOM     14  C   LIG    1       23.665 -24.948 -12.066  0.00  0.00    +0.313 C 
ATOM     15  O   LIG    1       23.294 -25.150 -13.215  0.00  0.00    -0.250 OA
BRANCH  14  16
ATOM     16  C   LIG    1       24.618 -23.887 -11.668  0.00  0.00    +0.111 C 
ATOM     17  C   LIG    1       25.568 -23.144 -12.593  0.00  0.00    -0.014 C 
ATOM     18  C   LIG    1       25.851 -21.696 -12.249  0.00  0.00    +0.012 C 
ATOM     19  C   LIG    1       25.565 -23.394 -14.080  0.00  0.00    +0.012 C 
ATOM     20  C   LIG    1       26.108 -24.179 -11.622  0.00  0.00    +0.032 C 
BRANCH  20  21
ATOM     21  C   LIG    1       26.609 -25.492 -12.058  0.00  0.00    -0.023 C 
ATOM     22  C   LIG    1       26.757 -26.595 -11.296  0.00  0.00    -0.079 C 
ATOM     23  C   LIG    1       27.280 -27.881 -11.875  0.00  0.00    +0.038 C 
ATOM     24  C   LIG    1       26.435 -26.652  -9.827  0.00  0.00    +0.038 C 
ENDBRANCH  20  21
ENDBRANCH  14  16
ENDBRANCH  13  14
ENDBRANCH   1  13
TORSDOF 5
ENDMDL
