MODEL 1
REMARK VINA RESULT:      -8.0      0.000      0.000
REMARK  Name = 
REMARK                            x       y       z     vdW  Elec       q    Type
REMARK                         _______ _______ _______ _____ _____    ______ ____
ROOT
ATOM      1  C   LIG    1       19.656  47.505  16.019  0.00  0.00    +0.352 C 
ENDROOT
BRANCH   1   4
ATOM      2  O   LIG    1       19.743  50.392  15.743  0.00  0.00    -0.270 OA
ATOM      3  C   LIG    1       20.386  49.636  15.038  0.00  0.00    +0.252 C 
ATOM      4  N   LIG    1       20.425  48.278  15.068  0.00  0.00    -0.200 N 
ATOM      5  C   LIG    1       21.263  47.804  14.109  0.00  0.00    +0.252 C 
ATOM      6  O   LIG    1       21.569  46.663  13.812  0.00  0.00    -0.270 OA
ATOM      7  C   LIG    1       21.806  48.974  13.412  0.00  0.00    +0.023 C 
ATOM      8  C   LIG    1       22.763  48.930  12.296  0.00  0.00    +0.041 C 
ATOM      9  C   LIG    1       23.215  50.312  11.807  0.00  0.00    +0.005 C 
ATOM     10  C   LIG    1       22.526  51.573  12.363  0.00  0.00    +0.005 C 
ATOM     11  C   LIG    1       21.579  51.453  13.567  0.00  0.00    +0.041 C 
ATOM     12  C   LIG    1       21.289  50.066  13.965  0.00  0.00    +0.023 C 
ENDBRANCH   1   4
BRANCH   1  13
ATOM     13  O   LIG    1       20.006  47.878  17.340  0.00  0.00    -0.444 OA
BRANCH  13  14
ATOM     14  C   LIG    1       19.010  47.799  18.248  0.00  0.00    +0.313 C 
ATOM     15  O   LIG    1       18.857  46.905  19.069  0.00  0.00    -0.250 OA
BRANCH  14  16
ATOM     16  C   LIG    1       18.146  48.997  18.145  0.00  0.00    +0.111 C 
ATOM     17  C   LIG    1       16.814  49.204  18.846  0.00  0.00    -0.014 C 
ATOM     18  C   LIG    1       16.483  50.623  19.262  0.00  0.00    +0.012 C 
ATOM     19  C   LIG    1       16.272  48.178  19.809  0.00  0.00    +0.012 C 
ATOM     20  C   LIG    1       16.851  48.938  17.352  0.00  0.00    +0.032 C 
BRANCH  20  21
ATOM     21  C   LIG    1       16.415  47.663  16.761  0.00  0.00    -0.023 C 
ATOM     22  C   LIG    1       16.308  47.375  15.448  0.00  0.00    -0.079 C 
ATOM     23  C   LIG    1       15.850  46.020  14.979  0.00  0.00    +0.038 C 
ATOM     24  C   LIG    1       16.616  48.350  14.344  0.00  0.00    +0.038 C 
ENDBRANCH  20  21
ENDBRANCH  14  16
ENDBRANCH  13  14
ENDBRANCH   1  13
TORSDOF 5
ENDMDL
MODEL 2
REMARK VINA RESULT:      -8.0      0.082      1.815
REMARK  Name = 
REMARK                            x       y       z     vdW  Elec       q    Type
REMARK                         _______ _______ _______ _____ _____    ______ ____
ROOT
ATOM      1  C   LIG    1       19.694  47.452  16.065  0.00  0.00    +0.352 C 
ENDROOT
BRANCH   1   4
ATOM      2  O   LIG    1       21.475  46.619  13.932  0.00  0.00    -0.270 OA
ATOM      3  C   LIG    1       21.228  47.786  14.176  0.00  0.00    +0.252 C 
ATOM      4  N   LIG    1       20.421  48.296  15.143  0.00  0.00    -0.200 N 
ATOM      5  C   LIG    1       20.416  49.654  15.091  0.00  0.00    +0.252 C 
ATOM      6  O   LIG    1       19.831  50.474  15.776  0.00  0.00    -0.270 OA
ATOM      7  C   LIG    1       21.300  50.034  13.986  0.00  0.00    +0.023 C 
ATOM      8  C   LIG    1       21.590  51.414  13.566  0.00  0.00    +0.041 C 
ATOM      9  C   LIG    1       22.496  51.512  12.331  0.00  0.00    +0.005 C 
ATOM     10  C   LIG    1       23.151  50.236  11.770  0.00  0.00    +0.005 C 
ATOM     11  C   LIG    1       22.703  48.861  12.291  0.00  0.00    +0.041 C 
ATOM     12  C   LIG    1       21.782  48.925  13.437  0.00  0.00    +0.023 C 
ENDBRANCH   1   4
BRANCH   1  13
ATOM     13  O   LIG    1       19.988  47.828  17.400  0.00  0.00    -0.444 OA
BRANCH  13  14
ATOM     14  C   LIG    1       18.954  47.754  18.264  0.00  0.00    +0.313 C 
ATOM     15  O   LIG    1       18.752  46.852  19.066  0.00  0.00    -0.250 OA
BRANCH  14  16
ATOM     16  C   LIG    1       18.115  48.968  18.141  0.00  0.00    +0.111 C 
ATOM     17  C   LIG    1       16.768  49.197  18.806  0.00  0.00    -0.014 C 
ATOM     18  C   LIG    1       16.451  50.620  19.217  0.00  0.00    +0.012 C 
ATOM     19  C   LIG    1       16.181  48.178  19.751  0.00  0.00    +0.012 C 
ATOM     20  C   LIG    1       16.842  48.934  17.312  0.00  0.00    +0.032 C 
BRANCH  20  21
ATOM     21  C   LIG    1       16.399  47.669  16.706  0.00  0.00    -0.023 C 
ATOM     22  C   LIG    1       16.300  47.395  15.389  0.00  0.00    -0.079 C 
ATOM     23  C   LIG    1       15.834  46.049  14.903  0.00  0.00    +0.038 C 
ATOM     24  C   LIG    1       16.625  48.379  14.297  0.00  0.00    +0.038 C 
ENDBRANCH  20  21
ENDBRANCH  14  16
ENDBRANCH  13  14
ENDBRANCH   1  13
TORSDOF 5
ENDMDL
MODEL 3
REMARK VINA RESULT:      -7.7      1.563      3.383
REMARK  Name = 
REMARK                            x       y       z     vdW  Elec       q    Type
REMARK                         _______ _______ _______ _____ _____    ______ ____
ROOT
ATOM      1  C   LIG    1       19.254  47.026  14.688  0.00  0.00    +0.352 C 
ENDROOT
BRANCH   1   4
ATOM      2  O   LIG    1       21.679  46.688  13.133  0.00  0.00    -0.270 OA
ATOM      3  C   LIG    1       21.250  47.777  13.470  0.00  0.00    +0.252 C 
ATOM      4  N   LIG    1       20.137  48.060  14.196  0.00  0.00    -0.200 N 
ATOM      5  C   LIG    1       20.009  49.403  14.365  0.00  0.00    +0.252 C 
ATOM      6  O   LIG    1       19.160  50.052  14.949  0.00  0.00    -0.270 OA
ATOM      7  C   LIG    1       21.145  50.022  13.678  0.00  0.00    +0.023 C 
ATOM      8  C   LIG    1       21.406  51.468  13.601  0.00  0.00    +0.041 C 
ATOM      9  C   LIG    1       22.631  51.837  12.754  0.00  0.00    +0.005 C 
ATOM     10  C   LIG    1       23.555  50.718  12.235  0.00  0.00    +0.005 C 
ATOM     11  C   LIG    1       23.114  49.251  12.355  0.00  0.00    +0.041 C 
ATOM     12  C   LIG    1       21.884  49.058  13.141  0.00  0.00    +0.023 C 
ENDBRANCH   1   4
BRANCH   1  13
ATOM     13  O   LIG    1       17.909  47.469  14.624  0.00  0.00    -0.444 OA
BRANCH  13  14
ATOM     14  C   LIG    1       17.168  47.231  15.727  0.00  0.00    +0.313 C 
ATOM     15  O   LIG    1       15.947  47.156  15.768  0.00  0.00    -0.250 OA
BRANCH  14  16
ATOM     16  C   LIG    1       18.060  47.012  16.888  0.00  0.00    +0.111 C 
ATOM     17  C   LIG    1       17.622  46.851  18.335  0.00  0.00    -0.014 C 
ATOM     18  C   LIG    1       18.456  45.921  19.193  0.00  0.00    +0.012 C 
ATOM     19  C   LIG    1       16.162  46.829  18.711  0.00  0.00    +0.012 C 
ATOM     20  C   LIG    1       18.301  48.133  17.886  0.00  0.00    +0.032 C 
BRANCH  20  21
ATOM     21  C   LIG    1       17.577  49.406  17.743  0.00  0.00    -0.023 C 
ATOM     22  C   LIG    1       17.162  50.216  18.738  0.00  0.00    -0.079 C 
ATOM     23  C   LIG    1       16.431  51.499  18.448  0.00  0.00    +0.038 C 
ATOM     24  C   LIG    1       17.370  49.928  20.200  0.00  0.00    +0.038 C 
ENDBRANCH  20  21
ENDBRANCH  14  16
ENDBRANCH  13  14
ENDBRANCH   1  13
TORSDOF 5
ENDMDL
MODEL 4
REMARK VINA RESULT:      -7.6      1.569      3.443
REMARK  Name = 
REMARK                            x       y       z     vdW  Elec       q    Type
REMARK                         _______ _______ _______ _____ _____    ______ ____
ROOT
ATOM      1  C   LIG    1       19.150  47.700  15.732  0.00  0.00    +0.352 C 
ENDROOT
BRANCH   1   4
ATOM      2  O   LIG    1       19.560  50.564  15.522  0.00  0.00    -0.270 OA
ATOM      3  C   LIG    1       20.180  49.752  14.860  0.00  0.00    +0.252 C 
ATOM      4  N   LIG    1       20.075  48.397  14.866  0.00  0.00    -0.200 N 
ATOM      5  C   LIG    1       20.941  47.849  13.973  0.00  0.00    +0.252 C 
ATOM      6  O   LIG    1       21.151  46.686  13.682  0.00  0.00    -0.270 OA
ATOM      7  C   LIG    1       21.660  48.962  13.349  0.00  0.00    +0.023 C 
ATOM      8  C   LIG    1       22.701  48.830  12.318  0.00  0.00    +0.041 C 
ATOM      9  C   LIG    1       23.335  50.162  11.897  0.00  0.00    +0.005 C 
ATOM     10  C   LIG    1       22.735  51.483  12.417  0.00  0.00    +0.005 C 
ATOM     11  C   LIG    1       21.679  51.450  13.533  0.00  0.00    +0.041 C 
ATOM     12  C   LIG    1       21.213  50.096  13.877  0.00  0.00    +0.023 C 
ENDBRANCH   1   4
BRANCH   1  13
ATOM     13  O   LIG    1       17.892  48.353  15.722  0.00  0.00    -0.444 OA
BRANCH  13  14
ATOM     14  C   LIG    1       17.088  48.045  14.682  0.00  0.00    +0.313 C 
ATOM     15  O   LIG    1       16.626  48.838  13.873  0.00  0.00    -0.250 OA
BRANCH  14  16
ATOM     16  C   LIG    1       16.887  46.579  14.626  0.00  0.00    +0.111 C 
ATOM     17  C   LIG    1       15.562  45.864  14.419  0.00  0.00    -0.014 C 
ATOM     18  C   LIG    1       15.611  44.562  13.646  0.00  0.00    +0.012 C 
ATOM     19  C   LIG    1       14.290  46.635  14.172  0.00  0.00    +0.012 C 
ATOM     20  C   LIG    1       16.224  45.855  15.785  0.00  0.00    +0.032 C 
BRANCH  20  21
ATOM     21  C   LIG    1       15.703  46.626  16.925  0.00  0.00    -0.023 C 
ATOM     22  C   LIG    1       16.308  46.818  18.115  0.00  0.00    -0.079 C 
ATOM     23  C   LIG    1       15.659  47.637  19.198  0.00  0.00    +0.038 C 
ATOM     24  C   LIG    1       17.650  46.243  18.480  0.00  0.00    +0.038 C 
ENDBRANCH  20  21
ENDBRANCH  14  16
ENDBRANCH  13  14
ENDBRANCH   1  13
TORSDOF 5
ENDMDL
MODEL 5
REMARK VINA RESULT:      -7.2      1.625      3.378
REMARK  Name = 
REMARK                            x       y       z     vdW  Elec       q    Type
REMARK                         _______ _______ _______ _____ _____    ______ ____
ROOT
ATOM      1  C   LIG    1       18.554  46.761  14.875  0.00  0.00    +0.352 C 
ENDROOT
BRANCH   1   4
ATOM      2  O   LIG    1       21.073  46.227  13.540  0.00  0.00    -0.270 OA
ATOM      3  C   LIG    1       20.657  47.352  13.753  0.00  0.00    +0.252 C 
ATOM      4  N   LIG    1       19.505  47.725  14.368  0.00  0.00    -0.200 N 
ATOM      5  C   LIG    1       19.409  49.080  14.416  0.00  0.00    +0.252 C 
ATOM      6  O   LIG    1       18.542  49.800  14.878  0.00  0.00    -0.270 OA
ATOM      7  C   LIG    1       20.612  49.609  13.768  0.00  0.00    +0.023 C 
ATOM      8  C   LIG    1       20.926  51.035  13.592  0.00  0.00    +0.041 C 
ATOM      9  C   LIG    1       22.221  51.297  12.813  0.00  0.00    +0.005 C 
ATOM     10  C   LIG    1       23.143  50.114  12.458  0.00  0.00    +0.005 C 
ATOM     11  C   LIG    1       22.645  48.675  12.665  0.00  0.00    +0.041 C 
ATOM     12  C   LIG    1       21.356  48.583  13.369  0.00  0.00    +0.023 C 
ENDBRANCH   1   4
BRANCH   1  13
ATOM     13  O   LIG    1       18.498  46.835  16.290  0.00  0.00    -0.444 OA
BRANCH  13  14
ATOM     14  C   LIG    1       17.322  47.256  16.802  0.00  0.00    +0.313 C 
ATOM     15  O   LIG    1       16.239  47.223  16.233  0.00  0.00    -0.250 OA
BRANCH  14  16
ATOM     16  C   LIG    1       17.522  47.716  18.195  0.00  0.00    +0.111 C 
ATOM     17  C   LIG    1       17.780  49.148  18.636  0.00  0.00    -0.014 C 
ATOM     18  C   LIG    1       17.208  49.554  19.979  0.00  0.00    +0.012 C 
ATOM     19  C   LIG    1       17.782  50.282  17.643  0.00  0.00    +0.012 C 
ATOM     20  C   LIG    1       18.906  48.129  18.670  0.00  0.00    +0.032 C 
BRANCH  20  21
ATOM     21  C   LIG    1       20.027  48.154  17.718  0.00  0.00    -0.023 C 
ATOM     22  C   LIG    1       21.004  49.080  17.644  0.00  0.00    -0.079 C 
ATOM     23  C   LIG    1       22.100  48.980  16.617  0.00  0.00    +0.038 C 
ATOM     24  C   LIG    1       21.096  50.281  18.546  0.00  0.00    +0.038 C 
ENDBRANCH  20  21
ENDBRANCH  14  16
ENDBRANCH  13  14
ENDBRANCH   1  13
TORSDOF 5
ENDMDL
MODEL 6
REMARK VINA RESULT:      -7.2      1.635      2.868
REMARK  Name = 
REMARK                            x       y       z     vdW  Elec       q    Type
REMARK                         _______ _______ _______ _____ _____    ______ ____
ROOT
ATOM      1  C   LIG    1       18.531  46.745  14.909  0.00  0.00    +0.352 C 
ENDROOT
BRANCH   1   4
ATOM      2  O   LIG    1       18.462  49.645  14.874  0.00  0.00    -0.270 OA
ATOM      3  C   LIG    1       19.380  48.995  14.409  0.00  0.00    +0.252 C 
ATOM      4  N   LIG    1       19.523  47.644  14.363  0.00  0.00    -0.200 N 
ATOM      5  C   LIG    1       20.691  47.310  13.753  0.00  0.00    +0.252 C 
ATOM      6  O   LIG    1       21.181  46.221  13.516  0.00  0.00    -0.270 OA
ATOM      7  C   LIG    1       21.346  48.568  13.384  0.00  0.00    +0.023 C 
ATOM      8  C   LIG    1       22.644  48.682  12.700  0.00  0.00    +0.041 C 
ATOM      9  C   LIG    1       23.121  50.127  12.504  0.00  0.00    +0.005 C 
ATOM     10  C   LIG    1       22.170  51.290  12.847  0.00  0.00    +0.005 C 
ATOM     11  C   LIG    1       20.864  51.005  13.605  0.00  0.00    +0.041 C 
ATOM     12  C   LIG    1       20.571  49.573  13.776  0.00  0.00    +0.023 C 
ENDBRANCH   1   4
BRANCH   1  13
ATOM     13  O   LIG    1       18.507  46.853  16.322  0.00  0.00    -0.444 OA
BRANCH  13  14
ATOM     14  C   LIG    1       17.329  47.245  16.852  0.00  0.00    +0.313 C 
ATOM     15  O   LIG    1       16.237  47.179  16.303  0.00  0.00    -0.250 OA
BRANCH  14  16
ATOM     16  C   LIG    1       17.541  47.722  18.238  0.00  0.00    +0.111 C 
ATOM     17  C   LIG    1       17.793  49.160  18.662  0.00  0.00    -0.014 C 
ATOM     18  C   LIG    1       17.233  49.575  20.007  0.00  0.00    +0.012 C 
ATOM     19  C   LIG    1       17.777  50.283  17.657  0.00  0.00    +0.012 C 
ATOM     20  C   LIG    1       18.926  48.149  18.694  0.00  0.00    +0.032 C 
BRANCH  20  21
ATOM     21  C   LIG    1       20.037  48.171  17.730  0.00  0.00    -0.023 C 
ATOM     22  C   LIG    1       21.012  49.098  17.641  0.00  0.00    -0.079 C 
ATOM     23  C   LIG    1       22.097  48.995  16.603  0.00  0.00    +0.038 C 
ATOM     24  C   LIG    1       21.112  50.303  18.537  0.00  0.00    +0.038 C 
ENDBRANCH  20  21
ENDBRANCH  14  16
ENDBRANCH  13  14
ENDBRANCH   1  13
TORSDOF 5
ENDMDL
MODEL 7
REMARK VINA RESULT:      -7.1      1.617      6.234
REMARK  Name = 
REMARK                            x       y       z     vdW  Elec       q    Type
REMARK                         _______ _______ _______ _____ _____    ______ ____
ROOT
ATOM      1  C   LIG    1       20.671  48.001  17.862  0.00  0.00    +0.352 C 
ENDROOT
BRANCH   1   4
ATOM      2  O   LIG    1       19.447  50.620  18.101  0.00  0.00    -0.270 OA
ATOM      3  C   LIG    1       18.867  49.586  18.380  0.00  0.00    +0.252 C 
ATOM      4  N   LIG    1       19.333  48.311  18.314  0.00  0.00    -0.200 N 
ATOM      5  C   LIG    1       18.377  47.434  18.719  0.00  0.00    +0.252 C 
ATOM      6  O   LIG    1       18.398  46.220  18.807  0.00  0.00    -0.270 OA
ATOM      7  C   LIG    1       17.199  48.231  19.070  0.00  0.00    +0.023 C 
ATOM      8  C   LIG    1       15.921  47.690  19.559  0.00  0.00    +0.041 C 
ATOM      9  C   LIG    1       14.836  48.753  19.778  0.00  0.00    +0.005 C 
ATOM     10  C   LIG    1       15.204  50.245  19.659  0.00  0.00    +0.005 C 
ATOM     11  C   LIG    1       16.573  50.646  19.086  0.00  0.00    +0.041 C 
ATOM     12  C   LIG    1       17.486  49.512  18.865  0.00  0.00    +0.023 C 
ENDBRANCH   1   4
BRANCH   1  13
ATOM     13  O   LIG    1       20.722  48.029  16.446  0.00  0.00    -0.444 OA
BRANCH  13  14
ATOM     14  C   LIG    1       21.701  48.795  15.917  0.00  0.00    +0.313 C 
ATOM     15  O   LIG    1       22.492  49.483  16.547  0.00  0.00    -0.250 OA
BRANCH  14  16
ATOM     16  C   LIG    1       21.717  48.635  14.445  0.00  0.00    +0.111 C 
ATOM     17  C   LIG    1       21.533  49.744  13.422  0.00  0.00    -0.014 C 
ATOM     18  C   LIG    1       22.304  49.601  12.126  0.00  0.00    +0.012 C 
ATOM     19  C   LIG    1       21.383  51.182  13.849  0.00  0.00    +0.012 C 
ATOM     20  C   LIG    1       20.423  48.734  13.653  0.00  0.00    +0.032 C 
BRANCH  20  21
ATOM     21  C   LIG    1       19.169  49.076  14.343  0.00  0.00    -0.023 C 
ATOM     22  C   LIG    1       18.232  48.216  14.790  0.00  0.00    -0.079 C 
ATOM     23  C   LIG    1       16.991  48.704  15.488  0.00  0.00    +0.038 C 
ATOM     24  C   LIG    1       18.319  46.721  14.636  0.00  0.00    +0.038 C 
ENDBRANCH  20  21
ENDBRANCH  14  16
ENDBRANCH  13  14
ENDBRANCH   1  13
TORSDOF 5
ENDMDL
MODEL 8
REMARK VINA RESULT:      -7.0      1.342      1.762
REMARK  Name = 
REMARK                            x       y       z     vdW  Elec       q    Type
REMARK                         _______ _______ _______ _____ _____    ______ ____
ROOT
ATOM      1  C   LIG    1       20.407  49.241  17.751  0.00  0.00    +0.352 C 
ENDROOT
BRANCH   1   4
ATOM      2  O   LIG    1       23.192  49.329  16.945  0.00  0.00    -0.270 OA
ATOM      3  C   LIG    1       22.268  49.457  16.162  0.00  0.00    +0.252 C 
ATOM      4  N   LIG    1       20.934  49.438  16.418  0.00  0.00    -0.200 N 
ATOM      5  C   LIG    1       20.227  49.623  15.272  0.00  0.00    +0.252 C 
ATOM      6  O   LIG    1       19.026  49.672  15.078  0.00  0.00    -0.270 OA
ATOM      7  C   LIG    1       21.208  49.768  14.194  0.00  0.00    +0.023 C 
ATOM      8  C   LIG    1       20.885  49.985  12.775  0.00  0.00    +0.041 C 
ATOM      9  C   LIG    1       22.113  50.029  11.856  0.00  0.00    +0.005 C 
ATOM     10  C   LIG    1       23.523  50.032  12.477  0.00  0.00    +0.005 C 
ATOM     11  C   LIG    1       23.692  49.746  13.977  0.00  0.00    +0.041 C 
ATOM     12  C   LIG    1       22.424  49.666  14.719  0.00  0.00    +0.023 C 
ENDBRANCH   1   4
BRANCH   1  13
ATOM     13  O   LIG    1       20.119  47.868  17.958  0.00  0.00    -0.444 OA
BRANCH  13  14
ATOM     14  C   LIG    1       18.879  47.600  18.419  0.00  0.00    +0.313 C 
ATOM     15  O   LIG    1       18.527  46.567  18.972  0.00  0.00    -0.250 OA
BRANCH  14  16
ATOM     16  C   LIG    1       18.004  48.776  18.208  0.00  0.00    +0.111 C 
ATOM     17  C   LIG    1       16.619  48.980  18.799  0.00  0.00    -0.014 C 
ATOM     18  C   LIG    1       16.232  50.404  19.138  0.00  0.00    +0.012 C 
ATOM     19  C   LIG    1       16.024  47.977  19.756  0.00  0.00    +0.012 C 
ATOM     20  C   LIG    1       16.774  48.662  17.322  0.00  0.00    +0.032 C 
BRANCH  20  21
ATOM     21  C   LIG    1       16.407  47.359  16.747  0.00  0.00    -0.023 C 
ATOM     22  C   LIG    1       16.254  47.067  15.439  0.00  0.00    -0.079 C 
ATOM     23  C   LIG    1       15.877  45.682  14.987  0.00  0.00    +0.038 C 
ATOM     24  C   LIG    1       16.428  48.066  14.327  0.00  0.00    +0.038 C 
ENDBRANCH  20  21
ENDBRANCH  14  16
ENDBRANCH  13  14
ENDBRANCH   1  13
TORSDOF 5
ENDMDL
MODEL 9
REMARK VINA RESULT:      -7.0      1.595      6.365
REMARK  Name = 
REMARK                            x       y       z     vdW  Elec       q    Type
REMARK                         _______ _______ _______ _____ _____    ______ ____
ROOT
ATOM      1  C   LIG    1       20.639  47.907  17.840  0.00  0.00    +0.352 C 
ENDROOT
BRANCH   1   4
ATOM      2  O   LIG    1       18.463  46.286  18.866  0.00  0.00    -0.270 OA
ATOM      3  C   LIG    1       18.389  47.495  18.736  0.00  0.00    +0.252 C 
ATOM      4  N   LIG    1       19.331  48.354  18.266  0.00  0.00    -0.200 N 
ATOM      5  C   LIG    1       18.857  49.628  18.270  0.00  0.00    +0.252 C 
ATOM      6  O   LIG    1       19.382  50.673  17.931  0.00  0.00    -0.270 OA
ATOM      7  C   LIG    1       17.490  49.564  18.795  0.00  0.00    +0.023 C 
ATOM      8  C   LIG    1       16.596  50.718  18.977  0.00  0.00    +0.041 C 
ATOM      9  C   LIG    1       15.245  50.365  19.614  0.00  0.00    +0.005 C 
ATOM     10  C   LIG    1       14.873  48.885  19.826  0.00  0.00    +0.005 C 
ATOM     11  C   LIG    1       15.942  47.798  19.633  0.00  0.00    +0.041 C 
ATOM     12  C   LIG    1       17.210  48.297  19.076  0.00  0.00    +0.023 C 
ENDBRANCH   1   4
BRANCH   1  13
ATOM     13  O   LIG    1       20.724  47.939  16.426  0.00  0.00    -0.444 OA
BRANCH  13  14
ATOM     14  C   LIG    1       21.658  48.772  15.920  0.00  0.00    +0.313 C 
ATOM     15  O   LIG    1       22.403  49.493  16.569  0.00  0.00    -0.250 OA
BRANCH  14  16
ATOM     16  C   LIG    1       21.693  48.644  14.445  0.00  0.00    +0.111 C 
ATOM     17  C   LIG    1       21.512  49.773  13.443  0.00  0.00    -0.014 C 
ATOM     18  C   LIG    1       22.300  49.664  12.154  0.00  0.00    +0.012 C 
ATOM     19  C   LIG    1       21.344  51.200  13.899  0.00  0.00    +0.012 C 
ATOM     20  C   LIG    1       20.408  48.749  13.640  0.00  0.00    +0.032 C 
BRANCH  20  21
ATOM     21  C   LIG    1       19.143  49.066  14.322  0.00  0.00    -0.023 C 
ATOM     22  C   LIG    1       18.223  48.187  14.767  0.00  0.00    -0.079 C 
ATOM     23  C   LIG    1       16.967  48.651  15.455  0.00  0.00    +0.038 C 
ATOM     24  C   LIG    1       18.343  46.694  14.618  0.00  0.00    +0.038 C 
ENDBRANCH  20  21
ENDBRANCH  14  16
ENDBRANCH  13  14
ENDBRANCH   1  13
TORSDOF 5
ENDMDL
