REMARK  Name = 
REMARK                            x       y       z     vdW  Elec       q    Type
REMARK                         _______ _______ _______ _____ _____    ______ ____
ROOT
ATOM      1  C   LIG    1        2.653   2.571   0.017  0.00  0.00    +0.352 C 
ENDROOT
BRANCH   1   4
ATOM      2  O   LIG    1        0.993   0.192   0.007  0.00  0.00    -0.270 OA
ATOM      3  C   LIG    1        2.210   0.155   0.017  0.00  0.00    +0.252 C 
ATOM      4  N   LIG    1        3.088   1.192   0.027  0.00  0.00    -0.200 N 
ATOM      5  C   LIG    1        4.367   0.732   0.044  0.00  0.00    +0.252 C 
ATOM      6  O   LIG    1        5.427   1.331   0.058  0.00  0.00    -0.270 OA
ATOM      7  C   LIG    1        4.286  -0.731   0.041  0.00  0.00    +0.023 C 
ATOM      8  C   LIG    1        5.438  -1.646   0.053  0.00  0.00    +0.041 C 
ATOM      9  C   LIG    1        5.057  -3.130  -0.027  0.00  0.00    +0.005 C 
ATOM     10  C   LIG    1        3.574  -3.536   0.073  0.00  0.00    +0.005 C 
ATOM     11  C   LIG    1        2.484  -2.455   0.003  0.00  0.00    +0.041 C 
ATOM     12  C   LIG    1        3.004  -1.078   0.021  0.00  0.00    +0.023 C 
ENDBRANCH   1   4
BRANCH   1  13
ATOM     13  O   LIG    1        3.778   3.433   0.031  0.00  0.00    -0.444 OA
BRANCH  13  14
ATOM     14  C   LIG    1        3.496   4.753   0.064  0.00  0.00    +0.313 C 
ATOM     15  O   LIG    1        2.378   5.246   0.125  0.00  0.00    -0.250 OA
BRANCH  14  16
ATOM     16  C   LIG    1        4.756   5.531   0.074  0.00  0.00    +0.111 C 
ATOM     17  C   LIG    1        4.921   6.974  -0.374  0.00  0.00    -0.014 C 
ATOM     18  C   LIG    1        5.947   7.800   0.374  0.00  0.00    +0.012 C 
ATOM     19  C   LIG    1        3.736   7.792  -0.822  0.00  0.00    +0.012 C 
ATOM     20  C   LIG    1        5.468   5.846  -1.231  0.00  0.00    +0.032 C 
BRANCH  20  21
ATOM     21  C   LIG    1        4.856   5.452  -2.510  0.00  0.00    -0.023 C 
ATOM     22  C   LIG    1        5.123   4.340  -3.225  0.00  0.00    -0.079 C 
ATOM     23  C   LIG    1        4.416   4.057  -4.523  0.00  0.00    +0.038 C 
ATOM     24  C   LIG    1        6.132   3.300  -2.819  0.00  0.00    +0.038 C 
ENDBRANCH  20  21
ENDBRANCH  14  16
ENDBRANCH  13  14
ENDBRANCH   1  13
TORSDOF 5
