MODEL 1
REMARK VINA RESULT:      -7.1      0.000      0.000
REMARK  Name = 
REMARK                            x       y       z     vdW  Elec       q    Type
REMARK                         _______ _______ _______ _____ _____    ______ ____
ROOT
ATOM      1  C   LIG    1       -9.200  -1.713  12.497  0.00  0.00    -0.046 A 
ATOM      2  C   LIG    1       -7.811  -1.676  12.580  0.00  0.00    +0.007 A 
ATOM      3  C   LIG    1       -7.091  -2.799  12.968  0.00  0.00    +0.046 A 
ATOM      4  C   LIG    1       -7.735  -3.986  13.337  0.00  0.00    +0.121 A 
ATOM      5  C   LIG    1       -9.128  -4.024  13.289  0.00  0.00    +0.046 A 
ATOM      6  C   LIG    1       -9.857  -2.897  12.866  0.00  0.00    +0.007 A 
ENDROOT
BRANCH   1   7
ATOM      7  C   LIG    1       -9.945  -0.483  12.029  0.00  0.00    +0.059 C 
BRANCH   7  10
ATOM      8  O   LIG    1      -13.149   0.109  12.255  0.00  0.00    -0.274 OA
ATOM      9  C   LIG    1      -12.140   0.739  12.545  0.00  0.00    +0.232 C 
ATOM     10  C   LIG    1      -10.847   0.150  13.098  0.00  0.00    +0.143 C 
ATOM     11  S   LIG    1       -9.980   1.625  13.788  0.00  0.00    -0.089 S 
ATOM     12  C   LIG    1      -11.069   2.755  13.031  0.00  0.00    +0.114 C 
ATOM     13  S   LIG    1      -10.952   4.405  13.063  0.00  0.00    -0.028 S 
ATOM     14  N   LIG    1      -12.075   2.095  12.408  0.00  0.00    -0.273 N 
ATOM     15  H   LIG    1      -12.869   2.596  12.037  0.00  0.00    +0.156 HD
ENDBRANCH   7  10
ENDBRANCH   1   7
BRANCH   4  16
ATOM     16  O   LIG    1       -7.081  -5.133  13.755  0.00  0.00    -0.490 OA
BRANCH  16  17
ATOM     17  C   LIG    1       -5.979  -5.458  12.897  0.00  0.00    +0.248 C 
BRANCH  17  18
ATOM     18  C   LIG    1       -6.121  -6.718  12.055  0.00  0.00    +0.147 C 
BRANCH  18  19
ATOM     19  N   LIG    1       -6.363  -6.483  10.596  0.00  0.00    -0.315 N 
ATOM     20  C   LIG    1       -6.588  -7.741   9.867  0.00  0.00    +0.131 C 
BRANCH  19  21
ATOM     21  C   LIG    1       -7.248  -5.477  10.154  0.00  0.00    +0.121 A 
ATOM     22  C   LIG    1       -6.778  -4.270   9.628  0.00  0.00    +0.043 A 
ATOM     23  C   LIG    1       -7.655  -3.282   9.174  0.00  0.00    +0.005 A 
ATOM     24  C   LIG    1       -9.010  -3.541   9.167  0.00  0.00    +0.020 A 
ATOM     25  C   LIG    1       -9.417  -4.776   9.628  0.00  0.00    +0.113 A 
ATOM     26  N   LIG    1       -8.578  -5.720  10.124  0.00  0.00    -0.240 NA
ENDBRANCH  19  21
ENDBRANCH  18  19
ENDBRANCH  17  18
ENDBRANCH  16  17
ENDBRANCH   4  16
TORSDOF 7
ENDMDL
MODEL 2
REMARK VINA RESULT:      -6.8      1.589      3.076
REMARK  Name = 
REMARK                            x       y       z     vdW  Elec       q    Type
REMARK                         _______ _______ _______ _____ _____    ______ ____
ROOT
ATOM      1  C   LIG    1       -9.636  -1.808  12.201  0.00  0.00    -0.046 A 
ATOM      2  C   LIG    1       -9.004  -2.357  11.089  0.00  0.00    +0.007 A 
ATOM      3  C   LIG    1       -9.183  -3.694  10.755  0.00  0.00    +0.046 A 
ATOM      4  C   LIG    1       -9.960  -4.545  11.550  0.00  0.00    +0.121 A 
ATOM      5  C   LIG    1      -10.571  -4.014  12.685  0.00  0.00    +0.046 A 
ATOM      6  C   LIG    1      -10.416  -2.653  13.006  0.00  0.00    +0.007 A 
ENDROOT
BRANCH   1   7
ATOM      7  C   LIG    1       -9.450  -0.340  12.506  0.00  0.00    +0.059 C 
BRANCH   7  10
ATOM      8  O   LIG    1      -12.684  -0.057  12.144  0.00  0.00    -0.274 OA
ATOM      9  C   LIG    1      -11.799   0.690  12.542  0.00  0.00    +0.232 C 
ATOM     10  C   LIG    1      -10.576   0.275  13.351  0.00  0.00    +0.143 C 
ATOM     11  S   LIG    1       -9.973   1.874  14.044  0.00  0.00    -0.089 S 
ATOM     12  C   LIG    1      -11.008   2.832  13.021  0.00  0.00    +0.114 C 
ATOM     13  S   LIG    1      -11.042   4.484  12.928  0.00  0.00    -0.028 S 
ATOM     14  N   LIG    1      -11.830   2.032  12.300  0.00  0.00    -0.273 N 
ATOM     15  H   LIG    1      -12.588   2.424  11.760  0.00  0.00    +0.156 HD
ENDBRANCH   7  10
ENDBRANCH   1   7
BRANCH   4  16
ATOM     16  O   LIG    1      -10.162  -5.890  11.289  0.00  0.00    -0.490 OA
BRANCH  16  17
ATOM     17  C   LIG    1       -8.992  -6.504  10.733  0.00  0.00    +0.248 C 
BRANCH  17  18
ATOM     18  C   LIG    1       -7.980  -7.063  11.723  0.00  0.00    +0.147 C 
BRANCH  18  19
ATOM     19  N   LIG    1       -6.622  -6.434  11.668  0.00  0.00    -0.315 N 
ATOM     20  C   LIG    1       -6.352  -5.824  10.357  0.00  0.00    +0.131 C 
BRANCH  19  21
ATOM     21  C   LIG    1       -6.152  -5.613  12.715  0.00  0.00    +0.121 A 
ATOM     22  C   LIG    1       -7.032  -4.946  13.573  0.00  0.00    +0.043 A 
ATOM     23  C   LIG    1       -6.565  -4.149  14.620  0.00  0.00    +0.005 A 
ATOM     24  C   LIG    1       -5.208  -4.089  14.862  0.00  0.00    +0.020 A 
ATOM     25  C   LIG    1       -4.387  -4.823  14.031  0.00  0.00    +0.113 A 
ATOM     26  N   LIG    1       -4.826  -5.555  12.977  0.00  0.00    -0.240 NA
ENDBRANCH  19  21
ENDBRANCH  18  19
ENDBRANCH  17  18
ENDBRANCH  16  17
ENDBRANCH   4  16
TORSDOF 7
ENDMDL
MODEL 3
REMARK VINA RESULT:      -6.6      4.180      5.850
REMARK  Name = 
REMARK                            x       y       z     vdW  Elec       q    Type
REMARK                         _______ _______ _______ _____ _____    ______ ____
ROOT
ATOM      1  C   LIG    1       -8.703  -5.078  13.156  0.00  0.00    -0.046 A 
ATOM      2  C   LIG    1       -9.026  -3.841  12.606  0.00  0.00    +0.007 A 
ATOM      3  C   LIG    1       -9.632  -3.751  11.358  0.00  0.00    +0.046 A 
ATOM      4  C   LIG    1       -9.889  -4.893  10.591  0.00  0.00    +0.121 A 
ATOM      5  C   LIG    1       -9.539  -6.135  11.116  0.00  0.00    +0.046 A 
ATOM      6  C   LIG    1       -8.956  -6.230  12.393  0.00  0.00    +0.007 A 
ENDROOT
BRANCH   1   7
ATOM      7  C   LIG    1       -8.086  -5.136  14.534  0.00  0.00    +0.059 C 
BRANCH   7  10
ATOM      8  O   LIG    1       -5.890  -3.332  12.923  0.00  0.00    -0.274 OA
ATOM      9  C   LIG    1       -5.960  -3.780  14.061  0.00  0.00    +0.232 C 
ATOM     10  C   LIG    1       -7.231  -3.911  14.892  0.00  0.00    +0.143 C 
ATOM     11  S   LIG    1       -6.587  -4.136  16.606  0.00  0.00    -0.089 S 
ATOM     12  C   LIG    1       -4.949  -4.396  16.072  0.00  0.00    +0.114 C 
ATOM     13  S   LIG    1       -3.653  -4.782  17.026  0.00  0.00    -0.028 S 
ATOM     14  N   LIG    1       -4.855  -4.213  14.733  0.00  0.00    -0.273 N 
ATOM     15  H   LIG    1       -3.954  -4.187  14.277  0.00  0.00    +0.156 HD
ENDBRANCH   7  10
ENDBRANCH   1   7
BRANCH   4  16
ATOM     16  O   LIG    1      -10.467  -4.875   9.332  0.00  0.00    -0.490 OA
BRANCH  16  17
ATOM     17  C   LIG    1       -9.576  -4.338   8.346  0.00  0.00    +0.248 C 
BRANCH  17  18
ATOM     18  C   LIG    1       -8.483  -5.268   7.838  0.00  0.00    +0.147 C 
BRANCH  18  19
ATOM     19  N   LIG    1       -7.144  -5.089   8.484  0.00  0.00    -0.315 N 
ATOM     20  C   LIG    1       -6.949  -3.716   8.973  0.00  0.00    +0.131 C 
BRANCH  19  21
ATOM     21  C   LIG    1       -6.646  -6.032   9.408  0.00  0.00    +0.121 A 
ATOM     22  C   LIG    1       -5.938  -5.636  10.547  0.00  0.00    +0.043 A 
ATOM     23  C   LIG    1       -5.461  -6.570  11.470  0.00  0.00    +0.005 A 
ATOM     24  C   LIG    1       -5.771  -7.903  11.294  0.00  0.00    +0.020 A 
ATOM     25  C   LIG    1       -6.534  -8.232  10.193  0.00  0.00    +0.113 A 
ATOM     26  N   LIG    1       -6.954  -7.341   9.260  0.00  0.00    -0.240 NA
ENDBRANCH  19  21
ENDBRANCH  18  19
ENDBRANCH  17  18
ENDBRANCH  16  17
ENDBRANCH   4  16
TORSDOF 7
ENDMDL
MODEL 4
REMARK VINA RESULT:      -6.4      3.602      8.455
REMARK  Name = 
REMARK                            x       y       z     vdW  Elec       q    Type
REMARK                         _______ _______ _______ _____ _____    ______ ____
ROOT
ATOM      1  C   LIG    1       -7.912  -3.304  12.933  0.00  0.00    -0.046 A 
ATOM      2  C   LIG    1       -9.190  -3.838  13.065  0.00  0.00    +0.007 A 
ATOM      3  C   LIG    1      -10.316  -3.032  12.943  0.00  0.00    +0.046 A 
ATOM      4  C   LIG    1      -10.204  -1.652  12.737  0.00  0.00    +0.121 A 
ATOM      5  C   LIG    1       -8.928  -1.101  12.636  0.00  0.00    +0.046 A 
ATOM      6  C   LIG    1       -7.788  -1.920  12.727  0.00  0.00    +0.007 A 
ENDROOT
BRANCH   1   7
ATOM      7  C   LIG    1       -6.714  -4.221  13.029  0.00  0.00    +0.059 C 
BRANCH   7  10
ATOM      8  O   LIG    1       -7.523  -3.752   9.899  0.00  0.00    -0.274 OA
ATOM      9  C   LIG    1       -6.972  -4.656  10.514  0.00  0.00    +0.232 C 
ATOM     10  C   LIG    1       -6.014  -4.484  11.687  0.00  0.00    +0.143 C 
ATOM     11  S   LIG    1       -5.175  -6.123  11.784  0.00  0.00    -0.089 S 
ATOM     12  C   LIG    1       -6.294  -6.882  10.685  0.00  0.00    +0.114 C 
ATOM     13  S   LIG    1       -6.320  -8.481  10.258  0.00  0.00    -0.028 S 
ATOM     14  N   LIG    1       -7.158  -5.967  10.186  0.00  0.00    -0.273 N 
ATOM     15  H   LIG    1       -7.784  -6.207   9.430  0.00  0.00    +0.156 HD
ENDBRANCH   7  10
ENDBRANCH   1   7
BRANCH   4  16
ATOM     16  O   LIG    1      -11.281  -0.788  12.629  0.00  0.00    -0.490 OA
BRANCH  16  17
ATOM     17  C   LIG    1      -11.100   0.387  13.430  0.00  0.00    +0.248 C 
BRANCH  17  18
ATOM     18  C   LIG    1      -11.060   1.716  12.688  0.00  0.00    +0.147 C 
BRANCH  18  19
ATOM     19  N   LIG    1      -10.444   2.850  13.448  0.00  0.00    -0.315 N 
ATOM     20  C   LIG    1       -9.426   2.383  14.401  0.00  0.00    +0.131 C 
BRANCH  19  21
ATOM     21  C   LIG    1      -10.023   4.027  12.793  0.00  0.00    +0.121 A 
ATOM     22  C   LIG    1       -8.984   4.814  13.299  0.00  0.00    +0.043 A 
ATOM     23  C   LIG    1       -8.556   5.969  12.639  0.00  0.00    +0.005 A 
ATOM     24  C   LIG    1       -9.116   6.288  11.419  0.00  0.00    +0.020 A 
ATOM     25  C   LIG    1      -10.086   5.439  10.929  0.00  0.00    +0.113 A 
ATOM     26  N   LIG    1      -10.548   4.347  11.588  0.00  0.00    -0.240 NA
ENDBRANCH  19  21
ENDBRANCH  18  19
ENDBRANCH  17  18
ENDBRANCH  16  17
ENDBRANCH   4  16
TORSDOF 7
ENDMDL
MODEL 5
REMARK VINA RESULT:      -6.1      3.308      8.547
REMARK  Name = 
REMARK                            x       y       z     vdW  Elec       q    Type
REMARK                         _______ _______ _______ _____ _____    ______ ____
ROOT
ATOM      1  C   LIG    1       -8.046  -3.246  12.637  0.00  0.00    -0.046 A 
ATOM      2  C   LIG    1       -7.985  -2.085  11.871  0.00  0.00    +0.007 A 
ATOM      3  C   LIG    1       -9.029  -1.168  11.883  0.00  0.00    +0.046 A 
ATOM      4  C   LIG    1      -10.195  -1.402  12.621  0.00  0.00    +0.121 A 
ATOM      5  C   LIG    1      -10.281  -2.577  13.367  0.00  0.00    +0.046 A 
ATOM      6  C   LIG    1       -9.211  -3.491  13.381  0.00  0.00    +0.007 A 
ENDROOT
BRANCH   1   7
ATOM      7  C   LIG    1       -6.871  -4.197  12.631  0.00  0.00    +0.059 C 
BRANCH   7  10
ATOM      8  O   LIG    1       -5.154  -6.922  12.088  0.00  0.00    -0.274 OA
ATOM      9  C   LIG    1       -6.138  -6.412  11.565  0.00  0.00    +0.232 C 
ATOM     10  C   LIG    1       -7.239  -5.649  12.291  0.00  0.00    +0.143 C 
ATOM     11  S   LIG    1       -8.611  -5.626  11.059  0.00  0.00    -0.089 S 
ATOM     12  C   LIG    1       -7.598  -6.192   9.759  0.00  0.00    +0.114 C 
ATOM     13  S   LIG    1       -8.043  -6.380   8.176  0.00  0.00    -0.028 S 
ATOM     14  N   LIG    1       -6.361  -6.492  10.222  0.00  0.00    -0.273 N 
ATOM     15  H   LIG    1       -5.690  -6.964   9.633  0.00  0.00    +0.156 HD
ENDBRANCH   7  10
ENDBRANCH   1   7
BRANCH   4  16
ATOM     16  O   LIG    1      -11.281  -0.544  12.660  0.00  0.00    -0.490 OA
BRANCH  16  17
ATOM     17  C   LIG    1      -11.001   0.632  13.431  0.00  0.00    +0.248 C 
BRANCH  17  18
ATOM     18  C   LIG    1      -10.879   1.939  12.659  0.00  0.00    +0.147 C 
BRANCH  18  19
ATOM     19  N   LIG    1      -10.338   3.093  13.444  0.00  0.00    -0.315 N 
ATOM     20  C   LIG    1       -9.379   2.657  14.471  0.00  0.00    +0.131 C 
BRANCH  19  21
ATOM     21  C   LIG    1       -9.895   4.270  12.804  0.00  0.00    +0.121 A 
ATOM     22  C   LIG    1       -8.795   4.991  13.279  0.00  0.00    +0.043 A 
ATOM     23  C   LIG    1       -8.347   6.146  12.633  0.00  0.00    +0.005 A 
ATOM     24  C   LIG    1       -8.953   6.532  11.455  0.00  0.00    +0.020 A 
ATOM     25  C   LIG    1       -9.986   5.745  10.991  0.00  0.00    +0.113 A 
ATOM     26  N   LIG    1      -10.466   4.654  11.639  0.00  0.00    -0.240 NA
ENDBRANCH  19  21
ENDBRANCH  18  19
ENDBRANCH  17  18
ENDBRANCH  16  17
ENDBRANCH   4  16
TORSDOF 7
ENDMDL
MODEL 6
REMARK VINA RESULT:      -6.0      3.535      5.918
REMARK  Name = 
REMARK                            x       y       z     vdW  Elec       q    Type
REMARK                         _______ _______ _______ _____ _____    ______ ____
ROOT
ATOM      1  C   LIG    1      -10.267   3.683  13.272  0.00  0.00    -0.046 A 
ATOM      2  C   LIG    1      -11.203   3.123  12.407  0.00  0.00    +0.007 A 
ATOM      3  C   LIG    1      -11.488   1.763  12.450  0.00  0.00    +0.046 A 
ATOM      4  C   LIG    1      -10.811   0.904  13.323  0.00  0.00    +0.121 A 
ATOM      5  C   LIG    1       -9.847   1.449  14.170  0.00  0.00    +0.046 A 
ATOM      6  C   LIG    1       -9.580   2.830  14.150  0.00  0.00    +0.007 A 
ENDROOT
BRANCH   1   7
ATOM      7  C   LIG    1      -10.016   5.173  13.224  0.00  0.00    +0.059 C 
BRANCH   7  10
ATOM      8  O   LIG    1       -7.194   6.816  13.303  0.00  0.00    -0.274 OA
ATOM      9  C   LIG    1       -8.168   6.822  12.559  0.00  0.00    +0.232 C 
ATOM     10  C   LIG    1       -8.995   5.605  12.161  0.00  0.00    +0.143 C 
ATOM     11  S   LIG    1       -9.918   6.196  10.678  0.00  0.00    -0.089 S 
ATOM     12  C   LIG    1       -9.483   7.864  10.938  0.00  0.00    +0.114 C 
ATOM     13  S   LIG    1       -9.999   9.163  10.053  0.00  0.00    -0.028 S 
ATOM     14  N   LIG    1       -8.620   7.970  11.976  0.00  0.00    -0.273 N 
ATOM     15  H   LIG    1       -8.158   8.845  12.176  0.00  0.00    +0.156 HD
ENDBRANCH   7  10
ENDBRANCH   1   7
BRANCH   4  16
ATOM     16  O   LIG    1      -11.028  -0.461  13.401  0.00  0.00    -0.490 OA
BRANCH  16  17
ATOM     17  C   LIG    1      -10.025  -1.200  12.692  0.00  0.00    +0.248 C 
BRANCH  17  18
ATOM     18  C   LIG    1      -10.015  -2.708  12.901  0.00  0.00    +0.147 C 
BRANCH  18  19
ATOM     19  N   LIG    1       -8.788  -3.410  12.408  0.00  0.00    -0.315 N 
ATOM     20  C   LIG    1       -8.312  -2.853  11.132  0.00  0.00    +0.131 C 
BRANCH  19  21
ATOM     21  C   LIG    1       -7.709  -3.692  13.272  0.00  0.00    +0.121 A 
ATOM     22  C   LIG    1       -7.905  -4.316  14.507  0.00  0.00    +0.043 A 
ATOM     23  C   LIG    1       -6.833  -4.611  15.353  0.00  0.00    +0.005 A 
ATOM     24  C   LIG    1       -5.548  -4.356  14.919  0.00  0.00    +0.020 A 
ATOM     25  C   LIG    1       -5.405  -3.807  13.662  0.00  0.00    +0.113 A 
ATOM     26  N   LIG    1       -6.441  -3.465  12.856  0.00  0.00    -0.240 NA
ENDBRANCH  19  21
ENDBRANCH  18  19
ENDBRANCH  17  18
ENDBRANCH  16  17
ENDBRANCH   4  16
TORSDOF 7
ENDMDL
MODEL 7
REMARK VINA RESULT:      -6.0      3.515      5.515
REMARK  Name = 
REMARK                            x       y       z     vdW  Elec       q    Type
REMARK                         _______ _______ _______ _____ _____    ______ ____
ROOT
ATOM      1  C   LIG    1      -10.186   3.919  13.291  0.00  0.00    -0.046 A 
ATOM      2  C   LIG    1      -11.147   3.371  12.445  0.00  0.00    +0.007 A 
ATOM      3  C   LIG    1      -11.469   2.021  12.514  0.00  0.00    +0.046 A 
ATOM      4  C   LIG    1      -10.805   1.158  13.394  0.00  0.00    +0.121 A 
ATOM      5  C   LIG    1       -9.818   1.689  14.222  0.00  0.00    +0.046 A 
ATOM      6  C   LIG    1       -9.514   3.062  14.176  0.00  0.00    +0.007 A 
ENDROOT
BRANCH   1   7
ATOM      7  C   LIG    1       -9.895   5.400  13.216  0.00  0.00    +0.059 C 
BRANCH   7  10
ATOM      8  O   LIG    1       -7.126   7.132  13.241  0.00  0.00    -0.274 OA
ATOM      9  C   LIG    1       -8.079   7.053  12.476  0.00  0.00    +0.232 C 
ATOM     10  C   LIG    1       -8.859   5.785  12.149  0.00  0.00    +0.143 C 
ATOM     11  S   LIG    1       -9.759   6.236  10.604  0.00  0.00    -0.089 S 
ATOM     12  C   LIG    1       -9.380   7.930  10.749  0.00  0.00    +0.114 C 
ATOM     13  S   LIG    1       -9.910   9.145   9.757  0.00  0.00    -0.028 S 
ATOM     14  N   LIG    1       -8.548   8.140  11.797  0.00  0.00    -0.273 N 
ATOM     15  H   LIG    1       -8.117   9.042  11.943  0.00  0.00    +0.156 HD
ENDBRANCH   7  10
ENDBRANCH   1   7
BRANCH   4  16
ATOM     16  O   LIG    1      -11.059  -0.199  13.497  0.00  0.00    -0.490 OA
BRANCH  16  17
ATOM     17  C   LIG    1      -10.060  -0.979  12.827  0.00  0.00    +0.248 C 
BRANCH  17  18
ATOM     18  C   LIG    1      -10.119  -2.486  13.036  0.00  0.00    +0.147 C 
BRANCH  18  19
ATOM     19  N   LIG    1       -9.007  -3.260  12.397  0.00  0.00    -0.315 N 
ATOM     20  C   LIG    1       -8.645  -4.450  13.182  0.00  0.00    +0.131 C 
BRANCH  19  21
ATOM     21  C   LIG    1       -9.015  -3.547  11.016  0.00  0.00    +0.121 A 
ATOM     22  C   LIG    1       -8.096  -2.959  10.142  0.00  0.00    +0.043 A 
ATOM     23  C   LIG    1       -8.093  -3.258   8.777  0.00  0.00    +0.005 A 
ATOM     24  C   LIG    1       -8.962  -4.219   8.301  0.00  0.00    +0.020 A 
ATOM     25  C   LIG    1       -9.798  -4.822   9.217  0.00  0.00    +0.113 A 
ATOM     26  N   LIG    1       -9.848  -4.498  10.534  0.00  0.00    -0.240 NA
ENDBRANCH  19  21
ENDBRANCH  18  19
ENDBRANCH  17  18
ENDBRANCH  16  17
ENDBRANCH   4  16
TORSDOF 7
ENDMDL
MODEL 8
REMARK VINA RESULT:      -5.8      3.328      8.578
REMARK  Name = 
REMARK                            x       y       z     vdW  Elec       q    Type
REMARK                         _______ _______ _______ _____ _____    ______ ____
ROOT
ATOM      1  C   LIG    1       -8.293  -3.569  12.401  0.00  0.00    -0.046 A 
ATOM      2  C   LIG    1       -9.526  -3.833  12.990  0.00  0.00    +0.007 A 
ATOM      3  C   LIG    1      -10.500  -2.845  13.077  0.00  0.00    +0.046 A 
ATOM      4  C   LIG    1      -10.258  -1.543  12.626  0.00  0.00    +0.121 A 
ATOM      5  C   LIG    1       -9.014  -1.258  12.065  0.00  0.00    +0.046 A 
ATOM      6  C   LIG    1       -8.039  -2.265  11.947  0.00  0.00    +0.007 A 
ENDROOT
BRANCH   1   7
ATOM      7  C   LIG    1       -7.276  -4.682  12.286  0.00  0.00    +0.059 C 
BRANCH   7  10
ATOM      8  O   LIG    1       -4.352  -5.985  11.639  0.00  0.00    -0.274 OA
ATOM      9  C   LIG    1       -4.830  -5.388  12.596  0.00  0.00    +0.232 C 
ATOM     10  C   LIG    1       -5.826  -4.236  12.522  0.00  0.00    +0.143 C 
ATOM     11  S   LIG    1       -5.718  -3.485  14.204  0.00  0.00    -0.089 S 
ATOM     12  C   LIG    1       -4.802  -4.815  14.858  0.00  0.00    +0.114 C 
ATOM     13  S   LIG    1       -4.329  -5.003  16.432  0.00  0.00    -0.028 S 
ATOM     14  N   LIG    1       -4.492  -5.700  13.880  0.00  0.00    -0.273 N 
ATOM     15  H   LIG    1       -3.848  -6.458  14.055  0.00  0.00    +0.156 HD
ENDBRANCH   7  10
ENDBRANCH   1   7
BRANCH   4  16
ATOM     16  O   LIG    1      -11.173  -0.506  12.703  0.00  0.00    -0.490 OA
BRANCH  16  17
ATOM     17  C   LIG    1      -10.584   0.682  13.249  0.00  0.00    +0.248 C 
BRANCH  17  18
ATOM     18  C   LIG    1      -11.067   2.006  12.675  0.00  0.00    +0.147 C 
BRANCH  18  19
ATOM     19  N   LIG    1      -10.448   3.227  13.283  0.00  0.00    -0.315 N 
ATOM     20  C   LIG    1       -9.472   2.884  14.329  0.00  0.00    +0.131 C 
BRANCH  19  21
ATOM     21  C   LIG    1       -9.978   4.287  12.479  0.00  0.00    +0.121 A 
ATOM     22  C   LIG    1      -10.528   4.550  11.221  0.00  0.00    +0.043 A 
ATOM     23  C   LIG    1      -10.074   5.612  10.434  0.00  0.00    +0.005 A 
ATOM     24  C   LIG    1       -9.122   6.467  10.950  0.00  0.00    +0.020 A 
ATOM     25  C   LIG    1       -8.665   6.206  12.225  0.00  0.00    +0.113 A 
ATOM     26  N   LIG    1       -9.057   5.145  12.975  0.00  0.00    -0.240 NA
ENDBRANCH  19  21
ENDBRANCH  18  19
ENDBRANCH  17  18
ENDBRANCH  16  17
ENDBRANCH   4  16
TORSDOF 7
ENDMDL
MODEL 9
REMARK VINA RESULT:      -5.6      4.228      6.040
REMARK  Name = 
REMARK                            x       y       z     vdW  Elec       q    Type
REMARK                         _______ _______ _______ _____ _____    ______ ____
ROOT
ATOM      1  C   LIG    1       -7.353  -3.211  12.826  0.00  0.00    -0.046 A 
ATOM      2  C   LIG    1       -8.319  -2.370  12.281  0.00  0.00    +0.007 A 
ATOM      3  C   LIG    1       -8.532  -2.325  10.909  0.00  0.00    +0.046 A 
ATOM      4  C   LIG    1       -7.752  -3.081  10.026  0.00  0.00    +0.121 A 
ATOM      5  C   LIG    1       -6.759  -3.902  10.558  0.00  0.00    +0.046 A 
ATOM      6  C   LIG    1       -6.564  -3.973  11.950  0.00  0.00    +0.007 A 
ENDROOT
BRANCH   1   7
ATOM      7  C   LIG    1       -7.182  -3.264  14.327  0.00  0.00    +0.059 C 
BRANCH   7  10
ATOM      8  O   LIG    1       -7.839  -5.210  16.867  0.00  0.00    -0.274 OA
ATOM      9  C   LIG    1       -6.808  -4.808  16.340  0.00  0.00    +0.232 C 
ATOM     10  C   LIG    1       -6.596  -4.585  14.848  0.00  0.00    +0.143 C 
ATOM     11  S   LIG    1       -4.760  -4.504  14.696  0.00  0.00    -0.089 S 
ATOM     12  C   LIG    1       -4.514  -4.390  16.417  0.00  0.00    +0.114 C 
ATOM     13  S   LIG    1       -3.066  -4.182  17.191  0.00  0.00    -0.028 S 
ATOM     14  N   LIG    1       -5.693  -4.521  17.071  0.00  0.00    -0.273 N 
ATOM     15  H   LIG    1       -5.717  -4.619  18.076  0.00  0.00    +0.156 HD
ENDBRANCH   7  10
ENDBRANCH   1   7
BRANCH   4  16
ATOM     16  O   LIG    1       -7.894  -3.067   8.648  0.00  0.00    -0.490 OA
BRANCH  16  17
ATOM     17  C   LIG    1       -9.128  -3.670   8.236  0.00  0.00    +0.248 C 
BRANCH  17  18
ATOM     18  C   LIG    1       -9.580  -4.896   9.017  0.00  0.00    +0.147 C 
BRANCH  18  19
ATOM     19  N   LIG    1       -8.859  -6.165   8.682  0.00  0.00    -0.315 N 
ATOM     20  C   LIG    1       -8.135  -6.065   7.406  0.00  0.00    +0.131 C 
BRANCH  19  21
ATOM     21  C   LIG    1       -8.091  -6.848   9.648  0.00  0.00    +0.121 A 
ATOM     22  C   LIG    1       -8.482  -6.901  10.990  0.00  0.00    +0.043 A 
ATOM     23  C   LIG    1       -7.729  -7.593  11.942  0.00  0.00    +0.005 A 
ATOM     24  C   LIG    1       -6.624  -8.309  11.530  0.00  0.00    +0.020 A 
ATOM     25  C   LIG    1       -6.323  -8.283  10.184  0.00  0.00    +0.113 A 
ATOM     26  N   LIG    1       -7.014  -7.569   9.260  0.00  0.00    -0.240 NA
ENDBRANCH  19  21
ENDBRANCH  18  19
ENDBRANCH  17  18
ENDBRANCH  16  17
ENDBRANCH   4  16
TORSDOF 7
ENDMDL
