MODEL 1
REMARK VINA RESULT:      -7.8      0.000      0.000
REMARK  Name = 
REMARK                            x       y       z     vdW  Elec       q    Type
REMARK                         _______ _______ _______ _____ _____    ______ ____
ROOT
ATOM      1  C   LIG    1       61.098  45.503  29.564  0.00  0.00    -0.046 A 
ATOM      2  C   LIG    1       62.053  44.588  29.128  0.00  0.00    +0.007 A 
ATOM      3  C   LIG    1       63.397  44.757  29.441  0.00  0.00    +0.046 A 
ATOM      4  C   LIG    1       63.843  45.874  30.157  0.00  0.00    +0.121 A 
ATOM      5  C   LIG    1       62.900  46.814  30.570  0.00  0.00    +0.046 A 
ATOM      6  C   LIG    1       61.535  46.628  30.282  0.00  0.00    +0.007 A 
ENDROOT
BRANCH   1   7
ATOM      7  C   LIG    1       59.642  45.261  29.241  0.00  0.00    +0.059 C 
BRANCH   7  10
ATOM      8  O   LIG    1       58.840  45.652  32.383  0.00  0.00    -0.274 OA
ATOM      9  C   LIG    1       58.206  45.621  31.335  0.00  0.00    +0.232 C 
ATOM     10  C   LIG    1       58.669  46.179  29.995  0.00  0.00    +0.143 C 
ATOM     11  S   LIG    1       57.103  46.285  29.026  0.00  0.00    -0.089 S 
ATOM     12  C   LIG    1       56.198  45.346  30.181  0.00  0.00    +0.114 C 
ATOM     13  S   LIG    1       54.623  44.860  30.033  0.00  0.00    -0.028 S 
ATOM     14  N   LIG    1       56.960  45.071  31.266  0.00  0.00    -0.273 N 
ATOM     15  H   LIG    1       56.552  44.655  32.091  0.00  0.00    +0.156 HD
ENDBRANCH   7  10
ENDBRANCH   1   7
BRANCH   4  16
ATOM     16  O   LIG    1       65.167  46.116  30.482  0.00  0.00    -0.490 OA
BRANCH  16  17
ATOM     17  C   LIG    1       65.608  45.284  31.563  0.00  0.00    +0.248 C 
BRANCH  17  18
ATOM     18  C   LIG    1       65.504  45.874  32.962  0.00  0.00    +0.147 C 
BRANCH  18  19
ATOM     19  N   LIG    1       64.328  45.408  33.763  0.00  0.00    -0.315 N 
ATOM     20  C   LIG    1       64.702  44.373  34.738  0.00  0.00    +0.131 C 
BRANCH  19  21
ATOM     21  C   LIG    1       63.414  46.325  34.323  0.00  0.00    +0.121 A 
ATOM     22  C   LIG    1       62.034  46.175  34.160  0.00  0.00    +0.043 A 
ATOM     23  C   LIG    1       61.130  47.075  34.731  0.00  0.00    +0.005 A 
ATOM     24  C   LIG    1       61.611  48.082  35.542  0.00  0.00    +0.020 A 
ATOM     25  C   LIG    1       62.976  48.142  35.730  0.00  0.00    +0.113 A 
ATOM     26  N   LIG    1       63.866  47.309  35.135  0.00  0.00    -0.240 NA
ENDBRANCH  19  21
ENDBRANCH  18  19
ENDBRANCH  17  18
ENDBRANCH  16  17
ENDBRANCH   4  16
TORSDOF 7
ENDMDL
MODEL 2
REMARK VINA RESULT:      -7.7      1.679      1.984
REMARK  Name = 
REMARK                            x       y       z     vdW  Elec       q    Type
REMARK                         _______ _______ _______ _____ _____    ______ ____
ROOT
ATOM      1  C   LIG    1       62.112  45.961  28.196  0.00  0.00    -0.046 A 
ATOM      2  C   LIG    1       62.095  44.677  28.733  0.00  0.00    +0.007 A 
ATOM      3  C   LIG    1       63.231  44.139  29.328  0.00  0.00    +0.046 A 
ATOM      4  C   LIG    1       64.439  44.845  29.361  0.00  0.00    +0.121 A 
ATOM      5  C   LIG    1       64.476  46.118  28.796  0.00  0.00    +0.046 A 
ATOM      6  C   LIG    1       63.319  46.677  28.222  0.00  0.00    +0.007 A 
ENDROOT
BRANCH   1   7
ATOM      7  C   LIG    1       60.845  46.527  27.597  0.00  0.00    +0.059 C 
BRANCH   7  10
ATOM      8  O   LIG    1       61.286  47.810  30.568  0.00  0.00    -0.274 OA
ATOM      9  C   LIG    1       60.410  47.127  30.052  0.00  0.00    +0.232 C 
ATOM     10  C   LIG    1       59.930  47.231  28.609  0.00  0.00    +0.143 C 
ATOM     11  S   LIG    1       58.313  46.343  28.644  0.00  0.00    -0.089 S 
ATOM     12  C   LIG    1       58.589  45.680  30.232  0.00  0.00    +0.114 C 
ATOM     13  S   LIG    1       57.604  44.623  31.040  0.00  0.00    -0.028 S 
ATOM     14  N   LIG    1       59.738  46.171  30.755  0.00  0.00    -0.273 N 
ATOM     15  H   LIG    1       59.979  46.001  31.721  0.00  0.00    +0.156 HD
ENDBRANCH   7  10
ENDBRANCH   1   7
BRANCH   4  16
ATOM     16  O   LIG    1       65.612  44.360  29.915  0.00  0.00    -0.490 OA
BRANCH  16  17
ATOM     17  C   LIG    1       65.924  45.016  31.151  0.00  0.00    +0.248 C 
BRANCH  17  18
ATOM     18  C   LIG    1       64.966  44.777  32.310  0.00  0.00    +0.147 C 
BRANCH  18  19
ATOM     19  N   LIG    1       65.054  45.774  33.423  0.00  0.00    -0.315 N 
ATOM     20  C   LIG    1       66.140  46.742  33.210  0.00  0.00    +0.131 C 
BRANCH  19  21
ATOM     21  C   LIG    1       63.900  46.410  33.928  0.00  0.00    +0.121 A 
ATOM     22  C   LIG    1       62.621  46.071  33.477  0.00  0.00    +0.043 A 
ATOM     23  C   LIG    1       61.479  46.689  33.992  0.00  0.00    +0.005 A 
ATOM     24  C   LIG    1       61.615  47.592  35.027  0.00  0.00    +0.020 A 
ATOM     25  C   LIG    1       62.892  47.837  35.485  0.00  0.00    +0.113 A 
ATOM     26  N   LIG    1       64.013  47.285  34.955  0.00  0.00    -0.240 NA
ENDBRANCH  19  21
ENDBRANCH  18  19
ENDBRANCH  17  18
ENDBRANCH  16  17
ENDBRANCH   4  16
TORSDOF 7
ENDMDL
MODEL 3
REMARK VINA RESULT:      -7.6      3.184      6.676
REMARK  Name = 
REMARK                            x       y       z     vdW  Elec       q    Type
REMARK                         _______ _______ _______ _____ _____    ______ ____
ROOT
ATOM      1  C   LIG    1       65.102  45.061  30.598  0.00  0.00    -0.046 A 
ATOM      2  C   LIG    1       64.669  43.912  29.942  0.00  0.00    +0.007 A 
ATOM      3  C   LIG    1       63.667  43.976  28.981  0.00  0.00    +0.046 A 
ATOM      4  C   LIG    1       63.024  45.182  28.678  0.00  0.00    +0.121 A 
ATOM      5  C   LIG    1       63.427  46.333  29.353  0.00  0.00    +0.046 A 
ATOM      6  C   LIG    1       64.463  46.275  30.303  0.00  0.00    +0.007 A 
ENDROOT
BRANCH   1   7
ATOM      7  C   LIG    1       66.224  44.957  31.606  0.00  0.00    +0.059 C 
BRANCH   7  10
ATOM      8  O   LIG    1       64.267  42.894  33.213  0.00  0.00    -0.274 OA
ATOM      9  C   LIG    1       64.424  44.109  33.224  0.00  0.00    +0.232 C 
ATOM     10  C   LIG    1       65.753  44.838  33.062  0.00  0.00    +0.143 C 
ATOM     11  S   LIG    1       65.376  46.532  33.689  0.00  0.00    -0.089 S 
ATOM     12  C   LIG    1       63.656  46.255  33.721  0.00  0.00    +0.114 C 
ATOM     13  S   LIG    1       62.489  47.364  34.103  0.00  0.00    -0.028 S 
ATOM     14  N   LIG    1       63.380  44.967  33.406  0.00  0.00    -0.273 N 
ATOM     15  H   LIG    1       62.445  44.599  33.512  0.00  0.00    +0.156 HD
ENDBRANCH   7  10
ENDBRANCH   1   7
BRANCH   4  16
ATOM     16  O   LIG    1       62.005  45.313  27.750  0.00  0.00    -0.490 OA
BRANCH  16  17
ATOM     17  C   LIG    1       61.402  46.613  27.803  0.00  0.00    +0.248 C 
BRANCH  17  18
ATOM     18  C   LIG    1       59.902  46.658  28.057  0.00  0.00    +0.147 C 
BRANCH  18  19
ATOM     19  N   LIG    1       59.442  45.934  29.284  0.00  0.00    -0.315 N 
ATOM     20  C   LIG    1       60.139  46.404  30.492  0.00  0.00    +0.131 C 
BRANCH  19  21
ATOM     21  C   LIG    1       58.071  45.724  29.539  0.00  0.00    +0.121 A 
ATOM     22  C   LIG    1       57.086  46.514  28.939  0.00  0.00    +0.043 A 
ATOM     23  C   LIG    1       55.727  46.293  29.179  0.00  0.00    +0.005 A 
ATOM     24  C   LIG    1       55.351  45.219  29.958  0.00  0.00    +0.020 A 
ATOM     25  C   LIG    1       56.359  44.427  30.467  0.00  0.00    +0.113 A 
ATOM     26  N   LIG    1       57.683  44.666  30.287  0.00  0.00    -0.240 NA
ENDBRANCH  19  21
ENDBRANCH  18  19
ENDBRANCH  17  18
ENDBRANCH  16  17
ENDBRANCH   4  16
TORSDOF 7
ENDMDL
MODEL 4
REMARK VINA RESULT:      -7.3      3.141      6.149
REMARK  Name = 
REMARK                            x       y       z     vdW  Elec       q    Type
REMARK                         _______ _______ _______ _____ _____    ______ ____
ROOT
ATOM      1  C   LIG    1       65.198  44.674  32.675  0.00  0.00    -0.046 A 
ATOM      2  C   LIG    1       65.806  45.311  31.597  0.00  0.00    +0.007 A 
ATOM      3  C   LIG    1       65.549  44.907  30.292  0.00  0.00    +0.046 A 
ATOM      4  C   LIG    1       64.715  43.816  30.019  0.00  0.00    +0.121 A 
ATOM      5  C   LIG    1       64.127  43.149  31.092  0.00  0.00    +0.046 A 
ATOM      6  C   LIG    1       64.361  43.578  32.412  0.00  0.00    +0.007 A 
ENDROOT
BRANCH   1   7
ATOM      7  C   LIG    1       65.470  45.171  34.076  0.00  0.00    +0.059 C 
BRANCH   7  10
ATOM      8  O   LIG    1       64.405  46.504  36.861  0.00  0.00    -0.274 OA
ATOM      9  C   LIG    1       63.946  46.403  35.729  0.00  0.00    +0.232 C 
ATOM     10  C   LIG    1       64.743  46.475  34.432  0.00  0.00    +0.143 C 
ATOM     11  S   LIG    1       63.442  46.780  33.161  0.00  0.00    -0.089 S 
ATOM     12  C   LIG    1       62.134  46.433  34.259  0.00  0.00    +0.114 C 
ATOM     13  S   LIG    1       60.523  46.385  33.885  0.00  0.00    -0.028 S 
ATOM     14  N   LIG    1       62.612  46.222  35.509  0.00  0.00    -0.273 N 
ATOM     15  H   LIG    1       61.983  46.146  36.295  0.00  0.00    +0.156 HD
ENDBRANCH   7  10
ENDBRANCH   1   7
BRANCH   4  16
ATOM     16  O   LIG    1       64.434  43.346  28.747  0.00  0.00    -0.490 OA
BRANCH  16  17
ATOM     17  C   LIG    1       63.136  43.763  28.302  0.00  0.00    +0.248 C 
BRANCH  17  18
ATOM     18  C   LIG    1       63.063  45.093  27.567  0.00  0.00    +0.147 C 
BRANCH  18  19
ATOM     19  N   LIG    1       62.640  46.260  28.404  0.00  0.00    -0.315 N 
ATOM     20  C   LIG    1       63.212  47.524  27.914  0.00  0.00    +0.131 C 
BRANCH  19  21
ATOM     21  C   LIG    1       61.295  46.431  28.795  0.00  0.00    +0.121 A 
ATOM     22  C   LIG    1       60.556  47.552  28.405  0.00  0.00    +0.043 A 
ATOM     23  C   LIG    1       59.219  47.710  28.779  0.00  0.00    +0.005 A 
ATOM     24  C   LIG    1       58.595  46.696  29.475  0.00  0.00    +0.020 A 
ATOM     25  C   LIG    1       59.348  45.579  29.772  0.00  0.00    +0.113 A 
ATOM     26  N   LIG    1       60.662  45.440  29.464  0.00  0.00    -0.240 NA
ENDBRANCH  19  21
ENDBRANCH  18  19
ENDBRANCH  17  18
ENDBRANCH  16  17
ENDBRANCH   4  16
TORSDOF 7
ENDMDL
MODEL 5
REMARK VINA RESULT:      -7.2      2.221      3.007
REMARK  Name = 
REMARK                            x       y       z     vdW  Elec       q    Type
REMARK                         _______ _______ _______ _____ _____    ______ ____
ROOT
ATOM      1  C   LIG    1       63.496  45.712  28.862  0.00  0.00    -0.046 A 
ATOM      2  C   LIG    1       62.727  44.552  28.869  0.00  0.00    +0.007 A 
ATOM      3  C   LIG    1       62.974  43.539  29.788  0.00  0.00    +0.046 A 
ATOM      4  C   LIG    1       64.032  43.625  30.700  0.00  0.00    +0.121 A 
ATOM      5  C   LIG    1       64.830  44.768  30.680  0.00  0.00    +0.046 A 
ATOM      6  C   LIG    1       64.561  45.809  29.772  0.00  0.00    +0.007 A 
ENDROOT
BRANCH   1   7
ATOM      7  C   LIG    1       63.168  46.809  27.876  0.00  0.00    +0.059 C 
BRANCH   7  10
ATOM      8  O   LIG    1       62.366  48.001  30.809  0.00  0.00    -0.274 OA
ATOM      9  C   LIG    1       61.727  47.619  29.837  0.00  0.00    +0.232 C 
ATOM     10  C   LIG    1       62.119  47.813  28.377  0.00  0.00    +0.143 C 
ATOM     11  S   LIG    1       60.541  47.500  27.476  0.00  0.00    -0.089 S 
ATOM     12  C   LIG    1       59.741  46.850  28.881  0.00  0.00    +0.114 C 
ATOM     13  S   LIG    1       58.219  46.205  28.935  0.00  0.00    -0.028 S 
ATOM     14  N   LIG    1       60.538  46.963  29.971  0.00  0.00    -0.273 N 
ATOM     15  H   LIG    1       60.180  46.764  30.894  0.00  0.00    +0.156 HD
ENDBRANCH   7  10
ENDBRANCH   1   7
BRANCH   4  16
ATOM     16  O   LIG    1       64.349  42.645  31.625  0.00  0.00    -0.490 OA
BRANCH  16  17
ATOM     17  C   LIG    1       64.985  43.197  32.786  0.00  0.00    +0.248 C 
BRANCH  17  18
ATOM     18  C   LIG    1       64.075  43.582  33.943  0.00  0.00    +0.147 C 
BRANCH  18  19
ATOM     19  N   LIG    1       64.478  44.817  34.686  0.00  0.00    -0.315 N 
ATOM     20  C   LIG    1       65.834  45.258  34.323  0.00  0.00    +0.131 C 
BRANCH  19  21
ATOM     21  C   LIG    1       63.603  45.917  34.807  0.00  0.00    +0.121 A 
ATOM     22  C   LIG    1       63.863  46.965  35.695  0.00  0.00    +0.043 A 
ATOM     23  C   LIG    1       63.004  48.062  35.800  0.00  0.00    +0.005 A 
ATOM     24  C   LIG    1       61.924  48.150  34.947  0.00  0.00    +0.020 A 
ATOM     25  C   LIG    1       61.753  47.126  34.040  0.00  0.00    +0.113 A 
ATOM     26  N   LIG    1       62.548  46.028  33.967  0.00  0.00    -0.240 NA
ENDBRANCH  19  21
ENDBRANCH  18  19
ENDBRANCH  17  18
ENDBRANCH  16  17
ENDBRANCH   4  16
TORSDOF 7
ENDMDL
MODEL 6
REMARK VINA RESULT:      -7.1      2.117      4.223
REMARK  Name = 
REMARK                            x       y       z     vdW  Elec       q    Type
REMARK                         _______ _______ _______ _____ _____    ______ ____
ROOT
ATOM      1  C   LIG    1       60.269  46.282  32.364  0.00  0.00    -0.046 A 
ATOM      2  C   LIG    1       60.711  46.184  33.681  0.00  0.00    +0.007 A 
ATOM      3  C   LIG    1       62.046  46.404  34.002  0.00  0.00    +0.046 A 
ATOM      4  C   LIG    1       62.997  46.679  33.013  0.00  0.00    +0.121 A 
ATOM      5  C   LIG    1       62.572  46.746  31.688  0.00  0.00    +0.046 A 
ATOM      6  C   LIG    1       61.216  46.556  31.364  0.00  0.00    +0.007 A 
ENDROOT
BRANCH   1   7
ATOM      7  C   LIG    1       58.803  46.078  32.061  0.00  0.00    +0.059 C 
BRANCH   7  10
ATOM      8  O   LIG    1       58.838  47.133  28.970  0.00  0.00    -0.274 OA
ATOM      9  C   LIG    1       58.095  46.407  29.618  0.00  0.00    +0.232 C 
ATOM     10  C   LIG    1       58.527  45.424  30.699  0.00  0.00    +0.143 C 
ATOM     11  S   LIG    1       57.056  44.324  30.873  0.00  0.00    -0.089 S 
ATOM     12  C   LIG    1       56.030  45.366  29.927  0.00  0.00    +0.114 C 
ATOM     13  S   LIG    1       54.414  45.155  29.639  0.00  0.00    -0.028 S 
ATOM     14  N   LIG    1       56.746  46.396  29.416  0.00  0.00    -0.273 N 
ATOM     15  H   LIG    1       56.340  47.017  28.731  0.00  0.00    +0.156 HD
ENDBRANCH   7  10
ENDBRANCH   1   7
BRANCH   4  16
ATOM     16  O   LIG    1       64.344  46.885  33.260  0.00  0.00    -0.490 OA
BRANCH  16  17
ATOM     17  C   LIG    1       65.106  45.683  33.085  0.00  0.00    +0.248 C 
BRANCH  17  18
ATOM     18  C   LIG    1       65.773  45.492  31.731  0.00  0.00    +0.147 C 
BRANCH  18  19
ATOM     19  N   LIG    1       65.190  44.405  30.882  0.00  0.00    -0.315 N 
ATOM     20  C   LIG    1       64.417  43.441  31.679  0.00  0.00    +0.131 C 
BRANCH  19  21
ATOM     21  C   LIG    1       64.536  44.697  29.667  0.00  0.00    +0.121 A 
ATOM     22  C   LIG    1       63.578  43.834  29.126  0.00  0.00    +0.043 A 
ATOM     23  C   LIG    1       62.918  44.134  27.931  0.00  0.00    +0.005 A 
ATOM     24  C   LIG    1       63.158  45.348  27.321  0.00  0.00    +0.020 A 
ATOM     25  C   LIG    1       64.057  46.195  27.934  0.00  0.00    +0.113 A 
ATOM     26  N   LIG    1       64.746  45.890  29.063  0.00  0.00    -0.240 NA
ENDBRANCH  19  21
ENDBRANCH  18  19
ENDBRANCH  17  18
ENDBRANCH  16  17
ENDBRANCH   4  16
TORSDOF 7
ENDMDL
MODEL 7
REMARK VINA RESULT:      -7.1      2.686      3.684
REMARK  Name = 
REMARK                            x       y       z     vdW  Elec       q    Type
REMARK                         _______ _______ _______ _____ _____    ______ ____
ROOT
ATOM      1  C   LIG    1       58.800  45.628  29.664  0.00  0.00    -0.046 A 
ATOM      2  C   LIG    1       59.532  45.861  30.826  0.00  0.00    +0.007 A 
ATOM      3  C   LIG    1       60.741  46.546  30.781  0.00  0.00    +0.046 A 
ATOM      4  C   LIG    1       61.289  46.977  29.567  0.00  0.00    +0.121 A 
ATOM      5  C   LIG    1       60.581  46.721  28.394  0.00  0.00    +0.046 A 
ATOM      6  C   LIG    1       59.341  46.056  28.441  0.00  0.00    +0.007 A 
ENDROOT
BRANCH   1   7
ATOM      7  C   LIG    1       57.470  44.919  29.760  0.00  0.00    +0.059 C 
BRANCH   7  10
ATOM      8  O   LIG    1       54.559  44.188  31.049  0.00  0.00    -0.274 OA
ATOM      9  C   LIG    1       54.984  45.110  30.364  0.00  0.00    +0.232 C 
ATOM     10  C   LIG    1       56.373  45.730  30.465  0.00  0.00    +0.143 C 
ATOM     11  S   LIG    1       56.177  47.334  29.576  0.00  0.00    -0.089 S 
ATOM     12  C   LIG    1       54.623  46.903  28.916  0.00  0.00    +0.114 C 
ATOM     13  S   LIG    1       53.720  47.802  27.860  0.00  0.00    -0.028 S 
ATOM     14  N   LIG    1       54.217  45.709  29.408  0.00  0.00    -0.273 N 
ATOM     15  H   LIG    1       53.279  45.373  29.240  0.00  0.00    +0.156 HD
ENDBRANCH   7  10
ENDBRANCH   1   7
BRANCH   4  16
ATOM     16  O   LIG    1       62.497  47.643  29.448  0.00  0.00    -0.490 OA
BRANCH  16  17
ATOM     17  C   LIG    1       63.337  47.044  28.453  0.00  0.00    +0.248 C 
BRANCH  17  18
ATOM     18  C   LIG    1       64.414  46.093  28.955  0.00  0.00    +0.147 C 
BRANCH  18  19
ATOM     19  N   LIG    1       63.964  45.114  29.994  0.00  0.00    -0.315 N 
ATOM     20  C   LIG    1       63.879  43.746  29.461  0.00  0.00    +0.131 C 
BRANCH  19  21
ATOM     21  C   LIG    1       64.518  45.118  31.292  0.00  0.00    +0.121 A 
ATOM     22  C   LIG    1       64.339  44.042  32.167  0.00  0.00    +0.043 A 
ATOM     23  C   LIG    1       64.904  44.040  33.445  0.00  0.00    +0.005 A 
ATOM     24  C   LIG    1       65.725  45.085  33.816  0.00  0.00    +0.020 A 
ATOM     25  C   LIG    1       65.927  46.086  32.889  0.00  0.00    +0.113 A 
ATOM     26  N   LIG    1       65.339  46.126  31.667  0.00  0.00    -0.240 NA
ENDBRANCH  19  21
ENDBRANCH  18  19
ENDBRANCH  17  18
ENDBRANCH  16  17
ENDBRANCH   4  16
TORSDOF 7
ENDMDL
MODEL 8
REMARK VINA RESULT:      -6.9      2.947      6.665
REMARK  Name = 
REMARK                            x       y       z     vdW  Elec       q    Type
REMARK                         _______ _______ _______ _____ _____    ______ ____
ROOT
ATOM      1  C   LIG    1       65.465  44.853  32.152  0.00  0.00    -0.046 A 
ATOM      2  C   LIG    1       65.400  45.867  31.201  0.00  0.00    +0.007 A 
ATOM      3  C   LIG    1       64.633  45.717  30.051  0.00  0.00    +0.046 A 
ATOM      4  C   LIG    1       63.944  44.528  29.785  0.00  0.00    +0.121 A 
ATOM      5  C   LIG    1       64.029  43.493  30.715  0.00  0.00    +0.046 A 
ATOM      6  C   LIG    1       64.779  43.655  31.895  0.00  0.00    +0.007 A 
ENDROOT
BRANCH   1   7
ATOM      7  C   LIG    1       66.274  45.071  33.409  0.00  0.00    +0.059 C 
BRANCH   7  10
ATOM      8  O   LIG    1       64.289  43.565  35.521  0.00  0.00    -0.274 OA
ATOM      9  C   LIG    1       64.251  44.634  34.924  0.00  0.00    +0.232 C 
ATOM     10  C   LIG    1       65.447  45.529  34.619  0.00  0.00    +0.143 C 
ATOM     11  S   LIG    1       64.662  47.146  34.205  0.00  0.00    -0.089 S 
ATOM     12  C   LIG    1       63.061  46.465  34.104  0.00  0.00    +0.114 C 
ATOM     13  S   LIG    1       61.680  47.263  33.663  0.00  0.00    -0.028 S 
ATOM     14  N   LIG    1       63.079  45.160  34.465  0.00  0.00    -0.273 N 
ATOM     15  H   LIG    1       62.219  44.649  34.597  0.00  0.00    +0.156 HD
ENDBRANCH   7  10
ENDBRANCH   1   7
BRANCH   4  16
ATOM     16  O   LIG    1       63.182  44.303  28.651  0.00  0.00    -0.490 OA
BRANCH  16  17
ATOM     17  C   LIG    1       62.172  45.306  28.483  0.00  0.00    +0.248 C 
BRANCH  17  18
ATOM     18  C   LIG    1       61.066  45.341  29.528  0.00  0.00    +0.147 C 
BRANCH  18  19
ATOM     19  N   LIG    1       59.977  46.336  29.269  0.00  0.00    -0.315 N 
ATOM     20  C   LIG    1       60.157  47.024  27.981  0.00  0.00    +0.131 C 
BRANCH  19  21
ATOM     21  C   LIG    1       58.622  46.011  29.485  0.00  0.00    +0.121 A 
ATOM     22  C   LIG    1       57.589  46.808  28.982  0.00  0.00    +0.043 A 
ATOM     23  C   LIG    1       56.247  46.474  29.182  0.00  0.00    +0.005 A 
ATOM     24  C   LIG    1       55.940  45.288  29.816  0.00  0.00    +0.020 A 
ATOM     25  C   LIG    1       56.995  44.502  30.229  0.00  0.00    +0.113 A 
ATOM     26  N   LIG    1       58.301  44.844  30.090  0.00  0.00    -0.240 NA
ENDBRANCH  19  21
ENDBRANCH  18  19
ENDBRANCH  17  18
ENDBRANCH  16  17
ENDBRANCH   4  16
TORSDOF 7
ENDMDL
MODEL 9
REMARK VINA RESULT:      -6.9      2.142      3.992
REMARK  Name = 
REMARK                            x       y       z     vdW  Elec       q    Type
REMARK                         _______ _______ _______ _____ _____    ______ ____
ROOT
ATOM      1  C   LIG    1       60.503  46.348  32.923  0.00  0.00    -0.046 A 
ATOM      2  C   LIG    1       60.512  46.431  34.313  0.00  0.00    +0.007 A 
ATOM      3  C   LIG    1       61.686  46.709  35.003  0.00  0.00    +0.046 A 
ATOM      4  C   LIG    1       62.905  46.865  34.333  0.00  0.00    +0.121 A 
ATOM      5  C   LIG    1       62.914  46.751  32.943  0.00  0.00    +0.046 A 
ATOM      6  C   LIG    1       61.721  46.501  32.241  0.00  0.00    +0.007 A 
ENDROOT
BRANCH   1   7
ATOM      7  C   LIG    1       59.198  46.086  32.207  0.00  0.00    +0.059 C 
BRANCH   7  10
ATOM      8  O   LIG    1       60.418  47.458  29.505  0.00  0.00    -0.274 OA
ATOM      9  C   LIG    1       59.430  46.775  29.747  0.00  0.00    +0.232 C 
ATOM     10  C   LIG    1       59.361  45.629  30.750  0.00  0.00    +0.143 C 
ATOM     11  S   LIG    1       57.829  44.731  30.250  0.00  0.00    -0.089 S 
ATOM     12  C   LIG    1       57.302  46.002  29.182  0.00  0.00    +0.114 C 
ATOM     13  S   LIG    1       55.879  46.051  28.339  0.00  0.00    -0.028 S 
ATOM     14  N   LIG    1       58.244  46.973  29.103  0.00  0.00    -0.273 N 
ATOM     15  H   LIG    1       58.164  47.715  28.423  0.00  0.00    +0.156 HD
ENDBRANCH   7  10
ENDBRANCH   1   7
BRANCH   4  16
ATOM     16  O   LIG    1       64.113  47.121  34.958  0.00  0.00    -0.490 OA
BRANCH  16  17
ATOM     17  C   LIG    1       64.781  45.910  35.337  0.00  0.00    +0.248 C 
BRANCH  17  18
ATOM     18  C   LIG    1       65.893  45.428  34.416  0.00  0.00    +0.147 C 
BRANCH  18  19
ATOM     19  N   LIG    1       65.563  44.215  33.603  0.00  0.00    -0.315 N 
ATOM     20  C   LIG    1       64.644  43.312  34.311  0.00  0.00    +0.131 C 
BRANCH  19  21
ATOM     21  C   LIG    1       65.220  44.319  32.238  0.00  0.00    +0.121 A 
ATOM     22  C   LIG    1       64.240  43.502  31.666  0.00  0.00    +0.043 A 
ATOM     23  C   LIG    1       63.888  43.620  30.319  0.00  0.00    +0.005 A 
ATOM     24  C   LIG    1       64.462  44.621  29.563  0.00  0.00    +0.020 A 
ATOM     25  C   LIG    1       65.369  45.446  30.194  0.00  0.00    +0.113 A 
ATOM     26  N   LIG    1       65.759  45.306  31.486  0.00  0.00    -0.240 NA
ENDBRANCH  19  21
ENDBRANCH  18  19
ENDBRANCH  17  18
ENDBRANCH  16  17
ENDBRANCH   4  16
TORSDOF 7
ENDMDL
