MODEL 1
REMARK VINA RESULT:      -9.0      0.000      0.000
REMARK  Name = 
REMARK                            x       y       z     vdW  Elec       q    Type
REMARK                         _______ _______ _______ _____ _____    ______ ____
ROOT
ATOM      1  C   LIG    1       42.378  -2.110  17.115  0.00  0.00    -0.046 A 
ATOM      2  C   LIG    1       42.392  -1.121  18.094  0.00  0.00    +0.007 A 
ATOM      3  C   LIG    1       41.286  -0.304  18.298  0.00  0.00    +0.046 A 
ATOM      4  C   LIG    1       40.145  -0.411  17.495  0.00  0.00    +0.121 A 
ATOM      5  C   LIG    1       40.133  -1.376  16.489  0.00  0.00    +0.046 A 
ATOM      6  C   LIG    1       41.239  -2.225  16.303  0.00  0.00    +0.007 A 
ENDROOT
BRANCH   1   7
ATOM      7  C   LIG    1       43.584  -3.006  16.953  0.00  0.00    +0.059 C 
BRANCH   7  10
ATOM      8  O   LIG    1       45.394  -2.478  14.286  0.00  0.00    -0.274 OA
ATOM      9  C   LIG    1       45.648  -2.759  15.451  0.00  0.00    +0.232 C 
ATOM     10  C   LIG    1       44.895  -2.255  16.676  0.00  0.00    +0.143 C 
ATOM     11  S   LIG    1       46.065  -2.603  18.058  0.00  0.00    -0.089 S 
ATOM     12  C   LIG    1       47.105  -3.594  17.072  0.00  0.00    +0.114 C 
ATOM     13  S   LIG    1       48.438  -4.432  17.582  0.00  0.00    -0.028 S 
ATOM     14  N   LIG    1       46.688  -3.578  15.783  0.00  0.00    -0.273 N 
ATOM     15  H   LIG    1       47.254  -3.985  15.052  0.00  0.00    +0.156 HD
ENDBRANCH   7  10
ENDBRANCH   1   7
BRANCH   4  16
ATOM     16  O   LIG    1       39.019   0.384  17.627  0.00  0.00    -0.490 OA
BRANCH  16  17
ATOM     17  C   LIG    1       39.182   1.649  16.973  0.00  0.00    +0.248 C 
BRANCH  17  18
ATOM     18  C   LIG    1       37.913   2.333  16.485  0.00  0.00    +0.147 C 
BRANCH  18  19
ATOM     19  N   LIG    1       37.588   2.114  15.040  0.00  0.00    -0.315 N 
ATOM     20  C   LIG    1       37.987   3.260  14.208  0.00  0.00    +0.131 C 
BRANCH  19  21
ATOM     21  C   LIG    1       37.888   0.894  14.398  0.00  0.00    +0.121 A 
ATOM     22  C   LIG    1       37.065  -0.227  14.538  0.00  0.00    +0.043 A 
ATOM     23  C   LIG    1       37.354  -1.430  13.887  0.00  0.00    +0.005 A 
ATOM     24  C   LIG    1       38.428  -1.481  13.023  0.00  0.00    +0.020 A 
ATOM     25  C   LIG    1       39.166  -0.326  12.865  0.00  0.00    +0.113 A 
ATOM     26  N   LIG    1       38.927   0.830  13.534  0.00  0.00    -0.240 NA
ENDBRANCH  19  21
ENDBRANCH  18  19
ENDBRANCH  17  18
ENDBRANCH  16  17
ENDBRANCH   4  16
TORSDOF 7
ENDMDL
MODEL 2
REMARK VINA RESULT:      -8.9      1.900      3.254
REMARK  Name = 
REMARK                            x       y       z     vdW  Elec       q    Type
REMARK                         _______ _______ _______ _____ _____    ______ ____
ROOT
ATOM      1  C   LIG    1       41.824  -2.502  16.693  0.00  0.00    -0.046 A 
ATOM      2  C   LIG    1       41.386  -1.396  17.417  0.00  0.00    +0.007 A 
ATOM      3  C   LIG    1       40.089  -0.916  17.269  0.00  0.00    +0.046 A 
ATOM      4  C   LIG    1       39.200  -1.492  16.354  0.00  0.00    +0.121 A 
ATOM      5  C   LIG    1       39.639  -2.579  15.601  0.00  0.00    +0.046 A 
ATOM      6  C   LIG    1       40.940  -3.086  15.772  0.00  0.00    +0.007 A 
ENDROOT
BRANCH   1   7
ATOM      7  C   LIG    1       43.226  -3.020  16.914  0.00  0.00    +0.059 C 
BRANCH   7  10
ATOM      8  O   LIG    1       44.141  -6.026  16.023  0.00  0.00    -0.274 OA
ATOM      9  C   LIG    1       44.640  -4.912  15.915  0.00  0.00    +0.232 C 
ATOM     10  C   LIG    1       43.882  -3.615  15.659  0.00  0.00    +0.143 C 
ATOM     11  S   LIG    1       45.208  -2.463  15.096  0.00  0.00    -0.089 S 
ATOM     12  C   LIG    1       46.494  -3.538  15.570  0.00  0.00    +0.114 C 
ATOM     13  S   LIG    1       48.117  -3.224  15.492  0.00  0.00    -0.028 S 
ATOM     14  N   LIG    1       45.987  -4.717  16.005  0.00  0.00    -0.273 N 
ATOM     15  H   LIG    1       46.594  -5.504  16.187  0.00  0.00    +0.156 HD
ENDBRANCH   7  10
ENDBRANCH   1   7
BRANCH   4  16
ATOM     16  O   LIG    1       37.905  -1.051  16.140  0.00  0.00    -0.490 OA
BRANCH  16  17
ATOM     17  C   LIG    1       37.652  -0.802  14.751  0.00  0.00    +0.248 C 
BRANCH  17  18
ATOM     18  C   LIG    1       37.797   0.639  14.281  0.00  0.00    +0.147 C 
BRANCH  18  19
ATOM     19  N   LIG    1       38.242   1.609  15.332  0.00  0.00    -0.315 N 
ATOM     20  C   LIG    1       39.508   2.265  14.972  0.00  0.00    +0.131 C 
BRANCH  19  21
ATOM     21  C   LIG    1       37.340   2.528  15.908  0.00  0.00    +0.121 A 
ATOM     22  C   LIG    1       36.969   2.444  17.254  0.00  0.00    +0.043 A 
ATOM     23  C   LIG    1       36.090   3.366  17.827  0.00  0.00    +0.005 A 
ATOM     24  C   LIG    1       35.648   4.430  17.068  0.00  0.00    +0.020 A 
ATOM     25  C   LIG    1       36.101   4.508  15.768  0.00  0.00    +0.113 A 
ATOM     26  N   LIG    1       36.909   3.587  15.184  0.00  0.00    -0.240 NA
ENDBRANCH  19  21
ENDBRANCH  18  19
ENDBRANCH  17  18
ENDBRANCH  16  17
ENDBRANCH   4  16
TORSDOF 7
ENDMDL
MODEL 3
REMARK VINA RESULT:      -8.8      1.626      1.876
REMARK  Name = 
REMARK                            x       y       z     vdW  Elec       q    Type
REMARK                         _______ _______ _______ _____ _____    ______ ____
ROOT
ATOM      1  C   LIG    1       41.581  -1.335  16.494  0.00  0.00    -0.046 A 
ATOM      2  C   LIG    1       41.665  -0.166  15.744  0.00  0.00    +0.007 A 
ATOM      3  C   LIG    1       40.889   0.943  16.062  0.00  0.00    +0.046 A 
ATOM      4  C   LIG    1       39.962   0.905  17.110  0.00  0.00    +0.121 A 
ATOM      5  C   LIG    1       39.845  -0.272  17.847  0.00  0.00    +0.046 A 
ATOM      6  C   LIG    1       40.653  -1.384  17.546  0.00  0.00    +0.007 A 
ENDROOT
BRANCH   1   7
ATOM      7  C   LIG    1       42.473  -2.504  16.142  0.00  0.00    +0.059 C 
BRANCH   7  10
ATOM      8  O   LIG    1       44.255  -0.798  18.283  0.00  0.00    -0.274 OA
ATOM      9  C   LIG    1       44.474  -1.767  17.567  0.00  0.00    +0.232 C 
ATOM     10  C   LIG    1       43.482  -2.877  17.238  0.00  0.00    +0.143 C 
ATOM     11  S   LIG    1       44.564  -4.225  16.594  0.00  0.00    -0.089 S 
ATOM     12  C   LIG    1       45.961  -3.192  16.470  0.00  0.00    +0.114 C 
ATOM     13  S   LIG    1       47.440  -3.608  15.856  0.00  0.00    -0.028 S 
ATOM     14  N   LIG    1       45.688  -1.966  16.978  0.00  0.00    -0.273 N 
ATOM     15  H   LIG    1       46.424  -1.288  17.113  0.00  0.00    +0.156 HD
ENDBRANCH   7  10
ENDBRANCH   1   7
BRANCH   4  16
ATOM     16  O   LIG    1       39.142   1.962  17.467  0.00  0.00    -0.490 OA
BRANCH  16  17
ATOM     17  C   LIG    1       38.543   2.580  16.320  0.00  0.00    +0.248 C 
BRANCH  17  18
ATOM     18  C   LIG    1       37.318   1.889  15.737  0.00  0.00    +0.147 C 
BRANCH  18  19
ATOM     19  N   LIG    1       37.466   1.416  14.325  0.00  0.00    -0.315 N 
ATOM     20  C   LIG    1       37.848   2.509  13.417  0.00  0.00    +0.131 C 
BRANCH  19  21
ATOM     21  C   LIG    1       38.172   0.233  14.019  0.00  0.00    +0.121 A 
ATOM     22  C   LIG    1       37.894  -0.973  14.669  0.00  0.00    +0.043 A 
ATOM     23  C   LIG    1       38.581  -2.147  14.352  0.00  0.00    +0.005 A 
ATOM     24  C   LIG    1       39.493  -2.130  13.317  0.00  0.00    +0.020 A 
ATOM     25  C   LIG    1       39.678  -0.932  12.660  0.00  0.00    +0.113 A 
ATOM     26  N   LIG    1       39.057   0.227  12.996  0.00  0.00    -0.240 NA
ENDBRANCH  19  21
ENDBRANCH  18  19
ENDBRANCH  17  18
ENDBRANCH  16  17
ENDBRANCH   4  16
TORSDOF 7
ENDMDL
MODEL 4
REMARK VINA RESULT:      -8.7      1.359      3.089
REMARK  Name = 
REMARK                            x       y       z     vdW  Elec       q    Type
REMARK                         _______ _______ _______ _____ _____    ______ ____
ROOT
ATOM      1  C   LIG    1       42.100  -2.705  16.666  0.00  0.00    -0.046 A 
ATOM      2  C   LIG    1       41.131  -3.219  15.808  0.00  0.00    +0.007 A 
ATOM      3  C   LIG    1       39.895  -2.598  15.677  0.00  0.00    +0.046 A 
ATOM      4  C   LIG    1       39.561  -1.471  16.436  0.00  0.00    +0.121 A 
ATOM      5  C   LIG    1       40.511  -0.967  17.323  0.00  0.00    +0.046 A 
ATOM      6  C   LIG    1       41.775  -1.575  17.434  0.00  0.00    +0.007 A 
ENDROOT
BRANCH   1   7
ATOM      7  C   LIG    1       43.448  -3.384  16.749  0.00  0.00    +0.059 C 
BRANCH   7  10
ATOM      8  O   LIG    1       45.198  -2.276  14.224  0.00  0.00    -0.274 OA
ATOM      9  C   LIG    1       45.475  -2.665  15.352  0.00  0.00    +0.232 C 
ATOM     10  C   LIG    1       44.642  -2.429  16.607  0.00  0.00    +0.143 C 
ATOM     11  S   LIG    1       45.834  -2.785  17.969  0.00  0.00    -0.089 S 
ATOM     12  C   LIG    1       47.014  -3.490  16.899  0.00  0.00    +0.114 C 
ATOM     13  S   LIG    1       48.445  -4.194  17.341  0.00  0.00    -0.028 S 
ATOM     14  N   LIG    1       46.615  -3.368  15.610  0.00  0.00    -0.273 N 
ATOM     15  H   LIG    1       47.241  -3.597  14.852  0.00  0.00    +0.156 HD
ENDBRANCH   7  10
ENDBRANCH   1   7
BRANCH   4  16
ATOM     16  O   LIG    1       38.342  -0.818  16.372  0.00  0.00    -0.490 OA
BRANCH  16  17
ATOM     17  C   LIG    1       37.917  -0.620  15.017  0.00  0.00    +0.248 C 
BRANCH  17  18
ATOM     18  C   LIG    1       38.063   0.788  14.457  0.00  0.00    +0.147 C 
BRANCH  18  19
ATOM     19  N   LIG    1       38.444   1.834  15.458  0.00  0.00    -0.315 N 
ATOM     20  C   LIG    1       39.681   2.533  15.078  0.00  0.00    +0.131 C 
BRANCH  19  21
ATOM     21  C   LIG    1       37.490   2.737  15.973  0.00  0.00    +0.121 A 
ATOM     22  C   LIG    1       36.943   2.575  17.249  0.00  0.00    +0.043 A 
ATOM     23  C   LIG    1       36.012   3.480  17.764  0.00  0.00    +0.005 A 
ATOM     24  C   LIG    1       35.692   4.602  17.028  0.00  0.00    +0.020 A 
ATOM     25  C   LIG    1       36.314   4.753  15.807  0.00  0.00    +0.113 A 
ATOM     26  N   LIG    1       37.176   3.851  15.272  0.00  0.00    -0.240 NA
ENDBRANCH  19  21
ENDBRANCH  18  19
ENDBRANCH  17  18
ENDBRANCH  16  17
ENDBRANCH   4  16
TORSDOF 7
ENDMDL
MODEL 5
REMARK VINA RESULT:      -8.5      3.917      8.799
REMARK  Name = 
REMARK                            x       y       z     vdW  Elec       q    Type
REMARK                         _______ _______ _______ _____ _____    ______ ____
ROOT
ATOM      1  C   LIG    1       38.109  -0.288  16.286  0.00  0.00    -0.046 A 
ATOM      2  C   LIG    1       39.080  -0.497  17.262  0.00  0.00    +0.007 A 
ATOM      3  C   LIG    1       40.074  -1.453  17.086  0.00  0.00    +0.046 A 
ATOM      4  C   LIG    1       40.103  -2.272  15.951  0.00  0.00    +0.121 A 
ATOM      5  C   LIG    1       39.116  -2.095  14.983  0.00  0.00    +0.046 A 
ATOM      6  C   LIG    1       38.129  -1.106  15.145  0.00  0.00    +0.007 A 
ENDROOT
BRANCH   1   7
ATOM      7  C   LIG    1       37.072   0.790  16.495  0.00  0.00    +0.059 C 
BRANCH   7  10
ATOM      8  O   LIG    1       36.285   3.284  18.452  0.00  0.00    -0.274 OA
ATOM      9  C   LIG    1       36.650   3.193  17.286  0.00  0.00    +0.232 C 
ATOM     10  C   LIG    1       37.658   2.188  16.742  0.00  0.00    +0.143 C 
ATOM     11  S   LIG    1       38.132   2.913  15.114  0.00  0.00    -0.089 S 
ATOM     12  C   LIG    1       36.843   4.086  15.139  0.00  0.00    +0.114 C 
ATOM     13  S   LIG    1       36.463   5.156  13.935  0.00  0.00    -0.028 S 
ATOM     14  N   LIG    1       36.178   4.031  16.318  0.00  0.00    -0.273 N 
ATOM     15  H   LIG    1       35.493   4.732  16.558  0.00  0.00    +0.156 HD
ENDBRANCH   7  10
ENDBRANCH   1   7
BRANCH   4  16
ATOM     16  O   LIG    1       41.048  -3.258  15.723  0.00  0.00    -0.490 OA
BRANCH  16  17
ATOM     17  C   LIG    1       42.273  -2.989  16.417  0.00  0.00    +0.248 C 
BRANCH  17  18
ATOM     18  C   LIG    1       43.373  -2.305  15.617  0.00  0.00    +0.147 C 
BRANCH  18  19
ATOM     19  N   LIG    1       44.516  -1.779  16.429  0.00  0.00    -0.315 N 
ATOM     20  C   LIG    1       44.073  -0.803  17.435  0.00  0.00    +0.131 C 
BRANCH  19  21
ATOM     21  C   LIG    1       45.496  -2.645  16.960  0.00  0.00    +0.121 A 
ATOM     22  C   LIG    1       45.645  -2.822  18.339  0.00  0.00    +0.043 A 
ATOM     23  C   LIG    1       46.604  -3.693  18.862  0.00  0.00    +0.005 A 
ATOM     24  C   LIG    1       47.358  -4.457  17.996  0.00  0.00    +0.020 A 
ATOM     25  C   LIG    1       47.121  -4.298  16.646  0.00  0.00    +0.113 A 
ATOM     26  N   LIG    1       46.233  -3.414  16.126  0.00  0.00    -0.240 NA
ENDBRANCH  19  21
ENDBRANCH  18  19
ENDBRANCH  17  18
ENDBRANCH  16  17
ENDBRANCH   4  16
TORSDOF 7
ENDMDL
MODEL 6
REMARK VINA RESULT:      -8.4      1.624      3.054
REMARK  Name = 
REMARK                            x       y       z     vdW  Elec       q    Type
REMARK                         _______ _______ _______ _____ _____    ______ ____
ROOT
ATOM      1  C   LIG    1       42.896  -1.920  17.784  0.00  0.00    -0.046 A 
ATOM      2  C   LIG    1       42.245  -1.026  18.630  0.00  0.00    +0.007 A 
ATOM      3  C   LIG    1       40.918  -0.675  18.410  0.00  0.00    +0.046 A 
ATOM      4  C   LIG    1       40.209  -1.163  17.306  0.00  0.00    +0.121 A 
ATOM      5  C   LIG    1       40.862  -2.032  16.434  0.00  0.00    +0.046 A 
ATOM      6  C   LIG    1       42.195  -2.414  16.673  0.00  0.00    +0.007 A 
ENDROOT
BRANCH   1   7
ATOM      7  C   LIG    1       44.325  -2.310  18.082  0.00  0.00    +0.059 C 
BRANCH   7  10
ATOM      8  O   LIG    1       44.103  -5.155  16.493  0.00  0.00    -0.274 OA
ATOM      9  C   LIG    1       45.036  -4.461  16.879  0.00  0.00    +0.232 C 
ATOM     10  C   LIG    1       45.068  -2.937  16.893  0.00  0.00    +0.143 C 
ATOM     11  S   LIG    1       46.865  -2.560  17.068  0.00  0.00    -0.089 S 
ATOM     12  C   LIG    1       47.284  -4.208  17.450  0.00  0.00    +0.114 C 
ATOM     13  S   LIG    1       48.784  -4.770  17.863  0.00  0.00    -0.028 S 
ATOM     14  N   LIG    1       46.196  -5.008  17.341  0.00  0.00    -0.273 N 
ATOM     15  H   LIG    1       46.288  -6.013  17.391  0.00  0.00    +0.156 HD
ENDBRANCH   7  10
ENDBRANCH   1   7
BRANCH   4  16
ATOM     16  O   LIG    1       38.896  -0.837  17.014  0.00  0.00    -0.490 OA
BRANCH  16  17
ATOM     17  C   LIG    1       38.687   0.582  17.020  0.00  0.00    +0.248 C 
BRANCH  17  18
ATOM     18  C   LIG    1       39.337   1.370  15.891  0.00  0.00    +0.147 C 
BRANCH  18  19
ATOM     19  N   LIG    1       38.389   1.920  14.872  0.00  0.00    -0.315 N 
ATOM     20  C   LIG    1       37.282   0.992  14.593  0.00  0.00    +0.131 C 
BRANCH  19  21
ATOM     21  C   LIG    1       37.927   3.251  14.945  0.00  0.00    +0.121 A 
ATOM     22  C   LIG    1       37.089   3.790  13.964  0.00  0.00    +0.043 A 
ATOM     23  C   LIG    1       36.618   5.103  14.048  0.00  0.00    +0.005 A 
ATOM     24  C   LIG    1       36.920   5.852  15.167  0.00  0.00    +0.020 A 
ATOM     25  C   LIG    1       37.689   5.249  16.140  0.00  0.00    +0.113 A 
ATOM     26  N   LIG    1       38.199   3.995  16.043  0.00  0.00    -0.240 NA
ENDBRANCH  19  21
ENDBRANCH  18  19
ENDBRANCH  17  18
ENDBRANCH  16  17
ENDBRANCH   4  16
TORSDOF 7
ENDMDL
MODEL 7
REMARK VINA RESULT:      -8.1      3.651      7.408
REMARK  Name = 
REMARK                            x       y       z     vdW  Elec       q    Type
REMARK                         _______ _______ _______ _____ _____    ______ ____
ROOT
ATOM      1  C   LIG    1       39.703  -1.566  16.210  0.00  0.00    -0.046 A 
ATOM      2  C   LIG    1       41.004  -2.006  15.983  0.00  0.00    +0.007 A 
ATOM      3  C   LIG    1       42.000  -1.805  16.931  0.00  0.00    +0.046 A 
ATOM      4  C   LIG    1       41.744  -1.110  18.119  0.00  0.00    +0.121 A 
ATOM      5  C   LIG    1       40.453  -0.635  18.342  0.00  0.00    +0.046 A 
ATOM      6  C   LIG    1       39.436  -0.866  17.397  0.00  0.00    +0.007 A 
ENDROOT
BRANCH   1   7
ATOM      7  C   LIG    1       38.638  -1.842  15.173  0.00  0.00    +0.059 C 
BRANCH   7  10
ATOM      8  O   LIG    1       40.577  -0.378  12.989  0.00  0.00    -0.274 OA
ATOM      9  C   LIG    1       39.733   0.016  13.785  0.00  0.00    +0.232 C 
ATOM     10  C   LIG    1       38.445  -0.710  14.153  0.00  0.00    +0.143 C 
ATOM     11  S   LIG    1       37.432   0.614  14.942  0.00  0.00    -0.089 S 
ATOM     12  C   LIG    1       38.769   1.725  15.048  0.00  0.00    +0.114 C 
ATOM     13  S   LIG    1       38.751   3.221  15.755  0.00  0.00    -0.028 S 
ATOM     14  N   LIG    1       39.862   1.206  14.438  0.00  0.00    -0.273 N 
ATOM     15  H   LIG    1       40.685   1.772  14.285  0.00  0.00    +0.156 HD
ENDBRANCH   7  10
ENDBRANCH   1   7
BRANCH   4  16
ATOM     16  O   LIG    1       42.693  -0.854  19.095  0.00  0.00    -0.490 OA
BRANCH  16  17
ATOM     17  C   LIG    1       44.026  -0.932  18.572  0.00  0.00    +0.248 C 
BRANCH  17  18
ATOM     18  C   LIG    1       45.003  -1.820  19.330  0.00  0.00    +0.147 C 
BRANCH  18  19
ATOM     19  N   LIG    1       45.909  -2.646  18.472  0.00  0.00    -0.315 N 
ATOM     20  C   LIG    1       46.586  -3.701  19.242  0.00  0.00    +0.131 C 
BRANCH  19  21
ATOM     21  C   LIG    1       45.487  -3.129  17.215  0.00  0.00    +0.121 A 
ATOM     22  C   LIG    1       44.677  -4.263  17.101  0.00  0.00    +0.043 A 
ATOM     23  C   LIG    1       44.244  -4.729  15.857  0.00  0.00    +0.005 A 
ATOM     24  C   LIG    1       44.555  -4.003  14.726  0.00  0.00    +0.020 A 
ATOM     25  C   LIG    1       45.295  -2.852  14.900  0.00  0.00    +0.113 A 
ATOM     26  N   LIG    1       45.768  -2.421  16.097  0.00  0.00    -0.240 NA
ENDBRANCH  19  21
ENDBRANCH  18  19
ENDBRANCH  17  18
ENDBRANCH  16  17
ENDBRANCH   4  16
TORSDOF 7
ENDMDL
MODEL 8
REMARK VINA RESULT:      -8.1      4.171      8.652
REMARK  Name = 
REMARK                            x       y       z     vdW  Elec       q    Type
REMARK                         _______ _______ _______ _____ _____    ______ ____
ROOT
ATOM      1  C   LIG    1       38.583  -0.448  14.804  0.00  0.00    -0.046 A 
ATOM      2  C   LIG    1       39.496  -0.911  13.860  0.00  0.00    +0.007 A 
ATOM      3  C   LIG    1       40.449  -1.863  14.199  0.00  0.00    +0.046 A 
ATOM      4  C   LIG    1       40.560  -2.350  15.507  0.00  0.00    +0.121 A 
ATOM      5  C   LIG    1       39.673  -1.868  16.468  0.00  0.00    +0.046 A 
ATOM      6  C   LIG    1       38.686  -0.928  16.119  0.00  0.00    +0.007 A 
ENDROOT
BRANCH   1   7
ATOM      7  C   LIG    1       37.533   0.556  14.386  0.00  0.00    +0.059 C 
BRANCH   7  10
ATOM      8  O   LIG    1       40.306   2.182  14.965  0.00  0.00    -0.274 OA
ATOM      9  C   LIG    1       39.127   2.502  14.886  0.00  0.00    +0.232 C 
ATOM     10  C   LIG    1       38.102   1.907  13.928  0.00  0.00    +0.143 C 
ATOM     11  S   LIG    1       36.737   3.148  13.955  0.00  0.00    -0.089 S 
ATOM     12  C   LIG    1       37.391   3.997  15.329  0.00  0.00    +0.114 C 
ATOM     13  S   LIG    1       36.696   5.277  16.115  0.00  0.00    -0.028 S 
ATOM     14  N   LIG    1       38.593   3.478  15.676  0.00  0.00    -0.273 N 
ATOM     15  H   LIG    1       39.175   3.938  16.361  0.00  0.00    +0.156 HD
ENDBRANCH   7  10
ENDBRANCH   1   7
BRANCH   4  16
ATOM     16  O   LIG    1       41.500  -3.280  15.919  0.00  0.00    -0.490 OA
BRANCH  16  17
ATOM     17  C   LIG    1       42.497  -2.689  16.762  0.00  0.00    +0.248 C 
BRANCH  17  18
ATOM     18  C   LIG    1       43.818  -2.323  16.101  0.00  0.00    +0.147 C 
BRANCH  18  19
ATOM     19  N   LIG    1       44.888  -1.852  17.036  0.00  0.00    -0.315 N 
ATOM     20  C   LIG    1       44.327  -1.245  18.253  0.00  0.00    +0.131 C 
BRANCH  19  21
ATOM     21  C   LIG    1       46.002  -2.662  17.342  0.00  0.00    +0.121 A 
ATOM     22  C   LIG    1       46.093  -3.353  18.554  0.00  0.00    +0.043 A 
ATOM     23  C   LIG    1       47.188  -4.170  18.848  0.00  0.00    +0.005 A 
ATOM     24  C   LIG    1       48.156  -4.363  17.883  0.00  0.00    +0.020 A 
ATOM     25  C   LIG    1       47.981  -3.717  16.677  0.00  0.00    +0.113 A 
ATOM     26  N   LIG    1       46.951  -2.877  16.403  0.00  0.00    -0.240 NA
ENDBRANCH  19  21
ENDBRANCH  18  19
ENDBRANCH  17  18
ENDBRANCH  16  17
ENDBRANCH   4  16
TORSDOF 7
ENDMDL
MODEL 9
REMARK VINA RESULT:      -8.1      2.369      3.512
REMARK  Name = 
REMARK                            x       y       z     vdW  Elec       q    Type
REMARK                         _______ _______ _______ _____ _____    ______ ____
ROOT
ATOM      1  C   LIG    1       42.009  -1.881  16.229  0.00  0.00    -0.046 A 
ATOM      2  C   LIG    1       40.810  -2.588  16.196  0.00  0.00    +0.007 A 
ATOM      3  C   LIG    1       39.593  -1.935  16.357  0.00  0.00    +0.046 A 
ATOM      4  C   LIG    1       39.533  -0.559  16.608  0.00  0.00    +0.121 A 
ATOM      5  C   LIG    1       40.729   0.153  16.677  0.00  0.00    +0.046 A 
ATOM      6  C   LIG    1       41.959  -0.500  16.483  0.00  0.00    +0.007 A 
ENDROOT
BRANCH   1   7
ATOM      7  C   LIG    1       43.308  -2.620  16.007  0.00  0.00    +0.059 C 
BRANCH   7  10
ATOM      8  O   LIG    1       44.142  -1.771  19.049  0.00  0.00    -0.274 OA
ATOM      9  C   LIG    1       44.611  -2.536  18.215  0.00  0.00    +0.232 C 
ATOM     10  C   LIG    1       43.812  -3.389  17.237  0.00  0.00    +0.143 C 
ATOM     11  S   LIG    1       45.046  -4.639  16.672  0.00  0.00    -0.089 S 
ATOM     12  C   LIG    1       46.393  -3.788  17.376  0.00  0.00    +0.114 C 
ATOM     13  S   LIG    1       47.990  -4.203  17.255  0.00  0.00    -0.028 S 
ATOM     14  N   LIG    1       45.957  -2.717  18.082  0.00  0.00    -0.273 N 
ATOM     15  H   LIG    1       46.590  -2.193  18.669  0.00  0.00    +0.156 HD
ENDBRANCH   7  10
ENDBRANCH   1   7
BRANCH   4  16
ATOM     16  O   LIG    1       38.359   0.149  16.801  0.00  0.00    -0.490 OA
BRANCH  16  17
ATOM     17  C   LIG    1       38.591   1.564  16.828  0.00  0.00    +0.248 C 
BRANCH  17  18
ATOM     18  C   LIG    1       37.404   2.441  17.200  0.00  0.00    +0.147 C 
BRANCH  18  19
ATOM     19  N   LIG    1       37.534   3.883  16.817  0.00  0.00    -0.315 N 
ATOM     20  C   LIG    1       38.923   4.355  16.921  0.00  0.00    +0.131 C 
BRANCH  19  21
ATOM     21  C   LIG    1       36.911   4.392  15.658  0.00  0.00    +0.121 A 
ATOM     22  C   LIG    1       37.137   5.700  15.221  0.00  0.00    +0.043 A 
ATOM     23  C   LIG    1       36.533   6.196  14.062  0.00  0.00    +0.005 A 
ATOM     24  C   LIG    1       35.766   5.347  13.291  0.00  0.00    +0.020 A 
ATOM     25  C   LIG    1       35.635   4.045  13.728  0.00  0.00    +0.113 A 
ATOM     26  N   LIG    1       36.170   3.569  14.881  0.00  0.00    -0.240 NA
ENDBRANCH  19  21
ENDBRANCH  18  19
ENDBRANCH  17  18
ENDBRANCH  16  17
ENDBRANCH   4  16
TORSDOF 7
ENDMDL
