MODEL 1
REMARK VINA RESULT:      -7.3      0.000      0.000
REMARK  Name = 
REMARK                            x       y       z     vdW  Elec       q    Type
REMARK                         _______ _______ _______ _____ _____    ______ ____
ROOT
ATOM      1  C   LIG    1       21.789  28.060   7.746  0.00  0.00    -0.046 A 
ATOM      2  C   LIG    1       21.412  29.296   8.263  0.00  0.00    +0.007 A 
ATOM      3  C   LIG    1       20.957  29.412   9.571  0.00  0.00    +0.046 A 
ATOM      4  C   LIG    1       20.813  28.289  10.394  0.00  0.00    +0.121 A 
ATOM      5  C   LIG    1       21.156  27.042   9.876  0.00  0.00    +0.046 A 
ATOM      6  C   LIG    1       21.647  26.927   8.563  0.00  0.00    +0.007 A 
ENDROOT
BRANCH   1   7
ATOM      7  C   LIG    1       22.320  27.981   6.333  0.00  0.00    +0.059 C 
BRANCH   7  10
ATOM      8  O   LIG    1       23.138  30.917   5.158  0.00  0.00    -0.274 OA
ATOM      9  C   LIG    1       23.593  29.787   5.031  0.00  0.00    +0.232 C 
ATOM     10  C   LIG    1       23.649  28.720   6.118  0.00  0.00    +0.143 C 
ATOM     11  S   LIG    1       24.880  27.516   5.456  0.00  0.00    -0.089 S 
ATOM     12  C   LIG    1       24.892  28.236   3.869  0.00  0.00    +0.114 C 
ATOM     13  S   LIG    1       25.718  27.684   2.546  0.00  0.00    -0.028 S 
ATOM     14  N   LIG    1       24.134  29.358   3.855  0.00  0.00    -0.273 N 
ATOM     15  H   LIG    1       24.142  29.976   3.056  0.00  0.00    +0.156 HD
ENDBRANCH   7  10
ENDBRANCH   1   7
BRANCH   4  16
ATOM     16  O   LIG    1       20.345  28.330  11.697  0.00  0.00    -0.490 OA
BRANCH  16  17
ATOM     17  C   LIG    1       20.749  29.530  12.369  0.00  0.00    +0.248 C 
BRANCH  17  18
ATOM     18  C   LIG    1       19.637  30.478  12.797  0.00  0.00    +0.147 C 
BRANCH  18  19
ATOM     19  N   LIG    1       18.247  29.956  12.602  0.00  0.00    -0.315 N 
ATOM     20  C   LIG    1       17.503  29.889  13.869  0.00  0.00    +0.131 C 
BRANCH  19  21
ATOM     21  C   LIG    1       17.427  30.432  11.557  0.00  0.00    +0.121 A 
ATOM     22  C   LIG    1       16.663  31.594  11.698  0.00  0.00    +0.043 A 
ATOM     23  C   LIG    1       15.866  32.073  10.655  0.00  0.00    +0.005 A 
ATOM     24  C   LIG    1       15.902  31.430   9.435  0.00  0.00    +0.020 A 
ATOM     25  C   LIG    1       16.728  30.331   9.327  0.00  0.00    +0.113 A 
ATOM     26  N   LIG    1       17.463  29.824  10.349  0.00  0.00    -0.240 NA
ENDBRANCH  19  21
ENDBRANCH  18  19
ENDBRANCH  17  18
ENDBRANCH  16  17
ENDBRANCH   4  16
TORSDOF 7
ENDMDL
MODEL 2
REMARK VINA RESULT:      -7.1      2.057      2.493
REMARK  Name = 
REMARK                            x       y       z     vdW  Elec       q    Type
REMARK                         _______ _______ _______ _____ _____    ______ ____
ROOT
ATOM      1  C   LIG    1       22.357  29.542   7.079  0.00  0.00    -0.046 A 
ATOM      2  C   LIG    1       21.536  30.127   8.039  0.00  0.00    +0.007 A 
ATOM      3  C   LIG    1       20.980  29.366   9.060  0.00  0.00    +0.046 A 
ATOM      4  C   LIG    1       21.182  27.982   9.130  0.00  0.00    +0.121 A 
ATOM      5  C   LIG    1       21.975  27.381   8.155  0.00  0.00    +0.046 A 
ATOM      6  C   LIG    1       22.565  28.154   7.139  0.00  0.00    +0.007 A 
ENDROOT
BRANCH   1   7
ATOM      7  C   LIG    1       22.977  30.410   6.009  0.00  0.00    +0.059 C 
BRANCH   7  10
ATOM      8  O   LIG    1       25.897  29.610   7.234  0.00  0.00    -0.274 OA
ATOM      9  C   LIG    1       25.523  30.181   6.217  0.00  0.00    +0.232 C 
ATOM     10  C   LIG    1       24.274  29.844   5.412  0.00  0.00    +0.143 C 
ATOM     11  S   LIG    1       24.581  30.680   3.797  0.00  0.00    -0.089 S 
ATOM     12  C   LIG    1       25.941  31.586   4.401  0.00  0.00    +0.114 C 
ATOM     13  S   LIG    1       26.810  32.725   3.572  0.00  0.00    -0.028 S 
ATOM     14  N   LIG    1       26.228  31.214   5.672  0.00  0.00    -0.273 N 
ATOM     15  H   LIG    1       27.070  31.537   6.126  0.00  0.00    +0.156 HD
ENDBRANCH   7  10
ENDBRANCH   1   7
BRANCH   4  16
ATOM     16  O   LIG    1       20.641  27.162  10.106  0.00  0.00    -0.490 OA
BRANCH  16  17
ATOM     17  C   LIG    1       20.283  27.900  11.281  0.00  0.00    +0.248 C 
BRANCH  17  18
ATOM     18  C   LIG    1       18.796  28.011  11.589  0.00  0.00    +0.147 C 
BRANCH  18  19
ATOM     19  N   LIG    1       18.282  29.408  11.747  0.00  0.00    -0.315 N 
ATOM     20  C   LIG    1       19.323  30.325  12.235  0.00  0.00    +0.131 C 
BRANCH  19  21
ATOM     21  C   LIG    1       17.499  30.018  10.743  0.00  0.00    +0.121 A 
ATOM     22  C   LIG    1       17.361  29.445   9.475  0.00  0.00    +0.043 A 
ATOM     23  C   LIG    1       16.571  30.041   8.489  0.00  0.00    +0.005 A 
ATOM     24  C   LIG    1       15.846  31.172   8.804  0.00  0.00    +0.020 A 
ATOM     25  C   LIG    1       15.961  31.655  10.091  0.00  0.00    +0.113 A 
ATOM     26  N   LIG    1       16.768  31.117  11.040  0.00  0.00    -0.240 NA
ENDBRANCH  19  21
ENDBRANCH  18  19
ENDBRANCH  17  18
ENDBRANCH  16  17
ENDBRANCH   4  16
TORSDOF 7
ENDMDL
MODEL 3
REMARK VINA RESULT:      -6.9      1.887      3.530
REMARK  Name = 
REMARK                            x       y       z     vdW  Elec       q    Type
REMARK                         _______ _______ _______ _____ _____    ______ ____
ROOT
ATOM      1  C   LIG    1       22.305  29.388   7.178  0.00  0.00    -0.046 A 
ATOM      2  C   LIG    1       22.247  28.009   7.359  0.00  0.00    +0.007 A 
ATOM      3  C   LIG    1       21.431  27.452   8.337  0.00  0.00    +0.046 A 
ATOM      4  C   LIG    1       20.683  28.256   9.204  0.00  0.00    +0.121 A 
ATOM      5  C   LIG    1       20.758  29.640   9.054  0.00  0.00    +0.046 A 
ATOM      6  C   LIG    1       21.559  30.203   8.044  0.00  0.00    +0.007 A 
ENDROOT
BRANCH   1   7
ATOM      7  C   LIG    1       23.171  29.953   6.075  0.00  0.00    +0.059 C 
BRANCH   7  10
ATOM      8  O   LIG    1       26.189  30.850   6.943  0.00  0.00    -0.274 OA
ATOM      9  C   LIG    1       25.709  30.299   5.960  0.00  0.00    +0.232 C 
ATOM     10  C   LIG    1       24.558  29.301   5.968  0.00  0.00    +0.143 C 
ATOM     11  S   LIG    1       24.693  28.495   4.315  0.00  0.00    -0.089 S 
ATOM     12  C   LIG    1       25.838  29.665   3.718  0.00  0.00    +0.114 C 
ATOM     13  S   LIG    1       26.458  29.740   2.185  0.00  0.00    -0.028 S 
ATOM     14  N   LIG    1       26.191  30.525   4.703  0.00  0.00    -0.273 N 
ATOM     15  H   LIG    1       26.948  31.179   4.570  0.00  0.00    +0.156 HD
ENDBRANCH   7  10
ENDBRANCH   1   7
BRANCH   4  16
ATOM     16  O   LIG    1       19.868  27.769  10.213  0.00  0.00    -0.490 OA
BRANCH  16  17
ATOM     17  C   LIG    1       18.556  28.345  10.160  0.00  0.00    +0.248 C 
BRANCH  17  18
ATOM     18  C   LIG    1       18.025  28.948  11.453  0.00  0.00    +0.147 C 
BRANCH  18  19
ATOM     19  N   LIG    1       18.848  30.063  12.019  0.00  0.00    -0.315 N 
ATOM     20  C   LIG    1       18.061  31.294  12.192  0.00  0.00    +0.131 C 
BRANCH  19  21
ATOM     21  C   LIG    1       19.707  29.853  13.119  0.00  0.00    +0.121 A 
ATOM     22  C   LIG    1       19.245  29.287  14.311  0.00  0.00    +0.043 A 
ATOM     23  C   LIG    1       20.102  29.063  15.391  0.00  0.00    +0.005 A 
ATOM     24  C   LIG    1       21.448  29.328  15.245  0.00  0.00    +0.020 A 
ATOM     25  C   LIG    1       21.864  29.816  14.024  0.00  0.00    +0.113 A 
ATOM     26  N   LIG    1       21.032  30.091  12.987  0.00  0.00    -0.240 NA
ENDBRANCH  19  21
ENDBRANCH  18  19
ENDBRANCH  17  18
ENDBRANCH  16  17
ENDBRANCH   4  16
TORSDOF 7
ENDMDL
MODEL 4
REMARK VINA RESULT:      -6.7      2.118      3.595
REMARK  Name = 
REMARK                            x       y       z     vdW  Elec       q    Type
REMARK                         _______ _______ _______ _____ _____    ______ ____
ROOT
ATOM      1  C   LIG    1       22.877  28.879   7.088  0.00  0.00    -0.046 A 
ATOM      2  C   LIG    1       22.276  30.084   7.443  0.00  0.00    +0.007 A 
ATOM      3  C   LIG    1       21.146  30.106   8.252  0.00  0.00    +0.046 A 
ATOM      4  C   LIG    1       20.544  28.921   8.694  0.00  0.00    +0.121 A 
ATOM      5  C   LIG    1       21.119  27.708   8.318  0.00  0.00    +0.046 A 
ATOM      6  C   LIG    1       22.281  27.686   7.526  0.00  0.00    +0.007 A 
ENDROOT
BRANCH   1   7
ATOM      7  C   LIG    1       24.129  28.900   6.243  0.00  0.00    +0.059 C 
BRANCH   7  10
ATOM      8  O   LIG    1       24.424  31.560   4.370  0.00  0.00    -0.274 OA
ATOM      9  C   LIG    1       25.212  30.866   5.002  0.00  0.00    +0.232 C 
ATOM     10  C   LIG    1       24.937  30.202   6.346  0.00  0.00    +0.143 C 
ATOM     11  S   LIG    1       26.627  29.788   6.959  0.00  0.00    -0.089 S 
ATOM     12  C   LIG    1       27.383  30.124   5.425  0.00  0.00    +0.114 C 
ATOM     13  S   LIG    1       28.980  29.912   5.049  0.00  0.00    -0.028 S 
ATOM     14  N   LIG    1       26.475  30.621   4.551  0.00  0.00    -0.273 N 
ATOM     15  H   LIG    1       26.769  31.000   3.662  0.00  0.00    +0.156 HD
ENDBRANCH   7  10
ENDBRANCH   1   7
BRANCH   4  16
ATOM     16  O   LIG    1       19.407  28.869   9.482  0.00  0.00    -0.490 OA
BRANCH  16  17
ATOM     17  C   LIG    1       19.113  30.141  10.074  0.00  0.00    +0.248 C 
BRANCH  17  18
ATOM     18  C   LIG    1       18.153  30.137  11.255  0.00  0.00    +0.147 C 
BRANCH  18  19
ATOM     19  N   LIG    1       18.638  30.861  12.472  0.00  0.00    -0.315 N 
ATOM     20  C   LIG    1       17.542  31.537  13.183  0.00  0.00    +0.131 C 
BRANCH  19  21
ATOM     21  C   LIG    1       19.531  30.252  13.380  0.00  0.00    +0.121 A 
ATOM     22  C   LIG    1       20.916  30.378  13.239  0.00  0.00    +0.043 A 
ATOM     23  C   LIG    1       21.798  29.790  14.148  0.00  0.00    +0.005 A 
ATOM     24  C   LIG    1       21.286  29.143  15.254  0.00  0.00    +0.020 A 
ATOM     25  C   LIG    1       19.913  29.110  15.385  0.00  0.00    +0.113 A 
ATOM     26  N   LIG    1       19.047  29.629  14.479  0.00  0.00    -0.240 NA
ENDBRANCH  19  21
ENDBRANCH  18  19
ENDBRANCH  17  18
ENDBRANCH  16  17
ENDBRANCH   4  16
TORSDOF 7
ENDMDL
MODEL 5
REMARK VINA RESULT:      -6.6      4.398      8.749
REMARK  Name = 
REMARK                            x       y       z     vdW  Elec       q    Type
REMARK                         _______ _______ _______ _____ _____    ______ ____
ROOT
ATOM      1  C   LIG    1       21.357  29.554   8.211  0.00  0.00    -0.046 A 
ATOM      2  C   LIG    1       22.269  30.167   7.356  0.00  0.00    +0.007 A 
ATOM      3  C   LIG    1       23.280  29.433   6.748  0.00  0.00    +0.046 A 
ATOM      4  C   LIG    1       23.449  28.069   7.012  0.00  0.00    +0.121 A 
ATOM      5  C   LIG    1       22.562  27.451   7.892  0.00  0.00    +0.046 A 
ATOM      6  C   LIG    1       21.518  28.187   8.484  0.00  0.00    +0.007 A 
ENDROOT
BRANCH   1   7
ATOM      7  C   LIG    1       20.245  30.378   8.818  0.00  0.00    +0.059 C 
BRANCH   7  10
ATOM      8  O   LIG    1       17.055  29.945   8.269  0.00  0.00    -0.274 OA
ATOM      9  C   LIG    1       17.737  30.097   9.275  0.00  0.00    +0.232 C 
ATOM     10  C   LIG    1       19.143  29.549   9.492  0.00  0.00    +0.143 C 
ATOM     11  S   LIG    1       19.359  29.672  11.319  0.00  0.00    -0.089 S 
ATOM     12  C   LIG    1       17.939  30.659  11.530  0.00  0.00    +0.114 C 
ATOM     13  S   LIG    1       17.412  31.333  12.947  0.00  0.00    -0.028 S 
ATOM     14  N   LIG    1       17.279  30.793  10.355  0.00  0.00    -0.273 N 
ATOM     15  H   LIG    1       16.363  31.216  10.323  0.00  0.00    +0.156 HD
ENDBRANCH   7  10
ENDBRANCH   1   7
BRANCH   4  16
ATOM     16  O   LIG    1       24.447  27.283   6.460  0.00  0.00    -0.490 OA
BRANCH  16  17
ATOM     17  C   LIG    1       25.183  27.990   5.453  0.00  0.00    +0.248 C 
BRANCH  17  18
ATOM     18  C   LIG    1       26.656  28.244   5.739  0.00  0.00    +0.147 C 
BRANCH  18  19
ATOM     19  N   LIG    1       27.038  28.208   7.186  0.00  0.00    -0.315 N 
ATOM     20  C   LIG    1       27.991  27.125   7.476  0.00  0.00    +0.131 C 
BRANCH  19  21
ATOM     21  C   LIG    1       27.383  29.386   7.882  0.00  0.00    +0.121 A 
ATOM     22  C   LIG    1       26.687  30.582   7.685  0.00  0.00    +0.043 A 
ATOM     23  C   LIG    1       27.019  31.743   8.389  0.00  0.00    +0.005 A 
ATOM     24  C   LIG    1       27.998  31.681   9.358  0.00  0.00    +0.020 A 
ATOM     25  C   LIG    1       28.604  30.459   9.565  0.00  0.00    +0.113 A 
ATOM     26  N   LIG    1       28.329  29.340   8.848  0.00  0.00    -0.240 NA
ENDBRANCH  19  21
ENDBRANCH  18  19
ENDBRANCH  17  18
ENDBRANCH  16  17
ENDBRANCH   4  16
TORSDOF 7
ENDMDL
MODEL 6
REMARK VINA RESULT:      -6.3      2.448      3.294
REMARK  Name = 
REMARK                            x       y       z     vdW  Elec       q    Type
REMARK                         _______ _______ _______ _____ _____    ______ ____
ROOT
ATOM      1  C   LIG    1       23.987  29.382   6.612  0.00  0.00    -0.046 A 
ATOM      2  C   LIG    1       24.018  28.039   6.977  0.00  0.00    +0.007 A 
ATOM      3  C   LIG    1       22.944  27.455   7.638  0.00  0.00    +0.046 A 
ATOM      4  C   LIG    1       21.821  28.205   8.006  0.00  0.00    +0.121 A 
ATOM      5  C   LIG    1       21.793  29.559   7.675  0.00  0.00    +0.046 A 
ATOM      6  C   LIG    1       22.866  30.144   6.978  0.00  0.00    +0.007 A 
ENDROOT
BRANCH   1   7
ATOM      7  C   LIG    1       25.156  29.969   5.856  0.00  0.00    +0.059 C 
BRANCH   7  10
ATOM      8  O   LIG    1       26.303  28.405   3.228  0.00  0.00    -0.274 OA
ATOM      9  C   LIG    1       26.081  29.579   3.496  0.00  0.00    +0.232 C 
ATOM     10  C   LIG    1       24.926  30.099   4.343  0.00  0.00    +0.143 C 
ATOM     11  S   LIG    1       24.872  31.893   3.917  0.00  0.00    -0.089 S 
ATOM     12  C   LIG    1       26.406  31.854   3.092  0.00  0.00    +0.114 C 
ATOM     13  S   LIG    1       27.203  33.148   2.437  0.00  0.00    -0.028 S 
ATOM     14  N   LIG    1       26.875  30.585   3.028  0.00  0.00    -0.273 N 
ATOM     15  H   LIG    1       27.683  30.361   2.464  0.00  0.00    +0.156 HD
ENDBRANCH   7  10
ENDBRANCH   1   7
BRANCH   4  16
ATOM     16  O   LIG    1       20.728  27.694   8.685  0.00  0.00    -0.490 OA
BRANCH  16  17
ATOM     17  C   LIG    1       20.702  28.127  10.051  0.00  0.00    +0.248 C 
BRANCH  17  18
ATOM     18  C   LIG    1       19.741  27.396  10.979  0.00  0.00    +0.147 C 
BRANCH  18  19
ATOM     19  N   LIG    1       18.450  28.106  11.244  0.00  0.00    -0.315 N 
ATOM     20  C   LIG    1       18.496  28.883  12.492  0.00  0.00    +0.131 C 
BRANCH  19  21
ATOM     21  C   LIG    1       17.786  28.823  10.225  0.00  0.00    +0.121 A 
ATOM     22  C   LIG    1       17.197  28.171   9.138  0.00  0.00    +0.043 A 
ATOM     23  C   LIG    1       16.525  28.881   8.140  0.00  0.00    +0.005 A 
ATOM     24  C   LIG    1       16.368  30.244   8.278  0.00  0.00    +0.020 A 
ATOM     25  C   LIG    1       16.904  30.829   9.406  0.00  0.00    +0.113 A 
ATOM     26  N   LIG    1       17.608  30.158  10.353  0.00  0.00    -0.240 NA
ENDBRANCH  19  21
ENDBRANCH  18  19
ENDBRANCH  17  18
ENDBRANCH  16  17
ENDBRANCH   4  16
TORSDOF 7
ENDMDL
MODEL 7
REMARK VINA RESULT:      -6.1      4.272      8.954
REMARK  Name = 
REMARK                            x       y       z     vdW  Elec       q    Type
REMARK                         _______ _______ _______ _____ _____    ______ ____
ROOT
ATOM      1  C   LIG    1       20.378  29.725   8.840  0.00  0.00    -0.046 A 
ATOM      2  C   LIG    1       20.250  28.350   8.664  0.00  0.00    +0.007 A 
ATOM      3  C   LIG    1       21.155  27.645   7.879  0.00  0.00    +0.046 A 
ATOM      4  C   LIG    1       22.191  28.296   7.199  0.00  0.00    +0.121 A 
ATOM      5  C   LIG    1       22.308  29.678   7.342  0.00  0.00    +0.046 A 
ATOM      6  C   LIG    1       21.412  30.388   8.161  0.00  0.00    +0.007 A 
ENDROOT
BRANCH   1   7
ATOM      7  C   LIG    1       19.399  30.448   9.735  0.00  0.00    +0.059 C 
BRANCH   7  10
ATOM      8  O   LIG    1       16.935  30.735  11.860  0.00  0.00    -0.274 OA
ATOM      9  C   LIG    1       18.116  30.424  11.956  0.00  0.00    +0.232 C 
ATOM     10  C   LIG    1       18.914  29.622  10.935  0.00  0.00    +0.143 C 
ATOM     11  S   LIG    1       20.390  29.076  11.897  0.00  0.00    -0.089 S 
ATOM     12  C   LIG    1       20.048  30.140  13.234  0.00  0.00    +0.114 C 
ATOM     13  S   LIG    1       20.986  30.361  14.579  0.00  0.00    -0.028 S 
ATOM     14  N   LIG    1       18.864  30.771  13.043  0.00  0.00    -0.273 N 
ATOM     15  H   LIG    1       18.446  31.317  13.782  0.00  0.00    +0.156 HD
ENDBRANCH   7  10
ENDBRANCH   1   7
BRANCH   4  16
ATOM     16  O   LIG    1       23.112  27.660   6.384  0.00  0.00    -0.490 OA
BRANCH  16  17
ATOM     17  C   LIG    1       24.386  28.319   6.408  0.00  0.00    +0.248 C 
BRANCH  17  18
ATOM     18  C   LIG    1       25.611  27.427   6.547  0.00  0.00    +0.147 C 
BRANCH  18  19
ATOM     19  N   LIG    1       26.288  27.480   7.881  0.00  0.00    -0.315 N 
ATOM     20  C   LIG    1       26.719  26.149   8.333  0.00  0.00    +0.131 C 
BRANCH  19  21
ATOM     21  C   LIG    1       27.270  28.454   8.165  0.00  0.00    +0.121 A 
ATOM     22  C   LIG    1       27.091  29.796   7.817  0.00  0.00    +0.043 A 
ATOM     23  C   LIG    1       28.056  30.761   8.116  0.00  0.00    +0.005 A 
ATOM     24  C   LIG    1       29.168  30.393   8.844  0.00  0.00    +0.020 A 
ATOM     25  C   LIG    1       29.261  29.071   9.226  0.00  0.00    +0.113 A 
ATOM     26  N   LIG    1       28.358  28.114   8.894  0.00  0.00    -0.240 NA
ENDBRANCH  19  21
ENDBRANCH  18  19
ENDBRANCH  17  18
ENDBRANCH  16  17
ENDBRANCH   4  16
TORSDOF 7
ENDMDL
MODEL 8
REMARK VINA RESULT:      -6.1      3.339      4.027
REMARK  Name = 
REMARK                            x       y       z     vdW  Elec       q    Type
REMARK                         _______ _______ _______ _____ _____    ______ ____
ROOT
ATOM      1  C   LIG    1       24.872  27.551   6.676  0.00  0.00    -0.046 A 
ATOM      2  C   LIG    1       23.884  28.137   5.889  0.00  0.00    +0.007 A 
ATOM      3  C   LIG    1       22.568  28.205   6.332  0.00  0.00    +0.046 A 
ATOM      4  C   LIG    1       22.181  27.643   7.554  0.00  0.00    +0.121 A 
ATOM      5  C   LIG    1       23.156  27.024   8.335  0.00  0.00    +0.046 A 
ATOM      6  C   LIG    1       24.494  26.983   7.903  0.00  0.00    +0.007 A 
ENDROOT
BRANCH   1   7
ATOM      7  C   LIG    1       26.298  27.535   6.178  0.00  0.00    +0.059 C 
BRANCH   7  10
ATOM      8  O   LIG    1       28.941  28.497   7.840  0.00  0.00    -0.274 OA
ATOM      9  C   LIG    1       28.657  27.501   7.186  0.00  0.00    +0.232 C 
ATOM     10  C   LIG    1       27.287  26.835   7.123  0.00  0.00    +0.143 C 
ATOM     11  S   LIG    1       27.665  25.168   6.432  0.00  0.00    -0.089 S 
ATOM     12  C   LIG    1       29.294  25.601   5.991  0.00  0.00    +0.114 C 
ATOM     13  S   LIG    1       30.380  24.649   5.182  0.00  0.00    -0.028 S 
ATOM     14  N   LIG    1       29.585  26.850   6.427  0.00  0.00    -0.273 N 
ATOM     15  H   LIG    1       30.528  27.207   6.380  0.00  0.00    +0.156 HD
ENDBRANCH   7  10
ENDBRANCH   1   7
BRANCH   4  16
ATOM     16  O   LIG    1       20.886  27.655   8.045  0.00  0.00    -0.490 OA
BRANCH  16  17
ATOM     17  C   LIG    1       20.813  27.094   9.362  0.00  0.00    +0.248 C 
BRANCH  17  18
ATOM     18  C   LIG    1       20.214  27.978  10.446  0.00  0.00    +0.147 C 
BRANCH  18  19
ATOM     19  N   LIG    1       18.730  27.867  10.610  0.00  0.00    -0.315 N 
ATOM     20  C   LIG    1       18.342  27.722  12.021  0.00  0.00    +0.131 C 
BRANCH  19  21
ATOM     21  C   LIG    1       17.851  28.737   9.930  0.00  0.00    +0.121 A 
ATOM     22  C   LIG    1       17.053  28.291   8.873  0.00  0.00    +0.043 A 
ATOM     23  C   LIG    1       16.170  29.150   8.213  0.00  0.00    +0.005 A 
ATOM     24  C   LIG    1       16.025  30.442   8.673  0.00  0.00    +0.020 A 
ATOM     25  C   LIG    1       16.782  30.811   9.765  0.00  0.00    +0.113 A 
ATOM     26  N   LIG    1       17.684  30.003  10.377  0.00  0.00    -0.240 NA
ENDBRANCH  19  21
ENDBRANCH  18  19
ENDBRANCH  17  18
ENDBRANCH  16  17
ENDBRANCH   4  16
TORSDOF 7
ENDMDL
MODEL 9
REMARK VINA RESULT:      -6.1      3.111      3.726
REMARK  Name = 
REMARK                            x       y       z     vdW  Elec       q    Type
REMARK                         _______ _______ _______ _____ _____    ______ ____
ROOT
ATOM      1  C   LIG    1       24.658  29.321   6.410  0.00  0.00    -0.046 A 
ATOM      2  C   LIG    1       23.537  30.137   6.539  0.00  0.00    +0.007 A 
ATOM      3  C   LIG    1       22.362  29.649   7.099  0.00  0.00    +0.046 A 
ATOM      4  C   LIG    1       22.247  28.314   7.503  0.00  0.00    +0.121 A 
ATOM      5  C   LIG    1       23.353  27.479   7.347  0.00  0.00    +0.046 A 
ATOM      6  C   LIG    1       24.553  27.980   6.810  0.00  0.00    +0.007 A 
ENDROOT
BRANCH   1   7
ATOM      7  C   LIG    1       25.930  29.900   5.835  0.00  0.00    +0.059 C 
BRANCH   7  10
ATOM      8  O   LIG    1       27.530  29.219   8.600  0.00  0.00    -0.274 OA
ATOM      9  C   LIG    1       27.874  29.535   7.468  0.00  0.00    +0.232 C 
ATOM     10  C   LIG    1       27.195  29.099   6.174  0.00  0.00    +0.143 C 
ATOM     11  S   LIG    1       28.471  29.461   4.893  0.00  0.00    -0.089 S 
ATOM     12  C   LIG    1       29.465  30.384   5.987  0.00  0.00    +0.114 C 
ATOM     13  S   LIG    1       30.854  31.198   5.604  0.00  0.00    -0.028 S 
ATOM     14  N   LIG    1       28.957  30.333   7.242  0.00  0.00    -0.273 N 
ATOM     15  H   LIG    1       29.481  30.695   8.025  0.00  0.00    +0.156 HD
ENDBRANCH   7  10
ENDBRANCH   1   7
BRANCH   4  16
ATOM     16  O   LIG    1       21.102  27.757   8.046  0.00  0.00    -0.490 OA
BRANCH  16  17
ATOM     17  C   LIG    1       20.510  28.616   9.030  0.00  0.00    +0.248 C 
BRANCH  17  18
ATOM     18  C   LIG    1       19.094  28.270   9.472  0.00  0.00    +0.147 C 
BRANCH  18  19
ATOM     19  N   LIG    1       18.509  29.185  10.502  0.00  0.00    -0.315 N 
ATOM     20  C   LIG    1       19.547  29.933  11.227  0.00  0.00    +0.131 C 
BRANCH  19  21
ATOM     21  C   LIG    1       17.405  30.012  10.203  0.00  0.00    +0.121 A 
ATOM     22  C   LIG    1       17.096  31.130  10.984  0.00  0.00    +0.043 A 
ATOM     23  C   LIG    1       16.014  31.958  10.676  0.00  0.00    +0.005 A 
ATOM     24  C   LIG    1       15.288  31.712   9.528  0.00  0.00    +0.020 A 
ATOM     25  C   LIG    1       15.679  30.640   8.754  0.00  0.00    +0.113 A 
ATOM     26  N   LIG    1       16.693  29.796   9.073  0.00  0.00    -0.240 NA
ENDBRANCH  19  21
ENDBRANCH  18  19
ENDBRANCH  17  18
ENDBRANCH  16  17
ENDBRANCH   4  16
TORSDOF 7
ENDMDL
