MODEL 1
REMARK VINA RESULT:      -7.7      0.000      0.000
REMARK  Name = 
REMARK                            x       y       z     vdW  Elec       q    Type
REMARK                         _______ _______ _______ _____ _____    ______ ____
ROOT
ATOM      1  C   LIG    1       32.430  -2.463  24.449  0.00  0.00    -0.046 A 
ATOM      2  C   LIG    1       32.114  -1.118  24.274  0.00  0.00    +0.007 A 
ATOM      3  C   LIG    1       32.026  -0.259  25.363  0.00  0.00    +0.046 A 
ATOM      4  C   LIG    1       32.200  -0.724  26.672  0.00  0.00    +0.121 A 
ATOM      5  C   LIG    1       32.484  -2.075  26.862  0.00  0.00    +0.046 A 
ATOM      6  C   LIG    1       32.605  -2.939  25.758  0.00  0.00    +0.007 A 
ENDROOT
BRANCH   1   7
ATOM      7  C   LIG    1       32.558  -3.355  23.236  0.00  0.00    +0.059 C 
BRANCH   7  10
ATOM      8  O   LIG    1       30.427  -3.106  20.774  0.00  0.00    -0.274 OA
ATOM      9  C   LIG    1       31.643  -3.232  20.843  0.00  0.00    +0.232 C 
ATOM     10  C   LIG    1       32.547  -2.603  21.897  0.00  0.00    +0.143 C 
ATOM     11  S   LIG    1       34.224  -2.739  21.142  0.00  0.00    -0.089 S 
ATOM     12  C   LIG    1       33.687  -3.812  19.879  0.00  0.00    +0.114 C 
ATOM     13  S   LIG    1       34.637  -4.537  18.734  0.00  0.00    -0.028 S 
ATOM     14  N   LIG    1       32.342  -3.969  19.933  0.00  0.00    -0.273 N 
ATOM     15  H   LIG    1       31.848  -4.446  19.193  0.00  0.00    +0.156 HD
ENDBRANCH   7  10
ENDBRANCH   1   7
BRANCH   4  16
ATOM     16  O   LIG    1       32.104   0.071  27.802  0.00  0.00    -0.490 OA
BRANCH  16  17
ATOM     17  C   LIG    1       31.003   0.985  27.716  0.00  0.00    +0.248 C 
BRANCH  17  18
ATOM     18  C   LIG    1       29.791   0.676  28.584  0.00  0.00    +0.147 C 
BRANCH  18  19
ATOM     19  N   LIG    1       28.560   0.271  27.836  0.00  0.00    -0.315 N 
ATOM     20  C   LIG    1       28.554   0.795  26.462  0.00  0.00    +0.131 C 
BRANCH  19  21
ATOM     21  C   LIG    1       28.084  -1.057  27.874  0.00  0.00    +0.121 A 
ATOM     22  C   LIG    1       28.957  -2.144  27.982  0.00  0.00    +0.043 A 
ATOM     23  C   LIG    1       28.484  -3.457  28.038  0.00  0.00    +0.005 A 
ATOM     24  C   LIG    1       27.122  -3.676  28.071  0.00  0.00    +0.020 A 
ATOM     25  C   LIG    1       26.304  -2.567  28.035  0.00  0.00    +0.113 A 
ATOM     26  N   LIG    1       26.753  -1.291  27.924  0.00  0.00    -0.240 NA
ENDBRANCH  19  21
ENDBRANCH  18  19
ENDBRANCH  17  18
ENDBRANCH  16  17
ENDBRANCH   4  16
TORSDOF 7
ENDMDL
MODEL 2
REMARK VINA RESULT:      -7.6      2.228      4.129
REMARK  Name = 
REMARK                            x       y       z     vdW  Elec       q    Type
REMARK                         _______ _______ _______ _____ _____    ______ ____
ROOT
ATOM      1  C   LIG    1       32.573  -2.641  24.030  0.00  0.00    -0.046 A 
ATOM      2  C   LIG    1       31.867  -1.462  23.807  0.00  0.00    +0.007 A 
ATOM      3  C   LIG    1       31.089  -0.896  24.811  0.00  0.00    +0.046 A 
ATOM      4  C   LIG    1       30.947  -1.516  26.058  0.00  0.00    +0.121 A 
ATOM      5  C   LIG    1       31.623  -2.714  26.281  0.00  0.00    +0.046 A 
ATOM      6  C   LIG    1       32.436  -3.271  25.277  0.00  0.00    +0.007 A 
ENDROOT
BRANCH   1   7
ATOM      7  C   LIG    1       33.441  -3.201  22.928  0.00  0.00    +0.059 C 
BRANCH   7  10
ATOM      8  O   LIG    1       30.922  -3.207  20.849  0.00  0.00    -0.274 OA
ATOM      9  C   LIG    1       32.136  -3.313  20.723  0.00  0.00    +0.232 C 
ATOM     10  C   LIG    1       33.186  -2.578  21.547  0.00  0.00    +0.143 C 
ATOM     11  S   LIG    1       34.716  -2.766  20.535  0.00  0.00    -0.089 S 
ATOM     12  C   LIG    1       34.004  -3.959  19.484  0.00  0.00    +0.114 C 
ATOM     13  S   LIG    1       34.768  -4.778  18.266  0.00  0.00    -0.028 S 
ATOM     14  N   LIG    1       32.692  -4.125  19.779  0.00  0.00    -0.273 N 
ATOM     15  H   LIG    1       32.094  -4.675  19.179  0.00  0.00    +0.156 HD
ENDBRANCH   7  10
ENDBRANCH   1   7
BRANCH   4  16
ATOM     16  O   LIG    1       30.172  -1.021  27.093  0.00  0.00    -0.490 OA
BRANCH  16  17
ATOM     17  C   LIG    1       30.369  -1.761  28.305  0.00  0.00    +0.248 C 
BRANCH  17  18
ATOM     18  C   LIG    1       31.438  -1.239  29.255  0.00  0.00    +0.147 C 
BRANCH  18  19
ATOM     19  N   LIG    1       31.612   0.248  29.262  0.00  0.00    -0.315 N 
ATOM     20  C   LIG    1       31.315   0.830  30.579  0.00  0.00    +0.131 C 
BRANCH  19  21
ATOM     21  C   LIG    1       32.748   0.854  28.684  0.00  0.00    +0.121 A 
ATOM     22  C   LIG    1       32.724   1.358  27.380  0.00  0.00    +0.043 A 
ATOM     23  C   LIG    1       33.844   1.974  26.816  0.00  0.00    +0.005 A 
ATOM     24  C   LIG    1       34.967   2.163  27.595  0.00  0.00    +0.020 A 
ATOM     25  C   LIG    1       34.913   1.712  28.898  0.00  0.00    +0.113 A 
ATOM     26  N   LIG    1       33.852   1.062  29.438  0.00  0.00    -0.240 NA
ENDBRANCH  19  21
ENDBRANCH  18  19
ENDBRANCH  17  18
ENDBRANCH  16  17
ENDBRANCH   4  16
TORSDOF 7
ENDMDL
MODEL 3
REMARK VINA RESULT:      -7.4      1.795      2.290
REMARK  Name = 
REMARK                            x       y       z     vdW  Elec       q    Type
REMARK                         _______ _______ _______ _____ _____    ______ ____
ROOT
ATOM      1  C   LIG    1       32.584  -2.668  22.625  0.00  0.00    -0.046 A 
ATOM      2  C   LIG    1       31.824  -1.659  23.210  0.00  0.00    +0.007 A 
ATOM      3  C   LIG    1       31.859  -1.446  24.583  0.00  0.00    +0.046 A 
ATOM      4  C   LIG    1       32.614  -2.267  25.428  0.00  0.00    +0.121 A 
ATOM      5  C   LIG    1       33.353  -3.301  24.857  0.00  0.00    +0.046 A 
ATOM      6  C   LIG    1       33.344  -3.498  23.464  0.00  0.00    +0.007 A 
ENDROOT
BRANCH   1   7
ATOM      7  C   LIG    1       32.552  -2.839  21.124  0.00  0.00    +0.059 C 
BRANCH   7  10
ATOM      8  O   LIG    1       35.039  -1.008  20.059  0.00  0.00    -0.274 OA
ATOM      9  C   LIG    1       34.475  -2.013  19.642  0.00  0.00    +0.232 C 
ATOM     10  C   LIG    1       33.920  -3.146  20.497  0.00  0.00    +0.143 C 
ATOM     11  S   LIG    1       33.706  -4.517  19.282  0.00  0.00    -0.089 S 
ATOM     12  C   LIG    1       33.957  -3.481  17.904  0.00  0.00    +0.114 C 
ATOM     13  S   LIG    1       33.842  -3.917  16.312  0.00  0.00    -0.028 S 
ATOM     14  N   LIG    1       34.293  -2.232  18.308  0.00  0.00    -0.273 N 
ATOM     15  H   LIG    1       34.609  -1.542  17.642  0.00  0.00    +0.156 HD
ENDBRANCH   7  10
ENDBRANCH   1   7
BRANCH   4  16
ATOM     16  O   LIG    1       32.676  -2.126  26.804  0.00  0.00    -0.490 OA
BRANCH  16  17
ATOM     17  C   LIG    1       32.617  -0.749  27.200  0.00  0.00    +0.248 C 
BRANCH  17  18
ATOM     18  C   LIG    1       31.669  -0.408  28.341  0.00  0.00    +0.147 C 
BRANCH  18  19
ATOM     19  N   LIG    1       30.263  -0.100  27.929  0.00  0.00    -0.315 N 
ATOM     20  C   LIG    1       30.206   0.984  26.937  0.00  0.00    +0.131 C 
BRANCH  19  21
ATOM     21  C   LIG    1       29.352  -1.129  27.609  0.00  0.00    +0.121 A 
ATOM     22  C   LIG    1       29.413  -2.380  28.231  0.00  0.00    +0.043 A 
ATOM     23  C   LIG    1       28.499  -3.391  27.925  0.00  0.00    +0.005 A 
ATOM     24  C   LIG    1       27.465  -3.118  27.053  0.00  0.00    +0.020 A 
ATOM     25  C   LIG    1       27.408  -1.846  26.523  0.00  0.00    +0.113 A 
ATOM     26  N   LIG    1       28.323  -0.874  26.769  0.00  0.00    -0.240 NA
ENDBRANCH  19  21
ENDBRANCH  18  19
ENDBRANCH  17  18
ENDBRANCH  16  17
ENDBRANCH   4  16
TORSDOF 7
ENDMDL
MODEL 4
REMARK VINA RESULT:      -7.3      2.493      4.208
REMARK  Name = 
REMARK                            x       y       z     vdW  Elec       q    Type
REMARK                         _______ _______ _______ _____ _____    ______ ____
ROOT
ATOM      1  C   LIG    1       32.705  -2.513  22.957  0.00  0.00    -0.046 A 
ATOM      2  C   LIG    1       31.829  -1.556  23.462  0.00  0.00    +0.007 A 
ATOM      3  C   LIG    1       31.560  -1.484  24.824  0.00  0.00    +0.046 A 
ATOM      4  C   LIG    1       32.115  -2.400  25.725  0.00  0.00    +0.121 A 
ATOM      5  C   LIG    1       32.968  -3.384  25.226  0.00  0.00    +0.046 A 
ATOM      6  C   LIG    1       33.267  -3.437  23.853  0.00  0.00    +0.007 A 
ENDROOT
BRANCH   1   7
ATOM      7  C   LIG    1       33.007  -2.530  21.476  0.00  0.00    +0.059 C 
BRANCH   7  10
ATOM      8  O   LIG    1       36.231  -2.156  21.118  0.00  0.00    -0.274 OA
ATOM      9  C   LIG    1       35.362  -2.743  20.485  0.00  0.00    +0.232 C 
ATOM     10  C   LIG    1       34.159  -3.465  21.080  0.00  0.00    +0.143 C 
ATOM     11  S   LIG    1       33.586  -4.533  19.689  0.00  0.00    -0.089 S 
ATOM     12  C   LIG    1       34.599  -3.737  18.517  0.00  0.00    +0.114 C 
ATOM     13  S   LIG    1       34.642  -4.037  16.890  0.00  0.00    -0.028 S 
ATOM     14  N   LIG    1       35.396  -2.824  19.124  0.00  0.00    -0.273 N 
ATOM     15  H   LIG    1       36.142  -2.371  18.616  0.00  0.00    +0.156 HD
ENDBRANCH   7  10
ENDBRANCH   1   7
BRANCH   4  16
ATOM     16  O   LIG    1       31.871  -2.401  27.088  0.00  0.00    -0.490 OA
BRANCH  16  17
ATOM     17  C   LIG    1       30.528  -1.999  27.387  0.00  0.00    +0.248 C 
BRANCH  17  18
ATOM     18  C   LIG    1       30.364  -0.862  28.385  0.00  0.00    +0.147 C 
BRANCH  18  19
ATOM     19  N   LIG    1       30.655   0.504  27.845  0.00  0.00    -0.315 N 
ATOM     20  C   LIG    1       29.764   1.523  28.421  0.00  0.00    +0.131 C 
BRANCH  19  21
ATOM     21  C   LIG    1       31.978   0.986  27.746  0.00  0.00    +0.121 A 
ATOM     22  C   LIG    1       32.453   1.581  26.573  0.00  0.00    +0.043 A 
ATOM     23  C   LIG    1       33.757   2.074  26.483  0.00  0.00    +0.005 A 
ATOM     24  C   LIG    1       34.562   2.046  27.603  0.00  0.00    +0.020 A 
ATOM     25  C   LIG    1       34.021   1.514  28.754  0.00  0.00    +0.113 A 
ATOM     26  N   LIG    1       32.776   0.982  28.838  0.00  0.00    -0.240 NA
ENDBRANCH  19  21
ENDBRANCH  18  19
ENDBRANCH  17  18
ENDBRANCH  16  17
ENDBRANCH   4  16
TORSDOF 7
ENDMDL
MODEL 5
REMARK VINA RESULT:      -7.2      1.547      2.452
REMARK  Name = 
REMARK                            x       y       z     vdW  Elec       q    Type
REMARK                         _______ _______ _______ _____ _____    ______ ____
ROOT
ATOM      1  C   LIG    1       32.860  -3.153  22.667  0.00  0.00    -0.046 A 
ATOM      2  C   LIG    1       31.989  -2.067  22.690  0.00  0.00    +0.007 A 
ATOM      3  C   LIG    1       31.753  -1.368  23.868  0.00  0.00    +0.046 A 
ATOM      4  C   LIG    1       32.338  -1.760  25.077  0.00  0.00    +0.121 A 
ATOM      5  C   LIG    1       33.186  -2.866  25.073  0.00  0.00    +0.046 A 
ATOM      6  C   LIG    1       33.452  -3.556  23.875  0.00  0.00    +0.007 A 
ENDROOT
BRANCH   1   7
ATOM      7  C   LIG    1       33.125  -3.860  21.358  0.00  0.00    +0.059 C 
BRANCH   7  10
ATOM      8  O   LIG    1       31.175  -2.850  18.940  0.00  0.00    -0.274 OA
ATOM      9  C   LIG    1       32.347  -3.202  19.005  0.00  0.00    +0.232 C 
ATOM     10  C   LIG    1       33.302  -2.918  20.158  0.00  0.00    +0.143 C 
ATOM     11  S   LIG    1       34.959  -3.234  19.414  0.00  0.00    -0.089 S 
ATOM     12  C   LIG    1       34.296  -3.982  17.987  0.00  0.00    +0.114 C 
ATOM     13  S   LIG    1       35.152  -4.678  16.753  0.00  0.00    -0.028 S 
ATOM     14  N   LIG    1       32.944  -3.901  17.997  0.00  0.00    -0.273 N 
ATOM     15  H   LIG    1       32.405  -4.160  17.183  0.00  0.00    +0.156 HD
ENDBRANCH   7  10
ENDBRANCH   1   7
BRANCH   4  16
ATOM     16  O   LIG    1       32.128  -1.124  26.289  0.00  0.00    -0.490 OA
BRANCH  16  17
ATOM     17  C   LIG    1       32.114   0.302  26.145  0.00  0.00    +0.248 C 
BRANCH  17  18
ATOM     18  C   LIG    1       31.731   1.107  27.379  0.00  0.00    +0.147 C 
BRANCH  18  19
ATOM     19  N   LIG    1       30.839   0.398  28.349  0.00  0.00    -0.315 N 
ATOM     20  C   LIG    1       31.050   0.861  29.729  0.00  0.00    +0.131 C 
BRANCH  19  21
ATOM     21  C   LIG    1       29.466   0.213  28.081  0.00  0.00    +0.121 A 
ATOM     22  C   LIG    1       28.633   1.288  27.755  0.00  0.00    +0.043 A 
ATOM     23  C   LIG    1       27.278   1.100  27.472  0.00  0.00    +0.005 A 
ATOM     24  C   LIG    1       26.775  -0.184  27.431  0.00  0.00    +0.020 A 
ATOM     25  C   LIG    1       27.655  -1.214  27.688  0.00  0.00    +0.113 A 
ATOM     26  N   LIG    1       28.959  -1.040  28.020  0.00  0.00    -0.240 NA
ENDBRANCH  19  21
ENDBRANCH  18  19
ENDBRANCH  17  18
ENDBRANCH  16  17
ENDBRANCH   4  16
TORSDOF 7
ENDMDL
MODEL 6
REMARK VINA RESULT:      -7.2      3.433      8.323
REMARK  Name = 
REMARK                            x       y       z     vdW  Elec       q    Type
REMARK                         _______ _______ _______ _____ _____    ______ ____
ROOT
ATOM      1  C   LIG    1       30.883  -1.071  26.284  0.00  0.00    -0.046 A 
ATOM      2  C   LIG    1       31.143  -0.761  24.952  0.00  0.00    +0.007 A 
ATOM      3  C   LIG    1       32.026  -1.528  24.201  0.00  0.00    +0.046 A 
ATOM      4  C   LIG    1       32.722  -2.602  24.769  0.00  0.00    +0.121 A 
ATOM      5  C   LIG    1       32.495  -2.901  26.111  0.00  0.00    +0.046 A 
ATOM      6  C   LIG    1       31.577  -2.146  26.864  0.00  0.00    +0.007 A 
ENDROOT
BRANCH   1   7
ATOM      7  C   LIG    1       29.884  -0.240  27.055  0.00  0.00    +0.059 C 
BRANCH   7  10
ATOM      8  O   LIG    1       27.137   1.441  27.602  0.00  0.00    -0.274 OA
ATOM      9  C   LIG    1       27.400   0.252  27.462  0.00  0.00    +0.232 C 
ATOM     10  C   LIG    1       28.447  -0.325  26.518  0.00  0.00    +0.143 C 
ATOM     11  S   LIG    1       27.974  -2.105  26.410  0.00  0.00    -0.089 S 
ATOM     12  C   LIG    1       26.852  -1.999  27.738  0.00  0.00    +0.114 C 
ATOM     13  S   LIG    1       25.998  -3.249  28.406  0.00  0.00    -0.028 S 
ATOM     14  N   LIG    1       26.740  -0.716  28.161  0.00  0.00    -0.273 N 
ATOM     15  H   LIG    1       26.031  -0.453  28.829  0.00  0.00    +0.156 HD
ENDBRANCH   7  10
ENDBRANCH   1   7
BRANCH   4  16
ATOM     16  O   LIG    1       33.632  -3.392  24.086  0.00  0.00    -0.490 OA
BRANCH  16  17
ATOM     17  C   LIG    1       33.184  -3.690  22.757  0.00  0.00    +0.248 C 
BRANCH  17  18
ATOM     18  C   LIG    1       33.962  -3.049  21.617  0.00  0.00    +0.147 C 
BRANCH  18  19
ATOM     19  N   LIG    1       33.696  -3.628  20.262  0.00  0.00    -0.315 N 
ATOM     20  C   LIG    1       33.537  -5.089  20.310  0.00  0.00    +0.131 C 
BRANCH  19  21
ATOM     21  C   LIG    1       32.754  -3.044  19.389  0.00  0.00    +0.121 A 
ATOM     22  C   LIG    1       33.151  -2.343  18.246  0.00  0.00    +0.043 A 
ATOM     23  C   LIG    1       32.216  -1.782  17.373  0.00  0.00    +0.005 A 
ATOM     24  C   LIG    1       30.873  -1.998  17.601  0.00  0.00    +0.020 A 
ATOM     25  C   LIG    1       30.536  -2.758  18.702  0.00  0.00    +0.113 A 
ATOM     26  N   LIG    1       31.433  -3.260  19.588  0.00  0.00    -0.240 NA
ENDBRANCH  19  21
ENDBRANCH  18  19
ENDBRANCH  17  18
ENDBRANCH  16  17
ENDBRANCH   4  16
TORSDOF 7
ENDMDL
MODEL 7
REMARK VINA RESULT:      -6.9      3.394      5.671
REMARK  Name = 
REMARK                            x       y       z     vdW  Elec       q    Type
REMARK                         _______ _______ _______ _____ _____    ______ ____
ROOT
ATOM      1  C   LIG    1       33.864  -2.922  20.149  0.00  0.00    -0.046 A 
ATOM      2  C   LIG    1       32.511  -3.138  20.396  0.00  0.00    +0.007 A 
ATOM      3  C   LIG    1       32.051  -3.380  21.685  0.00  0.00    +0.046 A 
ATOM      4  C   LIG    1       32.934  -3.467  22.768  0.00  0.00    +0.121 A 
ATOM      5  C   LIG    1       34.295  -3.285  22.528  0.00  0.00    +0.046 A 
ATOM      6  C   LIG    1       34.758  -3.008  21.229  0.00  0.00    +0.007 A 
ENDROOT
BRANCH   1   7
ATOM      7  C   LIG    1       34.319  -2.619  18.740  0.00  0.00    +0.059 C 
BRANCH   7  10
ATOM      8  O   LIG    1       35.550   0.250  19.701  0.00  0.00    -0.274 OA
ATOM      9  C   LIG    1       35.668  -0.438  18.695  0.00  0.00    +0.232 C 
ATOM     10  C   LIG    1       35.704  -1.961  18.654  0.00  0.00    +0.143 C 
ATOM     11  S   LIG    1       36.410  -2.316  16.987  0.00  0.00    -0.089 S 
ATOM     12  C   LIG    1       36.237  -0.670  16.444  0.00  0.00    +0.114 C 
ATOM     13  S   LIG    1       36.573  -0.094  14.929  0.00  0.00    -0.028 S 
ATOM     14  N   LIG    1       35.800   0.118  17.456  0.00  0.00    -0.273 N 
ATOM     15  H   LIG    1       35.777   1.122  17.355  0.00  0.00    +0.156 HD
ENDBRANCH   7  10
ENDBRANCH   1   7
BRANCH   4  16
ATOM     16  O   LIG    1       32.547  -3.727  24.072  0.00  0.00    -0.490 OA
BRANCH  16  17
ATOM     17  C   LIG    1       32.895  -2.651  24.954  0.00  0.00    +0.248 C 
BRANCH  17  18
ATOM     18  C   LIG    1       31.930  -1.475  25.006  0.00  0.00    +0.147 C 
BRANCH  18  19
ATOM     19  N   LIG    1       31.799  -0.820  26.345  0.00  0.00    -0.315 N 
ATOM     20  C   LIG    1       31.343  -1.764  27.377  0.00  0.00    +0.131 C 
BRANCH  19  21
ATOM     21  C   LIG    1       32.807   0.030  26.847  0.00  0.00    +0.121 A 
ATOM     22  C   LIG    1       32.950   1.344  26.390  0.00  0.00    +0.043 A 
ATOM     23  C   LIG    1       33.938   2.190  26.901  0.00  0.00    +0.005 A 
ATOM     24  C   LIG    1       34.732   1.743  27.937  0.00  0.00    +0.020 A 
ATOM     25  C   LIG    1       34.502   0.464  28.400  0.00  0.00    +0.113 A 
ATOM     26  N   LIG    1       33.584  -0.385  27.874  0.00  0.00    -0.240 NA
ENDBRANCH  19  21
ENDBRANCH  18  19
ENDBRANCH  17  18
ENDBRANCH  16  17
ENDBRANCH   4  16
TORSDOF 7
ENDMDL
MODEL 8
REMARK VINA RESULT:      -6.8      3.161      5.615
REMARK  Name = 
REMARK                            x       y       z     vdW  Elec       q    Type
REMARK                         _______ _______ _______ _____ _____    ______ ____
ROOT
ATOM      1  C   LIG    1       33.319  -2.838  19.811  0.00  0.00    -0.046 A 
ATOM      2  C   LIG    1       32.117  -3.247  20.383  0.00  0.00    +0.007 A 
ATOM      3  C   LIG    1       32.032  -3.515  21.744  0.00  0.00    +0.046 A 
ATOM      4  C   LIG    1       33.156  -3.434  22.574  0.00  0.00    +0.121 A 
ATOM      5  C   LIG    1       34.371  -3.058  22.006  0.00  0.00    +0.046 A 
ATOM      6  C   LIG    1       34.453  -2.755  20.634  0.00  0.00    +0.007 A 
ENDROOT
BRANCH   1   7
ATOM      7  C   LIG    1       33.361  -2.515  18.335  0.00  0.00    +0.059 C 
BRANCH   7  10
ATOM      8  O   LIG    1       35.224  -1.169  16.014  0.00  0.00    -0.274 OA
ATOM      9  C   LIG    1       34.845  -2.309  16.253  0.00  0.00    +0.232 C 
ATOM     10  C   LIG    1       34.668  -2.919  17.639  0.00  0.00    +0.143 C 
ATOM     11  S   LIG    1       34.604  -4.729  17.292  0.00  0.00    -0.089 S 
ATOM     12  C   LIG    1       34.439  -4.503  15.572  0.00  0.00    +0.114 C 
ATOM     13  S   LIG    1       34.216  -5.691  14.441  0.00  0.00    -0.028 S 
ATOM     14  N   LIG    1       34.543  -3.190  15.257  0.00  0.00    -0.273 N 
ATOM     15  H   LIG    1       34.609  -2.894  14.293  0.00  0.00    +0.156 HD
ENDBRANCH   7  10
ENDBRANCH   1   7
BRANCH   4  16
ATOM     16  O   LIG    1       33.147  -3.709  23.932  0.00  0.00    -0.490 OA
BRANCH  16  17
ATOM     17  C   LIG    1       32.975  -2.519  24.713  0.00  0.00    +0.248 C 
BRANCH  17  18
ATOM     18  C   LIG    1       32.391  -2.699  26.107  0.00  0.00    +0.147 C 
BRANCH  18  19
ATOM     19  N   LIG    1       31.893  -1.444  26.754  0.00  0.00    -0.315 N 
ATOM     20  C   LIG    1       31.135  -1.722  27.983  0.00  0.00    +0.131 C 
BRANCH  19  21
ATOM     21  C   LIG    1       32.734  -0.323  26.920  0.00  0.00    +0.121 A 
ATOM     22  C   LIG    1       32.579   0.830  26.144  0.00  0.00    +0.043 A 
ATOM     23  C   LIG    1       33.401   1.945  26.323  0.00  0.00    +0.005 A 
ATOM     24  C   LIG    1       34.328   1.936  27.345  0.00  0.00    +0.020 A 
ATOM     25  C   LIG    1       34.390   0.803  28.129  0.00  0.00    +0.113 A 
ATOM     26  N   LIG    1       33.636  -0.307  27.928  0.00  0.00    -0.240 NA
ENDBRANCH  19  21
ENDBRANCH  18  19
ENDBRANCH  17  18
ENDBRANCH  16  17
ENDBRANCH   4  16
TORSDOF 7
ENDMDL
MODEL 9
REMARK VINA RESULT:      -6.7      3.808      7.871
REMARK  Name = 
REMARK                            x       y       z     vdW  Elec       q    Type
REMARK                         _______ _______ _______ _____ _____    ______ ____
ROOT
ATOM      1  C   LIG    1       31.518  -1.331  28.854  0.00  0.00    -0.046 A 
ATOM      2  C   LIG    1       30.338  -1.696  28.213  0.00  0.00    +0.007 A 
ATOM      3  C   LIG    1       30.368  -2.378  27.002  0.00  0.00    +0.046 A 
ATOM      4  C   LIG    1       31.577  -2.674  26.362  0.00  0.00    +0.121 A 
ATOM      5  C   LIG    1       32.764  -2.283  26.979  0.00  0.00    +0.046 A 
ATOM      6  C   LIG    1       32.737  -1.621  28.220  0.00  0.00    +0.007 A 
ENDROOT
BRANCH   1   7
ATOM      7  C   LIG    1       31.445  -0.629  30.191  0.00  0.00    +0.059 C 
BRANCH   7  10
ATOM      8  O   LIG    1       30.136   1.779  28.414  0.00  0.00    -0.274 OA
ATOM      9  C   LIG    1       31.274   1.503  28.776  0.00  0.00    +0.232 C 
ATOM     10  C   LIG    1       31.660   0.890  30.117  0.00  0.00    +0.143 C 
ATOM     11  S   LIG    1       33.470   1.225  30.222  0.00  0.00    -0.089 S 
ATOM     12  C   LIG    1       33.587   1.713  28.553  0.00  0.00    +0.114 C 
ATOM     13  S   LIG    1       34.971   2.120  27.742  0.00  0.00    -0.028 S 
ATOM     14  N   LIG    1       32.358   1.742  27.984  0.00  0.00    -0.273 N 
ATOM     15  H   LIG    1       32.225   2.136  27.063  0.00  0.00    +0.156 HD
ENDBRANCH   7  10
ENDBRANCH   1   7
BRANCH   4  16
ATOM     16  O   LIG    1       31.678  -3.328  25.146  0.00  0.00    -0.490 OA
BRANCH  16  17
ATOM     17  C   LIG    1       32.792  -2.853  24.378  0.00  0.00    +0.248 C 
BRANCH  17  18
ATOM     18  C   LIG    1       33.205  -3.700  23.183  0.00  0.00    +0.147 C 
BRANCH  18  19
ATOM     19  N   LIG    1       33.386  -2.946  21.902  0.00  0.00    -0.315 N 
ATOM     20  C   LIG    1       34.729  -3.141  21.334  0.00  0.00    +0.131 C 
BRANCH  19  21
ATOM     21  C   LIG    1       32.401  -2.971  20.892  0.00  0.00    +0.121 A 
ATOM     22  C   LIG    1       32.742  -2.975  19.537  0.00  0.00    +0.043 A 
ATOM     23  C   LIG    1       31.766  -3.018  18.539  0.00  0.00    +0.005 A 
ATOM     24  C   LIG    1       30.441  -3.146  18.904  0.00  0.00    +0.020 A 
ATOM     25  C   LIG    1       30.163  -3.212  20.253  0.00  0.00    +0.113 A 
ATOM     26  N   LIG    1       31.099  -3.113  21.231  0.00  0.00    -0.240 NA
ENDBRANCH  19  21
ENDBRANCH  18  19
ENDBRANCH  17  18
ENDBRANCH  16  17
ENDBRANCH   4  16
TORSDOF 7
ENDMDL
