MODEL 1
REMARK VINA RESULT:      -7.1      0.000      0.000
REMARK  Name = 
REMARK                            x       y       z     vdW  Elec       q    Type
REMARK                         _______ _______ _______ _____ _____    ______ ____
ROOT
ATOM      1  C   LIG    1       67.339  45.273  97.869  0.00  0.00    -0.046 A 
ATOM      2  C   LIG    1       67.744  44.900  96.590  0.00  0.00    +0.007 A 
ATOM      3  C   LIG    1       67.258  45.560  95.468  0.00  0.00    +0.046 A 
ATOM      4  C   LIG    1       66.310  46.583  95.579  0.00  0.00    +0.121 A 
ATOM      5  C   LIG    1       65.872  46.943  96.852  0.00  0.00    +0.046 A 
ATOM      6  C   LIG    1       66.387  46.297  97.991  0.00  0.00    +0.007 A 
ENDROOT
BRANCH   1   7
ATOM      7  C   LIG    1       67.923  44.559  99.066  0.00  0.00    +0.059 C 
BRANCH   7  10
ATOM      8  O   LIG    1       68.398  45.449 102.172  0.00  0.00    -0.274 OA
ATOM      9  C   LIG    1       68.536  46.009 101.091  0.00  0.00    +0.232 C 
ATOM     10  C   LIG    1       69.013  45.352  99.801  0.00  0.00    +0.143 C 
ATOM     11  S   LIG    1       69.488  46.793  98.752  0.00  0.00    -0.089 S 
ATOM     12  C   LIG    1       68.743  47.953  99.817  0.00  0.00    +0.114 C 
ATOM     13  S   LIG    1       68.621  49.583  99.565  0.00  0.00    -0.028 S 
ATOM     14  N   LIG    1       68.277  47.338 100.931  0.00  0.00    -0.273 N 
ATOM     15  H   LIG    1       67.941  47.878 101.716  0.00  0.00    +0.156 HD
ENDBRANCH   7  10
ENDBRANCH   1   7
BRANCH   4  16
ATOM     16  O   LIG    1       65.767  47.267  94.504  0.00  0.00    -0.490 OA
BRANCH  16  17
ATOM     17  C   LIG    1       66.296  46.798  93.256  0.00  0.00    +0.248 C 
BRANCH  17  18
ATOM     18  C   LIG    1       66.800  47.859  92.289  0.00  0.00    +0.147 C 
BRANCH  18  19
ATOM     19  N   LIG    1       68.247  48.217  92.436  0.00  0.00    -0.315 N 
ATOM     20  C   LIG    1       68.642  49.295  91.517  0.00  0.00    +0.131 C 
BRANCH  19  21
ATOM     21  C   LIG    1       68.831  48.396  93.708  0.00  0.00    +0.121 A 
ATOM     22  C   LIG    1       69.946  47.655  94.111  0.00  0.00    +0.043 A 
ATOM     23  C   LIG    1       70.534  47.846  95.364  0.00  0.00    +0.005 A 
ATOM     24  C   LIG    1       70.053  48.847  96.183  0.00  0.00    +0.020 A 
ATOM     25  C   LIG    1       68.999  49.598  95.707  0.00  0.00    +0.113 A 
ATOM     26  N   LIG    1       68.384  49.384  94.517  0.00  0.00    -0.240 NA
ENDBRANCH  19  21
ENDBRANCH  18  19
ENDBRANCH  17  18
ENDBRANCH  16  17
ENDBRANCH   4  16
TORSDOF 7
ENDMDL
MODEL 2
REMARK VINA RESULT:      -6.5      2.141      6.178
REMARK  Name = 
REMARK                            x       y       z     vdW  Elec       q    Type
REMARK                         _______ _______ _______ _____ _____    ______ ____
ROOT
ATOM      1  C   LIG    1       67.052  46.392  94.386  0.00  0.00    -0.046 A 
ATOM      2  C   LIG    1       66.002  45.808  95.090  0.00  0.00    +0.007 A 
ATOM      3  C   LIG    1       66.205  45.270  96.355  0.00  0.00    +0.046 A 
ATOM      4  C   LIG    1       67.475  45.250  96.943  0.00  0.00    +0.121 A 
ATOM      5  C   LIG    1       68.540  45.802  96.234  0.00  0.00    +0.046 A 
ATOM      6  C   LIG    1       68.331  46.376  94.966  0.00  0.00    +0.007 A 
ENDROOT
BRANCH   1   7
ATOM      7  C   LIG    1       66.782  47.005  93.031  0.00  0.00    +0.059 C 
BRANCH   7  10
ATOM      8  O   LIG    1       68.738  49.250  91.690  0.00  0.00    -0.274 OA
ATOM      9  C   LIG    1       68.187  49.136  92.777  0.00  0.00    +0.232 C 
ATOM     10  C   LIG    1       66.805  48.540  93.019  0.00  0.00    +0.143 C 
ATOM     11  S   LIG    1       66.384  49.139  94.712  0.00  0.00    -0.089 S 
ATOM     12  C   LIG    1       68.003  49.697  95.035  0.00  0.00    +0.114 C 
ATOM     13  S   LIG    1       68.558  50.335  96.457  0.00  0.00    -0.028 S 
ATOM     14  N   LIG    1       68.777  49.562  93.931  0.00  0.00    -0.273 N 
ATOM     15  H   LIG    1       69.703  49.964  93.898  0.00  0.00    +0.156 HD
ENDBRANCH   7  10
ENDBRANCH   1   7
BRANCH   4  16
ATOM     16  O   LIG    1       67.752  44.710  98.188  0.00  0.00    -0.490 OA
BRANCH  16  17
ATOM     17  C   LIG    1       66.590  44.692  99.028  0.00  0.00    +0.248 C 
BRANCH  17  18
ATOM     18  C   LIG    1       66.219  46.004  99.705  0.00  0.00    +0.147 C 
BRANCH  18  19
ATOM     19  N   LIG    1       67.274  46.580 100.598  0.00  0.00    -0.315 N 
ATOM     20  C   LIG    1       68.055  45.531 101.272  0.00  0.00    +0.131 C 
BRANCH  19  21
ATOM     21  C   LIG    1       68.107  47.632 100.163  0.00  0.00    +0.121 A 
ATOM     22  C   LIG    1       67.930  48.942 100.620  0.00  0.00    +0.043 A 
ATOM     23  C   LIG    1       68.767  49.979 100.202  0.00  0.00    +0.005 A 
ATOM     24  C   LIG    1       69.841  49.685  99.388  0.00  0.00    +0.020 A 
ATOM     25  C   LIG    1       70.014  48.366  99.025  0.00  0.00    +0.113 A 
ATOM     26  N   LIG    1       69.175  47.360  99.379  0.00  0.00    -0.240 NA
ENDBRANCH  19  21
ENDBRANCH  18  19
ENDBRANCH  17  18
ENDBRANCH  16  17
ENDBRANCH   4  16
TORSDOF 7
ENDMDL
MODEL 3
REMARK VINA RESULT:      -6.2      0.984      2.106
REMARK  Name = 
REMARK                            x       y       z     vdW  Elec       q    Type
REMARK                         _______ _______ _______ _____ _____    ______ ____
ROOT
ATOM      1  C   LIG    1       67.533  45.333  97.567  0.00  0.00    -0.046 A 
ATOM      2  C   LIG    1       68.240  45.310  96.368  0.00  0.00    +0.007 A 
ATOM      3  C   LIG    1       67.844  46.097  95.293  0.00  0.00    +0.046 A 
ATOM      4  C   LIG    1       66.697  46.897  95.359  0.00  0.00    +0.121 A 
ATOM      5  C   LIG    1       65.963  46.902  96.544  0.00  0.00    +0.046 A 
ATOM      6  C   LIG    1       66.380  46.131  97.643  0.00  0.00    +0.007 A 
ENDROOT
BRANCH   1   7
ATOM      7  C   LIG    1       68.019  44.495  98.727  0.00  0.00    +0.059 C 
BRANCH   7  10
ATOM      8  O   LIG    1       67.839  45.105 101.930  0.00  0.00    -0.274 OA
ATOM      9  C   LIG    1       68.149  45.769 100.949  0.00  0.00    +0.232 C 
ATOM     10  C   LIG    1       68.902  45.257  99.726  0.00  0.00    +0.143 C 
ATOM     11  S   LIG    1       69.486  46.808  98.918  0.00  0.00    -0.089 S 
ATOM     12  C   LIG    1       68.485  47.832  99.912  0.00  0.00    +0.114 C 
ATOM     13  S   LIG    1       68.322  49.473  99.780  0.00  0.00    -0.028 S 
ATOM     14  N   LIG    1       67.851  47.097 100.856  0.00  0.00    -0.273 N 
ATOM     15  H   LIG    1       67.340  47.546 101.603  0.00  0.00    +0.156 HD
ENDBRANCH   7  10
ENDBRANCH   1   7
BRANCH   4  16
ATOM     16  O   LIG    1       66.234  47.687  94.320  0.00  0.00    -0.490 OA
BRANCH  16  17
ATOM     17  C   LIG    1       66.194  49.073  94.684  0.00  0.00    +0.248 C 
BRANCH  17  18
ATOM     18  C   LIG    1       67.173  49.523  95.760  0.00  0.00    +0.147 C 
BRANCH  18  19
ATOM     19  N   LIG    1       68.570  49.772  95.284  0.00  0.00    -0.315 N 
ATOM     20  C   LIG    1       69.567  49.457  96.318  0.00  0.00    +0.131 C 
BRANCH  19  21
ATOM     21  C   LIG    1       69.001  49.332  94.014  0.00  0.00    +0.121 A 
ATOM     22  C   LIG    1       69.924  48.292  93.875  0.00  0.00    +0.043 A 
ATOM     23  C   LIG    1       70.334  47.845  92.616  0.00  0.00    +0.005 A 
ATOM     24  C   LIG    1       69.751  48.388  91.490  0.00  0.00    +0.020 A 
ATOM     25  C   LIG    1       68.792  49.361  91.684  0.00  0.00    +0.113 A 
ATOM     26  N   LIG    1       68.427  49.842  92.900  0.00  0.00    -0.240 NA
ENDBRANCH  19  21
ENDBRANCH  18  19
ENDBRANCH  17  18
ENDBRANCH  16  17
ENDBRANCH   4  16
TORSDOF 7
ENDMDL
MODEL 4
REMARK VINA RESULT:      -5.8      2.295      6.172
REMARK  Name = 
REMARK                            x       y       z     vdW  Elec       q    Type
REMARK                         _______ _______ _______ _____ _____    ______ ____
ROOT
ATOM      1  C   LIG    1       66.835  46.139  96.543  0.00  0.00    -0.046 A 
ATOM      2  C   LIG    1       66.056  46.936  97.377  0.00  0.00    +0.007 A 
ATOM      3  C   LIG    1       65.858  46.593  98.709  0.00  0.00    +0.046 A 
ATOM      4  C   LIG    1       66.388  45.413  99.244  0.00  0.00    +0.121 A 
ATOM      5  C   LIG    1       67.142  44.590  98.409  0.00  0.00    +0.046 A 
ATOM      6  C   LIG    1       67.371  44.952  97.069  0.00  0.00    +0.007 A 
ENDROOT
BRANCH   1   7
ATOM      7  C   LIG    1       67.063  46.569  95.112  0.00  0.00    +0.059 C 
BRANCH   7  10
ATOM      8  O   LIG    1       65.916  49.492  94.213  0.00  0.00    -0.274 OA
ATOM      9  C   LIG    1       66.945  48.869  93.983  0.00  0.00    +0.232 C 
ATOM     10  C   LIG    1       67.681  47.967  94.966  0.00  0.00    +0.143 C 
ATOM     11  S   LIG    1       69.348  47.785  94.196  0.00  0.00    -0.089 S 
ATOM     12  C   LIG    1       68.844  48.487  92.683  0.00  0.00    +0.114 C 
ATOM     13  S   LIG    1       69.762  48.635  91.314  0.00  0.00    -0.028 S 
ATOM     14  N   LIG    1       67.569  48.934  92.772  0.00  0.00    -0.273 N 
ATOM     15  H   LIG    1       67.165  49.492  92.033  0.00  0.00    +0.156 HD
ENDBRANCH   7  10
ENDBRANCH   1   7
BRANCH   4  16
ATOM     16  O   LIG    1       66.211  44.999 100.553  0.00  0.00    -0.490 OA
BRANCH  16  17
ATOM     17  C   LIG    1       67.462  44.731 101.199  0.00  0.00    +0.248 C 
BRANCH  17  18
ATOM     18  C   LIG    1       68.268  45.941 101.651  0.00  0.00    +0.147 C 
BRANCH  18  19
ATOM     19  N   LIG    1       69.320  46.399 100.690  0.00  0.00    -0.315 N 
ATOM     20  C   LIG    1       69.875  45.283  99.909  0.00  0.00    +0.131 C 
BRANCH  19  21
ATOM     21  C   LIG    1       69.126  47.537  99.879  0.00  0.00    +0.121 A 
ATOM     22  C   LIG    1       69.643  47.608  98.582  0.00  0.00    +0.043 A 
ATOM     23  C   LIG    1       69.434  48.729  97.774  0.00  0.00    +0.005 A 
ATOM     24  C   LIG    1       68.627  49.747  98.238  0.00  0.00    +0.020 A 
ATOM     25  C   LIG    1       68.081  49.595  99.495  0.00  0.00    +0.113 A 
ATOM     26  N   LIG    1       68.324  48.537 100.311  0.00  0.00    -0.240 NA
ENDBRANCH  19  21
ENDBRANCH  18  19
ENDBRANCH  17  18
ENDBRANCH  16  17
ENDBRANCH   4  16
TORSDOF 7
ENDMDL
MODEL 5
REMARK VINA RESULT:      -5.8      2.684      6.551
REMARK  Name = 
REMARK                            x       y       z     vdW  Elec       q    Type
REMARK                         _______ _______ _______ _____ _____    ______ ____
ROOT
ATOM      1  C   LIG    1       68.934  49.136  97.767  0.00  0.00    -0.046 A 
ATOM      2  C   LIG    1       67.844  49.347  98.607  0.00  0.00    +0.007 A 
ATOM      3  C   LIG    1       67.730  48.663  99.812  0.00  0.00    +0.046 A 
ATOM      4  C   LIG    1       68.674  47.704 100.197  0.00  0.00    +0.121 A 
ATOM      5  C   LIG    1       69.752  47.461  99.348  0.00  0.00    +0.046 A 
ATOM      6  C   LIG    1       69.886  48.175  98.144  0.00  0.00    +0.007 A 
ENDROOT
BRANCH   1   7
ATOM      7  C   LIG    1       69.044  49.930  96.487  0.00  0.00    +0.059 C 
BRANCH   7  10
ATOM      8  O   LIG    1       70.749  50.881  93.868  0.00  0.00    -0.274 OA
ATOM      9  C   LIG    1       69.907  50.015  94.073  0.00  0.00    +0.232 C 
ATOM     10  C   LIG    1       69.765  49.193  95.349  0.00  0.00    +0.143 C 
ATOM     11  S   LIG    1       68.708  47.778  94.816  0.00  0.00    -0.089 S 
ATOM     12  C   LIG    1       68.296  48.518  93.293  0.00  0.00    +0.114 C 
ATOM     13  S   LIG    1       67.248  47.920  92.161  0.00  0.00    -0.028 S 
ATOM     14  N   LIG    1       68.980  49.676  93.131  0.00  0.00    -0.273 N 
ATOM     15  H   LIG    1       68.968  50.164  92.247  0.00  0.00    +0.156 HD
ENDBRANCH   7  10
ENDBRANCH   1   7
BRANCH   4  16
ATOM     16  O   LIG    1       68.610  46.971 101.370  0.00  0.00    -0.490 OA
BRANCH  16  17
ATOM     17  C   LIG    1       68.222  45.613 101.126  0.00  0.00    +0.248 C 
BRANCH  17  18
ATOM     18  C   LIG    1       68.209  45.159  99.673  0.00  0.00    +0.147 C 
BRANCH  18  19
ATOM     19  N   LIG    1       66.849  44.923  99.094  0.00  0.00    -0.315 N 
ATOM     20  C   LIG    1       65.779  45.345 100.011  0.00  0.00    +0.131 C 
BRANCH  19  21
ATOM     21  C   LIG    1       66.547  45.283  97.763  0.00  0.00    +0.121 A 
ATOM     22  C   LIG    1       66.021  46.540  97.448  0.00  0.00    +0.043 A 
ATOM     23  C   LIG    1       65.740  46.902  96.128  0.00  0.00    +0.005 A 
ATOM     24  C   LIG    1       66.069  46.030  95.110  0.00  0.00    +0.020 A 
ATOM     25  C   LIG    1       66.653  44.833  95.470  0.00  0.00    +0.113 A 
ATOM     26  N   LIG    1       66.878  44.448  96.752  0.00  0.00    -0.240 NA
ENDBRANCH  19  21
ENDBRANCH  18  19
ENDBRANCH  17  18
ENDBRANCH  16  17
ENDBRANCH   4  16
TORSDOF 7
ENDMDL
MODEL 6
REMARK VINA RESULT:      -5.8      2.746      6.536
REMARK  Name = 
REMARK                            x       y       z     vdW  Elec       q    Type
REMARK                         _______ _______ _______ _____ _____    ______ ____
ROOT
ATOM      1  C   LIG    1       69.659  49.023  96.151  0.00  0.00    -0.046 A 
ATOM      2  C   LIG    1       69.736  47.714  96.617  0.00  0.00    +0.007 A 
ATOM      3  C   LIG    1       69.518  47.421  97.959  0.00  0.00    +0.046 A 
ATOM      4  C   LIG    1       69.266  48.433  98.893  0.00  0.00    +0.121 A 
ATOM      5  C   LIG    1       69.220  49.751  98.443  0.00  0.00    +0.046 A 
ATOM      6  C   LIG    1       69.409  50.046  97.080  0.00  0.00    +0.007 A 
ENDROOT
BRANCH   1   7
ATOM      7  C   LIG    1       69.860  49.296  94.678  0.00  0.00    +0.059 C 
BRANCH   7  10
ATOM      8  O   LIG    1       66.922  50.317  95.674  0.00  0.00    -0.274 OA
ATOM      9  C   LIG    1       67.319  49.640  94.734  0.00  0.00    +0.232 C 
ATOM     10  C   LIG    1       68.618  49.853  93.966  0.00  0.00    +0.143 C 
ATOM     11  S   LIG    1       68.353  48.883  92.420  0.00  0.00    -0.089 S 
ATOM     12  C   LIG    1       66.928  48.090  93.034  0.00  0.00    +0.114 C 
ATOM     13  S   LIG    1       66.052  46.912  92.269  0.00  0.00    -0.028 S 
ATOM     14  N   LIG    1       66.597  48.588  94.249  0.00  0.00    -0.273 N 
ATOM     15  H   LIG    1       65.721  48.342  94.687  0.00  0.00    +0.156 HD
ENDBRANCH   7  10
ENDBRANCH   1   7
BRANCH   4  16
ATOM     16  O   LIG    1       69.063  48.215 100.245  0.00  0.00    -0.490 OA
BRANCH  16  17
ATOM     17  C   LIG    1       67.850  47.490 100.490  0.00  0.00    +0.248 C 
BRANCH  17  18
ATOM     18  C   LIG    1       67.974  45.978 100.613  0.00  0.00    +0.147 C 
BRANCH  18  19
ATOM     19  N   LIG    1       66.967  45.192  99.832  0.00  0.00    -0.315 N 
ATOM     20  C   LIG    1       65.618  45.300 100.409  0.00  0.00    +0.131 C 
BRANCH  19  21
ATOM     21  C   LIG    1       66.922  45.256  98.423  0.00  0.00    +0.121 A 
ATOM     22  C   LIG    1       66.120  46.189  97.758  0.00  0.00    +0.043 A 
ATOM     23  C   LIG    1       66.091  46.262  96.363  0.00  0.00    +0.005 A 
ATOM     24  C   LIG    1       66.936  45.452  95.633  0.00  0.00    +0.020 A 
ATOM     25  C   LIG    1       67.760  44.601  96.339  0.00  0.00    +0.113 A 
ATOM     26  N   LIG    1       67.756  44.481  97.691  0.00  0.00    -0.240 NA
ENDBRANCH  19  21
ENDBRANCH  18  19
ENDBRANCH  17  18
ENDBRANCH  16  17
ENDBRANCH   4  16
TORSDOF 7
ENDMDL
MODEL 7
REMARK VINA RESULT:      -5.8      1.847      2.921
REMARK  Name = 
REMARK                            x       y       z     vdW  Elec       q    Type
REMARK                         _______ _______ _______ _____ _____    ______ ____
ROOT
ATOM      1  C   LIG    1       68.477  45.417  97.805  0.00  0.00    -0.046 A 
ATOM      2  C   LIG    1       68.081  45.039  96.525  0.00  0.00    +0.007 A 
ATOM      3  C   LIG    1       68.615  45.659  95.402  0.00  0.00    +0.046 A 
ATOM      4  C   LIG    1       69.525  46.716  95.518  0.00  0.00    +0.121 A 
ATOM      5  C   LIG    1       69.903  47.126  96.795  0.00  0.00    +0.046 A 
ATOM      6  C   LIG    1       69.388  46.477  97.933  0.00  0.00    +0.007 A 
ENDROOT
BRANCH   1   7
ATOM      7  C   LIG    1       67.905  44.689  99.000  0.00  0.00    +0.059 C 
BRANCH   7  10
ATOM      8  O   LIG    1       65.291  46.636  98.799  0.00  0.00    -0.274 OA
ATOM      9  C   LIG    1       66.390  46.731  99.333  0.00  0.00    +0.232 C 
ATOM     10  C   LIG    1       67.162  45.594  99.993  0.00  0.00    +0.143 C 
ATOM     11  S   LIG    1       68.414  46.481 101.016  0.00  0.00    -0.089 S 
ATOM     12  C   LIG    1       68.093  48.022 100.268  0.00  0.00    +0.114 C 
ATOM     13  S   LIG    1       68.895  49.441 100.556  0.00  0.00    -0.028 S 
ATOM     14  N   LIG    1       67.054  47.920  99.405  0.00  0.00    -0.273 N 
ATOM     15  H   LIG    1       66.645  48.745  98.989  0.00  0.00    +0.156 HD
ENDBRANCH   7  10
ENDBRANCH   1   7
BRANCH   4  16
ATOM     16  O   LIG    1       70.078  47.393  94.444  0.00  0.00    -0.490 OA
BRANCH  16  17
ATOM     17  C   LIG    1       70.287  48.780  94.741  0.00  0.00    +0.248 C 
BRANCH  17  18
ATOM     18  C   LIG    1       70.019  49.766  93.613  0.00  0.00    +0.147 C 
BRANCH  18  19
ATOM     19  N   LIG    1       68.700  49.601  92.924  0.00  0.00    -0.315 N 
ATOM     20  C   LIG    1       68.861  49.201  91.518  0.00  0.00    +0.131 C 
BRANCH  19  21
ATOM     21  C   LIG    1       67.639  48.897  93.533  0.00  0.00    +0.121 A 
ATOM     22  C   LIG    1       67.086  47.756  92.944  0.00  0.00    +0.043 A 
ATOM     23  C   LIG    1       66.048  47.049  93.558  0.00  0.00    +0.005 A 
ATOM     24  C   LIG    1       65.622  47.440  94.810  0.00  0.00    +0.020 A 
ATOM     25  C   LIG    1       66.250  48.528  95.379  0.00  0.00    +0.113 A 
ATOM     26  N   LIG    1       67.219  49.255  94.768  0.00  0.00    -0.240 NA
ENDBRANCH  19  21
ENDBRANCH  18  19
ENDBRANCH  17  18
ENDBRANCH  16  17
ENDBRANCH   4  16
TORSDOF 7
ENDMDL
MODEL 8
REMARK VINA RESULT:      -5.8      1.867      2.597
REMARK  Name = 
REMARK                            x       y       z     vdW  Elec       q    Type
REMARK                         _______ _______ _______ _____ _____    ______ ____
ROOT
ATOM      1  C   LIG    1       66.275  46.898  96.637  0.00  0.00    -0.046 A 
ATOM      2  C   LIG    1       66.748  45.881  95.812  0.00  0.00    +0.007 A 
ATOM      3  C   LIG    1       67.040  46.126  94.475  0.00  0.00    +0.046 A 
ATOM      4  C   LIG    1       66.821  47.383  93.901  0.00  0.00    +0.121 A 
ATOM      5  C   LIG    1       66.316  48.400  94.709  0.00  0.00    +0.046 A 
ATOM      6  C   LIG    1       66.050  48.162  96.070  0.00  0.00    +0.007 A 
ENDROOT
BRANCH   1   7
ATOM      7  C   LIG    1       66.010  46.602  98.095  0.00  0.00    +0.059 C 
BRANCH   7  10
ATOM      8  O   LIG    1       65.066  44.078  99.941  0.00  0.00    -0.274 OA
ATOM      9  C   LIG    1       66.077  44.767  99.885  0.00  0.00    +0.232 C 
ATOM     10  C   LIG    1       66.702  45.335  98.616  0.00  0.00    +0.143 C 
ATOM     11  S   LIG    1       68.406  45.787  99.158  0.00  0.00    -0.089 S 
ATOM     12  C   LIG    1       68.040  45.580 100.849  0.00  0.00    +0.114 C 
ATOM     13  S   LIG    1       69.055  45.888 102.120  0.00  0.00    -0.028 S 
ATOM     14  N   LIG    1       66.784  45.097 101.004  0.00  0.00    -0.273 N 
ATOM     15  H   LIG    1       66.458  44.788 101.909  0.00  0.00    +0.156 HD
ENDBRANCH   7  10
ENDBRANCH   1   7
BRANCH   4  16
ATOM     16  O   LIG    1       67.068  47.689  92.573  0.00  0.00    -0.490 OA
BRANCH  16  17
ATOM     17  C   LIG    1       68.252  48.484  92.423  0.00  0.00    +0.248 C 
BRANCH  17  18
ATOM     18  C   LIG    1       69.505  47.977  93.123  0.00  0.00    +0.147 C 
BRANCH  18  19
ATOM     19  N   LIG    1       70.131  48.940  94.083  0.00  0.00    -0.315 N 
ATOM     20  C   LIG    1       70.329  50.266  93.479  0.00  0.00    +0.131 C 
BRANCH  19  21
ATOM     21  C   LIG    1       69.672  49.051  95.412  0.00  0.00    +0.121 A 
ATOM     22  C   LIG    1       69.954  48.071  96.368  0.00  0.00    +0.043 A 
ATOM     23  C   LIG    1       69.514  48.192  97.689  0.00  0.00    +0.005 A 
ATOM     24  C   LIG    1       68.860  49.345  98.073  0.00  0.00    +0.020 A 
ATOM     25  C   LIG    1       68.670  50.313  97.109  0.00  0.00    +0.113 A 
ATOM     26  N   LIG    1       69.044  50.181  95.811  0.00  0.00    -0.240 NA
ENDBRANCH  19  21
ENDBRANCH  18  19
ENDBRANCH  17  18
ENDBRANCH  16  17
ENDBRANCH   4  16
TORSDOF 7
ENDMDL
MODEL 9
REMARK VINA RESULT:      -5.7      2.058      3.927
REMARK  Name = 
REMARK                            x       y       z     vdW  Elec       q    Type
REMARK                         _______ _______ _______ _____ _____    ______ ____
ROOT
ATOM      1  C   LIG    1       69.842  49.195  96.755  0.00  0.00    -0.046 A 
ATOM      2  C   LIG    1       70.527  48.222  96.032  0.00  0.00    +0.007 A 
ATOM      3  C   LIG    1       70.521  48.230  94.642  0.00  0.00    +0.046 A 
ATOM      4  C   LIG    1       69.786  49.180  93.923  0.00  0.00    +0.121 A 
ATOM      5  C   LIG    1       69.069  50.139  94.637  0.00  0.00    +0.046 A 
ATOM      6  C   LIG    1       69.101  50.152  96.043  0.00  0.00    +0.007 A 
ENDROOT
BRANCH   1   7
ATOM      7  C   LIG    1       69.909  49.177  98.264  0.00  0.00    +0.059 C 
BRANCH   7  10
ATOM      8  O   LIG    1       68.806  49.986 101.230  0.00  0.00    -0.274 OA
ATOM      9  C   LIG    1       68.616  49.041 100.475  0.00  0.00    +0.232 C 
ATOM     10  C   LIG    1       68.539  49.115  98.955  0.00  0.00    +0.143 C 
ATOM     11  S   LIG    1       67.734  47.518  98.501  0.00  0.00    -0.089 S 
ATOM     12  C   LIG    1       67.919  46.846 100.098  0.00  0.00    +0.114 C 
ATOM     13  S   LIG    1       67.516  45.313 100.572  0.00  0.00    -0.028 S 
ATOM     14  N   LIG    1       68.431  47.773 100.943  0.00  0.00    -0.273 N 
ATOM     15  H   LIG    1       68.474  47.597 101.936  0.00  0.00    +0.156 HD
ENDBRANCH   7  10
ENDBRANCH   1   7
BRANCH   4  16
ATOM     16  O   LIG    1       69.717  49.233  92.541  0.00  0.00    -0.490 OA
BRANCH  16  17
ATOM     17  C   LIG    1       68.362  49.190  92.076  0.00  0.00    +0.248 C 
BRANCH  17  18
ATOM     18  C   LIG    1       67.531  47.990  92.509  0.00  0.00    +0.147 C 
BRANCH  18  19
ATOM     19  N   LIG    1       67.128  47.983  93.951  0.00  0.00    -0.315 N 
ATOM     20  C   LIG    1       65.920  48.789  94.188  0.00  0.00    +0.131 C 
BRANCH  19  21
ATOM     21  C   LIG    1       67.091  46.785  94.695  0.00  0.00    +0.121 A 
ATOM     22  C   LIG    1       68.263  46.122  95.072  0.00  0.00    +0.043 A 
ATOM     23  C   LIG    1       68.224  44.945  95.824  0.00  0.00    +0.005 A 
ATOM     24  C   LIG    1       67.007  44.478  96.274  0.00  0.00    +0.020 A 
ATOM     25  C   LIG    1       65.887  45.209  95.936  0.00  0.00    +0.113 A 
ATOM     26  N   LIG    1       65.908  46.321  95.159  0.00  0.00    -0.240 NA
ENDBRANCH  19  21
ENDBRANCH  18  19
ENDBRANCH  17  18
ENDBRANCH  16  17
ENDBRANCH   4  16
TORSDOF 7
ENDMDL
