MODEL 1
REMARK VINA RESULT:      -8.8      0.000      0.000
REMARK  Name = 
REMARK                            x       y       z     vdW  Elec       q    Type
REMARK                         _______ _______ _______ _____ _____    ______ ____
ROOT
ATOM      1  C   LIG    1       38.044  32.445   8.915  0.00  0.00    -0.046 A 
ATOM      2  C   LIG    1       38.560  32.685   7.645  0.00  0.00    +0.007 A 
ATOM      3  C   LIG    1       38.403  33.923   7.033  0.00  0.00    +0.046 A 
ATOM      4  C   LIG    1       37.679  34.951   7.647  0.00  0.00    +0.121 A 
ATOM      5  C   LIG    1       37.129  34.712   8.905  0.00  0.00    +0.046 A 
ATOM      6  C   LIG    1       37.314  33.470   9.539  0.00  0.00    +0.007 A 
ENDROOT
BRANCH   1   7
ATOM      7  C   LIG    1       38.273  31.100   9.564  0.00  0.00    +0.059 C 
BRANCH   7  10
ATOM      8  O   LIG    1       36.082  28.973   8.407  0.00  0.00    -0.274 OA
ATOM      9  C   LIG    1       37.243  28.884   8.787  0.00  0.00    +0.232 C 
ATOM     10  C   LIG    1       38.334  29.927   8.575  0.00  0.00    +0.143 C 
ATOM     11  S   LIG    1       39.883  28.979   8.895  0.00  0.00    -0.089 S 
ATOM     12  C   LIG    1       39.037  27.611   9.566  0.00  0.00    +0.114 C 
ATOM     13  S   LIG    1       39.722  26.258  10.227  0.00  0.00    -0.028 S 
ATOM     14  N   LIG    1       37.698  27.785   9.456  0.00  0.00    -0.273 N 
ATOM     15  H   LIG    1       37.060  27.031   9.667  0.00  0.00    +0.156 HD
ENDBRANCH   7  10
ENDBRANCH   1   7
BRANCH   4  16
ATOM     16  O   LIG    1       37.464  36.199   7.086  0.00  0.00    -0.490 OA
BRANCH  16  17
ATOM     17  C   LIG    1       37.750  36.206   5.682  0.00  0.00    +0.248 C 
BRANCH  17  18
ATOM     18  C   LIG    1       36.664  36.757   4.768  0.00  0.00    +0.147 C 
BRANCH  18  19
ATOM     19  N   LIG    1       36.253  35.850   3.650  0.00  0.00    -0.315 N 
ATOM     20  C   LIG    1       36.787  34.490   3.821  0.00  0.00    +0.131 C 
BRANCH  19  21
ATOM     21  C   LIG    1       34.921  35.817   3.186  0.00  0.00    +0.121 A 
ATOM     22  C   LIG    1       34.338  34.635   2.720  0.00  0.00    +0.043 A 
ATOM     23  C   LIG    1       33.013  34.600   2.279  0.00  0.00    +0.005 A 
ATOM     24  C   LIG    1       32.242  35.740   2.386  0.00  0.00    +0.020 A 
ATOM     25  C   LIG    1       32.844  36.860   2.921  0.00  0.00    +0.113 A 
ATOM     26  N   LIG    1       34.146  36.920   3.300  0.00  0.00    -0.240 NA
ENDBRANCH  19  21
ENDBRANCH  18  19
ENDBRANCH  17  18
ENDBRANCH  16  17
ENDBRANCH   4  16
TORSDOF 7
ENDMDL
MODEL 2
REMARK VINA RESULT:      -8.6      3.734     10.315
REMARK  Name = 
REMARK                            x       y       z     vdW  Elec       q    Type
REMARK                         _______ _______ _______ _____ _____    ______ ____
ROOT
ATOM      1  C   LIG    1       38.167  33.781   7.342  0.00  0.00    -0.046 A 
ATOM      2  C   LIG    1       37.386  33.109   8.278  0.00  0.00    +0.007 A 
ATOM      3  C   LIG    1       37.744  31.843   8.728  0.00  0.00    +0.046 A 
ATOM      4  C   LIG    1       38.868  31.182   8.220  0.00  0.00    +0.121 A 
ATOM      5  C   LIG    1       39.639  31.832   7.258  0.00  0.00    +0.046 A 
ATOM      6  C   LIG    1       39.295  33.126   6.825  0.00  0.00    +0.007 A 
ENDROOT
BRANCH   1   7
ATOM      7  C   LIG    1       37.767  35.174   6.911  0.00  0.00    +0.059 C 
BRANCH   7  10
ATOM      8  O   LIG    1       38.502  37.904   5.276  0.00  0.00    -0.274 OA
ATOM      9  C   LIG    1       37.788  36.935   5.047  0.00  0.00    +0.232 C 
ATOM     10  C   LIG    1       38.085  35.494   5.443  0.00  0.00    +0.143 C 
ATOM     11  S   LIG    1       36.935  34.524   4.377  0.00  0.00    -0.089 S 
ATOM     12  C   LIG    1       36.034  35.931   3.882  0.00  0.00    +0.114 C 
ATOM     13  S   LIG    1       34.682  35.947   2.928  0.00  0.00    -0.028 S 
ATOM     14  N   LIG    1       36.609  37.055   4.372  0.00  0.00    -0.273 N 
ATOM     15  H   LIG    1       36.300  37.967   4.069  0.00  0.00    +0.156 HD
ENDBRANCH   7  10
ENDBRANCH   1   7
BRANCH   4  16
ATOM     16  O   LIG    1       39.269  29.914   8.605  0.00  0.00    -0.490 OA
BRANCH  16  17
ATOM     17  C   LIG    1       38.549  29.457   9.757  0.00  0.00    +0.248 C 
BRANCH  17  18
ATOM     18  C   LIG    1       39.304  29.465  11.079  0.00  0.00    +0.147 C 
BRANCH  18  19
ATOM     19  N   LIG    1       40.624  28.758  11.062  0.00  0.00    -0.315 N 
ATOM     20  C   LIG    1       41.752  29.701  11.041  0.00  0.00    +0.131 C 
BRANCH  19  21
ATOM     21  C   LIG    1       40.885  27.675  11.928  0.00  0.00    +0.121 A 
ATOM     22  C   LIG    1       41.252  27.877  13.262  0.00  0.00    +0.043 A 
ATOM     23  C   LIG    1       41.493  26.803  14.123  0.00  0.00    +0.005 A 
ATOM     24  C   LIG    1       41.279  25.519  13.666  0.00  0.00    +0.020 A 
ATOM     25  C   LIG    1       40.847  25.377  12.364  0.00  0.00    +0.113 A 
ATOM     26  N   LIG    1       40.665  26.410  11.503  0.00  0.00    -0.240 NA
ENDBRANCH  19  21
ENDBRANCH  18  19
ENDBRANCH  17  18
ENDBRANCH  16  17
ENDBRANCH   4  16
TORSDOF 7
ENDMDL
MODEL 3
REMARK VINA RESULT:      -8.6      1.842      1.951
REMARK  Name = 
REMARK                            x       y       z     vdW  Elec       q    Type
REMARK                         _______ _______ _______ _____ _____    ______ ____
ROOT
ATOM      1  C   LIG    1       38.627  32.164   8.124  0.00  0.00    -0.046 A 
ATOM      2  C   LIG    1       39.207  32.783   7.021  0.00  0.00    +0.007 A 
ATOM      3  C   LIG    1       38.847  34.075   6.658  0.00  0.00    +0.046 A 
ATOM      4  C   LIG    1       37.855  34.777   7.353  0.00  0.00    +0.121 A 
ATOM      5  C   LIG    1       37.243  34.153   8.440  0.00  0.00    +0.046 A 
ATOM      6  C   LIG    1       37.630  32.858   8.828  0.00  0.00    +0.007 A 
ENDROOT
BRANCH   1   7
ATOM      7  C   LIG    1       39.077  30.774   8.512  0.00  0.00    +0.059 C 
BRANCH   7  10
ATOM      8  O   LIG    1       41.543  29.925   6.545  0.00  0.00    -0.274 OA
ATOM      9  C   LIG    1       41.248  29.671   7.707  0.00  0.00    +0.232 C 
ATOM     10  C   LIG    1       40.596  30.632   8.693  0.00  0.00    +0.143 C 
ATOM     11  S   LIG    1       40.913  29.833  10.325  0.00  0.00    -0.089 S 
ATOM     12  C   LIG    1       41.444  28.335   9.610  0.00  0.00    +0.114 C 
ATOM     13  S   LIG    1       41.861  26.953  10.419  0.00  0.00    -0.028 S 
ATOM     14  N   LIG    1       41.499  28.450   8.261  0.00  0.00    -0.273 N 
ATOM     15  H   LIG    1       41.919  27.724   7.699  0.00  0.00    +0.156 HD
ENDBRANCH   7  10
ENDBRANCH   1   7
BRANCH   4  16
ATOM     16  O   LIG    1       37.431  36.056   7.032  0.00  0.00    -0.490 OA
BRANCH  16  17
ATOM     17  C   LIG    1       37.714  36.381   5.665  0.00  0.00    +0.248 C 
BRANCH  17  18
ATOM     18  C   LIG    1       36.539  36.852   4.820  0.00  0.00    +0.147 C 
BRANCH  18  19
ATOM     19  N   LIG    1       36.192  35.968   3.663  0.00  0.00    -0.315 N 
ATOM     20  C   LIG    1       36.801  34.635   3.789  0.00  0.00    +0.131 C 
BRANCH  19  21
ATOM     21  C   LIG    1       34.869  35.877   3.182  0.00  0.00    +0.121 A 
ATOM     22  C   LIG    1       34.343  34.670   2.713  0.00  0.00    +0.043 A 
ATOM     23  C   LIG    1       33.026  34.578   2.254  0.00  0.00    +0.005 A 
ATOM     24  C   LIG    1       32.207  35.684   2.346  0.00  0.00    +0.020 A 
ATOM     25  C   LIG    1       32.754  36.830   2.884  0.00  0.00    +0.113 A 
ATOM     26  N   LIG    1       34.046  36.946   3.280  0.00  0.00    -0.240 NA
ENDBRANCH  19  21
ENDBRANCH  18  19
ENDBRANCH  17  18
ENDBRANCH  16  17
ENDBRANCH   4  16
TORSDOF 7
ENDMDL
MODEL 4
REMARK VINA RESULT:      -8.4      3.722     10.024
REMARK  Name = 
REMARK                            x       y       z     vdW  Elec       q    Type
REMARK                         _______ _______ _______ _____ _____    ______ ____
ROOT
ATOM      1  C   LIG    1       38.232  33.610   7.255  0.00  0.00    -0.046 A 
ATOM      2  C   LIG    1       39.398  33.157   6.644  0.00  0.00    +0.007 A 
ATOM      3  C   LIG    1       39.907  31.895   6.928  0.00  0.00    +0.046 A 
ATOM      4  C   LIG    1       39.298  31.060   7.871  0.00  0.00    +0.121 A 
ATOM      5  C   LIG    1       38.148  31.517   8.513  0.00  0.00    +0.046 A 
ATOM      6  C   LIG    1       37.614  32.781   8.204  0.00  0.00    +0.007 A 
ENDROOT
BRANCH   1   7
ATOM      7  C   LIG    1       37.687  34.971   6.887  0.00  0.00    +0.059 C 
BRANCH   7  10
ATOM      8  O   LIG    1       38.375  37.850   5.507  0.00  0.00    -0.274 OA
ATOM      9  C   LIG    1       37.699  36.883   5.178  0.00  0.00    +0.232 C 
ATOM     10  C   LIG    1       38.032  35.423   5.461  0.00  0.00    +0.143 C 
ATOM     11  S   LIG    1       36.941  34.512   4.285  0.00  0.00    -0.089 S 
ATOM     12  C   LIG    1       36.008  35.928   3.884  0.00  0.00    +0.114 C 
ATOM     13  S   LIG    1       34.681  35.983   2.897  0.00  0.00    -0.028 S 
ATOM     14  N   LIG    1       36.534  37.024   4.482  0.00  0.00    -0.273 N 
ATOM     15  H   LIG    1       36.202  37.949   4.248  0.00  0.00    +0.156 HD
ENDBRANCH   7  10
ENDBRANCH   1   7
BRANCH   4  16
ATOM     16  O   LIG    1       39.764  29.803   8.218  0.00  0.00    -0.490 OA
BRANCH  16  17
ATOM     17  C   LIG    1       41.120  29.848   8.681  0.00  0.00    +0.248 C 
BRANCH  17  18
ATOM     18  C   LIG    1       41.339  30.358  10.098  0.00  0.00    +0.147 C 
BRANCH  18  19
ATOM     19  N   LIG    1       41.231  29.319  11.171  0.00  0.00    -0.315 N 
ATOM     20  C   LIG    1       39.893  29.296  11.781  0.00  0.00    +0.131 C 
BRANCH  19  21
ATOM     21  C   LIG    1       41.722  28.011  10.975  0.00  0.00    +0.121 A 
ATOM     22  C   LIG    1       43.091  27.730  11.016  0.00  0.00    +0.043 A 
ATOM     23  C   LIG    1       43.574  26.431  10.839  0.00  0.00    +0.005 A 
ATOM     24  C   LIG    1       42.673  25.394  10.707  0.00  0.00    +0.020 A 
ATOM     25  C   LIG    1       41.333  25.716  10.747  0.00  0.00    +0.113 A 
ATOM     26  N   LIG    1       40.854  26.980  10.861  0.00  0.00    -0.240 NA
ENDBRANCH  19  21
ENDBRANCH  18  19
ENDBRANCH  17  18
ENDBRANCH  16  17
ENDBRANCH   4  16
TORSDOF 7
ENDMDL
MODEL 5
REMARK VINA RESULT:      -8.3      3.765     10.093
REMARK  Name = 
REMARK                            x       y       z     vdW  Elec       q    Type
REMARK                         _______ _______ _______ _____ _____    ______ ____
ROOT
ATOM      1  C   LIG    1       38.334  33.386   7.146  0.00  0.00    -0.046 A 
ATOM      2  C   LIG    1       39.468  32.984   6.445  0.00  0.00    +0.007 A 
ATOM      3  C   LIG    1       40.031  31.732   6.659  0.00  0.00    +0.046 A 
ATOM      4  C   LIG    1       39.512  30.855   7.619  0.00  0.00    +0.121 A 
ATOM      5  C   LIG    1       38.397  31.260   8.350  0.00  0.00    +0.046 A 
ATOM      6  C   LIG    1       37.807  32.515   8.112  0.00  0.00    +0.007 A 
ENDROOT
BRANCH   1   7
ATOM      7  C   LIG    1       37.727  34.739   6.854  0.00  0.00    +0.059 C 
BRANCH   7  10
ATOM      8  O   LIG    1       38.408  37.712   5.685  0.00  0.00    -0.274 OA
ATOM      9  C   LIG    1       37.731  36.771   5.289  0.00  0.00    +0.232 C 
ATOM     10  C   LIG    1       38.067  35.294   5.463  0.00  0.00    +0.143 C 
ATOM     11  S   LIG    1       36.973  34.470   4.227  0.00  0.00    -0.089 S 
ATOM     12  C   LIG    1       36.037  35.911   3.934  0.00  0.00    +0.114 C 
ATOM     13  S   LIG    1       34.707  36.038   2.958  0.00  0.00    -0.028 S 
ATOM     14  N   LIG    1       36.564  36.961   4.608  0.00  0.00    -0.273 N 
ATOM     15  H   LIG    1       36.232  37.900   4.443  0.00  0.00    +0.156 HD
ENDBRANCH   7  10
ENDBRANCH   1   7
BRANCH   4  16
ATOM     16  O   LIG    1       40.036  29.604   7.900  0.00  0.00    -0.490 OA
BRANCH  16  17
ATOM     17  C   LIG    1       39.427  29.021   9.059  0.00  0.00    +0.248 C 
BRANCH  17  18
ATOM     18  C   LIG    1       39.777  27.570   9.356  0.00  0.00    +0.147 C 
BRANCH  18  19
ATOM     19  N   LIG    1       40.047  27.262  10.796  0.00  0.00    -0.315 N 
ATOM     20  C   LIG    1       40.152  25.816  11.038  0.00  0.00    +0.131 C 
BRANCH  19  21
ATOM     21  C   LIG    1       41.025  27.971  11.525  0.00  0.00    +0.121 A 
ATOM     22  C   LIG    1       40.765  28.470  12.805  0.00  0.00    +0.043 A 
ATOM     23  C   LIG    1       41.741  29.155  13.533  0.00  0.00    +0.005 A 
ATOM     24  C   LIG    1       43.012  29.266  13.008  0.00  0.00    +0.020 A 
ATOM     25  C   LIG    1       43.236  28.693  11.774  0.00  0.00    +0.113 A 
ATOM     26  N   LIG    1       42.281  28.075  11.034  0.00  0.00    -0.240 NA
ENDBRANCH  19  21
ENDBRANCH  18  19
ENDBRANCH  17  18
ENDBRANCH  16  17
ENDBRANCH   4  16
TORSDOF 7
ENDMDL
MODEL 6
REMARK VINA RESULT:      -8.3      4.247      9.125
REMARK  Name = 
REMARK                            x       y       z     vdW  Elec       q    Type
REMARK                         _______ _______ _______ _____ _____    ______ ____
ROOT
ATOM      1  C   LIG    1       37.666  29.960   8.732  0.00  0.00    -0.046 A 
ATOM      2  C   LIG    1       37.753  29.776  10.109  0.00  0.00    +0.007 A 
ATOM      3  C   LIG    1       38.188  28.567  10.640  0.00  0.00    +0.046 A 
ATOM      4  C   LIG    1       38.502  27.481   9.815  0.00  0.00    +0.121 A 
ATOM      5  C   LIG    1       38.387  27.644   8.436  0.00  0.00    +0.046 A 
ATOM      6  C   LIG    1       37.978  28.876   7.895  0.00  0.00    +0.007 A 
ENDROOT
BRANCH   1   7
ATOM      7  C   LIG    1       37.231  31.303   8.193  0.00  0.00    +0.059 C 
BRANCH   7  10
ATOM      8  O   LIG    1       37.045  33.697  10.407  0.00  0.00    -0.274 OA
ATOM      9  C   LIG    1       37.412  33.637   9.240  0.00  0.00    +0.232 C 
ATOM     10  C   LIG    1       38.147  32.469   8.593  0.00  0.00    +0.143 C 
ATOM     11  S   LIG    1       38.842  33.215   7.056  0.00  0.00    -0.089 S 
ATOM     12  C   LIG    1       37.895  34.670   7.204  0.00  0.00    +0.114 C 
ATOM     13  S   LIG    1       37.840  35.921   6.123  0.00  0.00    -0.028 S 
ATOM     14  N   LIG    1       37.201  34.665   8.367  0.00  0.00    -0.273 N 
ATOM     15  H   LIG    1       36.710  35.490   8.679  0.00  0.00    +0.156 HD
ENDBRANCH   7  10
ENDBRANCH   1   7
BRANCH   4  16
ATOM     16  O   LIG    1       38.919  26.243  10.277  0.00  0.00    -0.490 OA
BRANCH  16  17
ATOM     17  C   LIG    1       40.133  26.340  11.033  0.00  0.00    +0.248 C 
BRANCH  17  18
ATOM     18  C   LIG    1       41.406  25.879  10.338  0.00  0.00    +0.147 C 
BRANCH  18  19
ATOM     19  N   LIG    1       42.411  26.956  10.071  0.00  0.00    -0.315 N 
ATOM     20  C   LIG    1       43.686  26.410   9.581  0.00  0.00    +0.131 C 
BRANCH  19  21
ATOM     21  C   LIG    1       42.059  28.129   9.370  0.00  0.00    +0.121 A 
ATOM     22  C   LIG    1       41.962  28.145   7.975  0.00  0.00    +0.043 A 
ATOM     23  C   LIG    1       41.595  29.302   7.283  0.00  0.00    +0.005 A 
ATOM     24  C   LIG    1       41.240  30.426   8.000  0.00  0.00    +0.020 A 
ATOM     25  C   LIG    1       41.282  30.335   9.375  0.00  0.00    +0.113 A 
ATOM     26  N   LIG    1       41.691  29.235  10.056  0.00  0.00    -0.240 NA
ENDBRANCH  19  21
ENDBRANCH  18  19
ENDBRANCH  17  18
ENDBRANCH  16  17
ENDBRANCH   4  16
TORSDOF 7
ENDMDL
MODEL 7
REMARK VINA RESULT:      -8.3      4.857     10.565
REMARK  Name = 
REMARK                            x       y       z     vdW  Elec       q    Type
REMARK                         _______ _______ _______ _____ _____    ______ ____
ROOT
ATOM      1  C   LIG    1       40.962  30.473   9.925  0.00  0.00    -0.046 A 
ATOM      2  C   LIG    1       39.745  29.967  10.371  0.00  0.00    +0.007 A 
ATOM      3  C   LIG    1       39.661  29.266  11.568  0.00  0.00    +0.046 A 
ATOM      4  C   LIG    1       40.799  29.000  12.338  0.00  0.00    +0.121 A 
ATOM      5  C   LIG    1       42.029  29.474  11.884  0.00  0.00    +0.046 A 
ATOM      6  C   LIG    1       42.111  30.211  10.688  0.00  0.00    +0.007 A 
ENDROOT
BRANCH   1   7
ATOM      7  C   LIG    1       41.005  31.267   8.639  0.00  0.00    +0.059 C 
BRANCH   7  10
ATOM      8  O   LIG    1       40.591  30.558   5.478  0.00  0.00    -0.274 OA
ATOM      9  C   LIG    1       40.053  31.333   6.259  0.00  0.00    +0.232 C 
ATOM     10  C   LIG    1       39.780  31.068   7.735  0.00  0.00    +0.143 C 
ATOM     11  S   LIG    1       38.528  32.351   8.165  0.00  0.00    -0.089 S 
ATOM     12  C   LIG    1       38.757  33.228   6.677  0.00  0.00    +0.114 C 
ATOM     13  S   LIG    1       38.037  34.658   6.257  0.00  0.00    -0.028 S 
ATOM     14  N   LIG    1       39.610  32.561   5.863  0.00  0.00    -0.273 N 
ATOM     15  H   LIG    1       39.747  32.855   4.907  0.00  0.00    +0.156 HD
ENDBRANCH   7  10
ENDBRANCH   1   7
BRANCH   4  16
ATOM     16  O   LIG    1       40.791  28.290  13.526  0.00  0.00    -0.490 OA
BRANCH  16  17
ATOM     17  C   LIG    1       42.065  27.690  13.795  0.00  0.00    +0.248 C 
BRANCH  17  18
ATOM     18  C   LIG    1       42.066  26.197  14.092  0.00  0.00    +0.147 C 
BRANCH  18  19
ATOM     19  N   LIG    1       42.152  25.310  12.889  0.00  0.00    -0.315 N 
ATOM     20  C   LIG    1       41.112  24.269  12.899  0.00  0.00    +0.131 C 
BRANCH  19  21
ATOM     21  C   LIG    1       42.321  25.845  11.595  0.00  0.00    +0.121 A 
ATOM     22  C   LIG    1       43.591  26.113  11.075  0.00  0.00    +0.043 A 
ATOM     23  C   LIG    1       43.757  26.627   9.786  0.00  0.00    +0.005 A 
ATOM     24  C   LIG    1       42.648  26.791   8.983  0.00  0.00    +0.020 A 
ATOM     25  C   LIG    1       41.425  26.443   9.518  0.00  0.00    +0.113 A 
ATOM     26  N   LIG    1       41.246  25.997  10.788  0.00  0.00    -0.240 NA
ENDBRANCH  19  21
ENDBRANCH  18  19
ENDBRANCH  17  18
ENDBRANCH  16  17
ENDBRANCH   4  16
TORSDOF 7
ENDMDL
MODEL 8
REMARK VINA RESULT:      -8.3      3.012      5.076
REMARK  Name = 
REMARK                            x       y       z     vdW  Elec       q    Type
REMARK                         _______ _______ _______ _____ _____    ______ ____
ROOT
ATOM      1  C   LIG    1       40.734  28.289   9.521  0.00  0.00    -0.046 A 
ATOM      2  C   LIG    1       40.600  29.186  10.577  0.00  0.00    +0.007 A 
ATOM      3  C   LIG    1       39.561  30.109  10.601  0.00  0.00    +0.046 A 
ATOM      4  C   LIG    1       38.648  30.204   9.545  0.00  0.00    +0.121 A 
ATOM      5  C   LIG    1       38.792  29.334   8.466  0.00  0.00    +0.046 A 
ATOM      6  C   LIG    1       39.824  28.378   8.456  0.00  0.00    +0.007 A 
ENDROOT
BRANCH   1   7
ATOM      7  C   LIG    1       41.852  27.272   9.553  0.00  0.00    +0.059 C 
BRANCH   7  10
ATOM      8  O   LIG    1       39.015  25.882  10.383  0.00  0.00    -0.274 OA
ATOM      9  C   LIG    1       40.122  25.948  10.905  0.00  0.00    +0.232 C 
ATOM     10  C   LIG    1       41.458  25.924  10.172  0.00  0.00    +0.143 C 
ATOM     11  S   LIG    1       42.661  25.529  11.513  0.00  0.00    -0.089 S 
ATOM     12  C   LIG    1       41.498  25.792  12.783  0.00  0.00    +0.114 C 
ATOM     13  S   LIG    1       41.789  25.732  14.411  0.00  0.00    -0.028 S 
ATOM     14  N   LIG    1       40.274  26.039  12.258  0.00  0.00    -0.273 N 
ATOM     15  H   LIG    1       39.456  26.077  12.850  0.00  0.00    +0.156 HD
ENDBRANCH   7  10
ENDBRANCH   1   7
BRANCH   4  16
ATOM     16  O   LIG    1       37.605  31.114   9.493  0.00  0.00    -0.490 OA
BRANCH  16  17
ATOM     17  C   LIG    1       38.081  32.462   9.384  0.00  0.00    +0.248 C 
BRANCH  17  18
ATOM     18  C   LIG    1       37.457  33.318   8.291  0.00  0.00    +0.147 C 
BRANCH  18  19
ATOM     19  N   LIG    1       38.423  33.879   7.294  0.00  0.00    -0.315 N 
ATOM     20  C   LIG    1       39.284  32.837   6.716  0.00  0.00    +0.131 C 
BRANCH  19  21
ATOM     21  C   LIG    1       38.004  34.796   6.306  0.00  0.00    +0.121 A 
ATOM     22  C   LIG    1       38.220  36.171   6.446  0.00  0.00    +0.043 A 
ATOM     23  C   LIG    1       37.822  37.075   5.459  0.00  0.00    +0.005 A 
ATOM     24  C   LIG    1       37.282  36.591   4.286  0.00  0.00    +0.020 A 
ATOM     25  C   LIG    1       37.157  35.222   4.168  0.00  0.00    +0.113 A 
ATOM     26  N   LIG    1       37.489  34.338   5.143  0.00  0.00    -0.240 NA
ENDBRANCH  19  21
ENDBRANCH  18  19
ENDBRANCH  17  18
ENDBRANCH  16  17
ENDBRANCH   4  16
TORSDOF 7
ENDMDL
MODEL 9
REMARK VINA RESULT:      -8.2      3.344      5.260
REMARK  Name = 
REMARK                            x       y       z     vdW  Elec       q    Type
REMARK                         _______ _______ _______ _____ _____    ______ ____
ROOT
ATOM      1  C   LIG    1       40.105  29.018  11.313  0.00  0.00    -0.046 A 
ATOM      2  C   LIG    1       38.802  28.598  11.058  0.00  0.00    +0.007 A 
ATOM      3  C   LIG    1       37.964  29.338  10.232  0.00  0.00    +0.046 A 
ATOM      4  C   LIG    1       38.380  30.551   9.672  0.00  0.00    +0.121 A 
ATOM      5  C   LIG    1       39.671  30.998   9.947  0.00  0.00    +0.046 A 
ATOM      6  C   LIG    1       40.531  30.234  10.757  0.00  0.00    +0.007 A 
ENDROOT
BRANCH   1   7
ATOM      7  C   LIG    1       40.999  28.163  12.181  0.00  0.00    +0.059 C 
BRANCH   7  10
ATOM      8  O   LIG    1       42.070  25.360  13.471  0.00  0.00    -0.274 OA
ATOM      9  C   LIG    1       42.281  25.955  12.421  0.00  0.00    +0.232 C 
ATOM     10  C   LIG    1       41.255  26.754  11.626  0.00  0.00    +0.143 C 
ATOM     11  S   LIG    1       42.049  26.920   9.970  0.00  0.00    -0.089 S 
ATOM     12  C   LIG    1       43.595  26.347  10.534  0.00  0.00    +0.114 C 
ATOM     13  S   LIG    1       44.992  26.257   9.651  0.00  0.00    -0.028 S 
ATOM     14  N   LIG    1       43.508  25.948  11.825  0.00  0.00    -0.273 N 
ATOM     15  H   LIG    1       44.274  25.460  12.267  0.00  0.00    +0.156 HD
ENDBRANCH   7  10
ENDBRANCH   1   7
BRANCH   4  16
ATOM     16  O   LIG    1       37.590  31.349   8.861  0.00  0.00    -0.490 OA
BRANCH  16  17
ATOM     17  C   LIG    1       37.729  32.738   9.186  0.00  0.00    +0.248 C 
BRANCH  17  18
ATOM     18  C   LIG    1       37.216  33.733   8.154  0.00  0.00    +0.147 C 
BRANCH  18  19
ATOM     19  N   LIG    1       38.256  34.277   7.224  0.00  0.00    -0.315 N 
ATOM     20  C   LIG    1       39.183  33.232   6.765  0.00  0.00    +0.131 C 
BRANCH  19  21
ATOM     21  C   LIG    1       37.910  35.147   6.169  0.00  0.00    +0.121 A 
ATOM     22  C   LIG    1       38.216  36.511   6.215  0.00  0.00    +0.043 A 
ATOM     23  C   LIG    1       37.890  37.367   5.160  0.00  0.00    +0.005 A 
ATOM     24  C   LIG    1       37.330  36.837   4.016  0.00  0.00    +0.020 A 
ATOM     25  C   LIG    1       37.115  35.475   3.993  0.00  0.00    +0.113 A 
ATOM     26  N   LIG    1       37.377  34.643   5.033  0.00  0.00    -0.240 NA
ENDBRANCH  19  21
ENDBRANCH  18  19
ENDBRANCH  17  18
ENDBRANCH  16  17
ENDBRANCH   4  16
TORSDOF 7
ENDMDL
