MODEL 1
REMARK VINA RESULT:      -7.9      0.000      0.000
REMARK  Name = 
REMARK                            x       y       z     vdW  Elec       q    Type
REMARK                         _______ _______ _______ _____ _____    ______ ____
ROOT
ATOM      1  C   LIG    1        7.044  -2.351  20.428  0.00  0.00    -0.046 A 
ATOM      2  C   LIG    1        6.735  -1.589  19.305  0.00  0.00    +0.007 A 
ATOM      3  C   LIG    1        5.419  -1.250  19.014  0.00  0.00    +0.046 A 
ATOM      4  C   LIG    1        4.358  -1.703  19.806  0.00  0.00    +0.121 A 
ATOM      5  C   LIG    1        4.653  -2.494  20.915  0.00  0.00    +0.046 A 
ATOM      6  C   LIG    1        5.987  -2.812  21.229  0.00  0.00    +0.007 A 
ENDROOT
BRANCH   1   7
ATOM      7  C   LIG    1        8.491  -2.662  20.734  0.00  0.00    +0.059 C 
BRANCH   7  10
ATOM      8  O   LIG    1        8.281  -4.442  23.465  0.00  0.00    -0.274 OA
ATOM      9  C   LIG    1        9.091  -4.374  22.548  0.00  0.00    +0.232 C 
ATOM     10  C   LIG    1        8.758  -4.134  21.079  0.00  0.00    +0.143 C 
ATOM     11  S   LIG    1       10.298  -4.662  20.213  0.00  0.00    -0.089 S 
ATOM     12  C   LIG    1       11.225  -4.752  21.685  0.00  0.00    +0.114 C 
ATOM     13  S   LIG    1       12.840  -5.092  21.811  0.00  0.00    -0.028 S 
ATOM     14  N   LIG    1       10.430  -4.526  22.758  0.00  0.00    -0.273 N 
ATOM     15  H   LIG    1       10.773  -4.677  23.696  0.00  0.00    +0.156 HD
ENDBRANCH   7  10
ENDBRANCH   1   7
BRANCH   4  16
ATOM     16  O   LIG    1        3.024  -1.423  19.562  0.00  0.00    -0.490 OA
BRANCH  16  17
ATOM     17  C   LIG    1        2.155  -2.244  20.353  0.00  0.00    +0.248 C 
BRANCH  17  18
ATOM     18  C   LIG    1        1.183  -1.518  21.272  0.00  0.00    +0.147 C 
BRANCH  18  19
ATOM     19  N   LIG    1        1.673  -1.295  22.669  0.00  0.00    -0.315 N 
ATOM     20  C   LIG    1        1.791   0.135  22.988  0.00  0.00    +0.131 C 
BRANCH  19  21
ATOM     21  C   LIG    1        1.135  -2.014  23.757  0.00  0.00    +0.121 A 
ATOM     22  C   LIG    1        0.386  -1.381  24.753  0.00  0.00    +0.043 A 
ATOM     23  C   LIG    1       -0.162  -2.098  25.820  0.00  0.00    +0.005 A 
ATOM     24  C   LIG    1       -0.030  -3.471  25.841  0.00  0.00    +0.020 A 
ATOM     25  C   LIG    1        0.655  -4.055  24.796  0.00  0.00    +0.113 A 
ATOM     26  N   LIG    1        1.239  -3.363  23.785  0.00  0.00    -0.240 NA
ENDBRANCH  19  21
ENDBRANCH  18  19
ENDBRANCH  17  18
ENDBRANCH  16  17
ENDBRANCH   4  16
TORSDOF 7
ENDMDL
MODEL 2
REMARK VINA RESULT:      -7.8      2.238      2.426
REMARK  Name = 
REMARK                            x       y       z     vdW  Elec       q    Type
REMARK                         _______ _______ _______ _____ _____    ______ ____
ROOT
ATOM      1  C   LIG    1        7.678  -2.167  19.493  0.00  0.00    -0.046 A 
ATOM      2  C   LIG    1        6.538  -1.797  18.785  0.00  0.00    +0.007 A 
ATOM      3  C   LIG    1        5.285  -1.828  19.387  0.00  0.00    +0.046 A 
ATOM      4  C   LIG    1        5.119  -2.280  20.701  0.00  0.00    +0.121 A 
ATOM      5  C   LIG    1        6.250  -2.685  21.408  0.00  0.00    +0.046 A 
ATOM      6  C   LIG    1        7.523  -2.624  20.811  0.00  0.00    +0.007 A 
ENDROOT
BRANCH   1   7
ATOM      7  C   LIG    1        9.027  -2.079  18.817  0.00  0.00    +0.059 C 
BRANCH   7  10
ATOM      8  O   LIG    1       10.809  -4.307  20.407  0.00  0.00    -0.274 OA
ATOM      9  C   LIG    1       10.842  -3.831  19.279  0.00  0.00    +0.232 C 
ATOM     10  C   LIG    1        9.632  -3.439  18.439  0.00  0.00    +0.143 C 
ATOM     11  S   LIG    1       10.332  -3.309  16.738  0.00  0.00    -0.089 S 
ATOM     12  C   LIG    1       11.982  -3.383  17.293  0.00  0.00    +0.114 C 
ATOM     13  S   LIG    1       13.340  -3.236  16.360  0.00  0.00    -0.028 S 
ATOM     14  N   LIG    1       12.020  -3.607  18.628  0.00  0.00    -0.273 N 
ATOM     15  H   LIG    1       12.893  -3.816  19.091  0.00  0.00    +0.156 HD
ENDBRANCH   7  10
ENDBRANCH   1   7
BRANCH   4  16
ATOM     16  O   LIG    1        3.900  -2.359  21.353  0.00  0.00    -0.490 OA
BRANCH  16  17
ATOM     17  C   LIG    1        2.826  -1.890  20.527  0.00  0.00    +0.248 C 
BRANCH  17  18
ATOM     18  C   LIG    1        1.500  -1.619  21.223  0.00  0.00    +0.147 C 
BRANCH  18  19
ATOM     19  N   LIG    1        1.610  -1.162  22.645  0.00  0.00    -0.315 N 
ATOM     20  C   LIG    1        1.215   0.246  22.801  0.00  0.00    +0.131 C 
BRANCH  19  21
ATOM     21  C   LIG    1        1.114  -1.948  23.707  0.00  0.00    +0.121 A 
ATOM     22  C   LIG    1        0.385  -1.383  24.757  0.00  0.00    +0.043 A 
ATOM     23  C   LIG    1       -0.120  -2.166  25.798  0.00  0.00    +0.005 A 
ATOM     24  C   LIG    1        0.033  -3.535  25.741  0.00  0.00    +0.020 A 
ATOM     25  C   LIG    1        0.697  -4.050  24.646  0.00  0.00    +0.113 A 
ATOM     26  N   LIG    1        1.241  -3.295  23.659  0.00  0.00    -0.240 NA
ENDBRANCH  19  21
ENDBRANCH  18  19
ENDBRANCH  17  18
ENDBRANCH  16  17
ENDBRANCH   4  16
TORSDOF 7
ENDMDL
MODEL 3
REMARK VINA RESULT:      -7.6      3.129      4.393
REMARK  Name = 
REMARK                            x       y       z     vdW  Elec       q    Type
REMARK                         _______ _______ _______ _____ _____    ______ ____
ROOT
ATOM      1  C   LIG    1        8.483  -4.131  22.934  0.00  0.00    -0.046 A 
ATOM      2  C   LIG    1        7.717  -5.146  22.368  0.00  0.00    +0.007 A 
ATOM      3  C   LIG    1        6.707  -4.855  21.458  0.00  0.00    +0.046 A 
ATOM      4  C   LIG    1        6.391  -3.534  21.120  0.00  0.00    +0.121 A 
ATOM      5  C   LIG    1        7.130  -2.507  21.706  0.00  0.00    +0.046 A 
ATOM      6  C   LIG    1        8.173  -2.802  22.603  0.00  0.00    +0.007 A 
ENDROOT
BRANCH   1   7
ATOM      7  C   LIG    1        9.600  -4.492  23.886  0.00  0.00    +0.059 C 
BRANCH   7  10
ATOM      8  O   LIG    1       12.297  -2.941  24.880  0.00  0.00    -0.274 OA
ATOM      9  C   LIG    1       11.331  -3.431  25.452  0.00  0.00    +0.232 C 
ATOM     10  C   LIG    1        9.894  -3.420  24.946  0.00  0.00    +0.143 C 
ATOM     11  S   LIG    1        8.917  -3.819  26.459  0.00  0.00    -0.089 S 
ATOM     12  C   LIG    1       10.324  -4.283  27.376  0.00  0.00    +0.114 C 
ATOM     13  S   LIG    1       10.337  -4.897  28.913  0.00  0.00    -0.028 S 
ATOM     14  N   LIG    1       11.451  -4.049  26.662  0.00  0.00    -0.273 N 
ATOM     15  H   LIG    1       12.361  -4.130  27.093  0.00  0.00    +0.156 HD
ENDBRANCH   7  10
ENDBRANCH   1   7
BRANCH   4  16
ATOM     16  O   LIG    1        5.385  -3.171  20.241  0.00  0.00    -0.490 OA
BRANCH  16  17
ATOM     17  C   LIG    1        5.610  -1.870  19.684  0.00  0.00    +0.248 C 
BRANCH  17  18
ATOM     18  C   LIG    1        4.386  -1.130  19.163  0.00  0.00    +0.147 C 
BRANCH  18  19
ATOM     19  N   LIG    1        4.044   0.129  19.897  0.00  0.00    -0.315 N 
ATOM     20  C   LIG    1        3.769   1.243  18.977  0.00  0.00    +0.131 C 
BRANCH  19  21
ATOM     21  C   LIG    1        3.133   0.125  20.974  0.00  0.00    +0.121 A 
ATOM     22  C   LIG    1        2.926   1.261  21.762  0.00  0.00    +0.043 A 
ATOM     23  C   LIG    1        2.010   1.260  22.817  0.00  0.00    +0.005 A 
ATOM     24  C   LIG    1        1.235   0.139  23.029  0.00  0.00    +0.020 A 
ATOM     25  C   LIG    1        1.426  -0.929  22.178  0.00  0.00    +0.113 A 
ATOM     26  N   LIG    1        2.353  -0.960  21.186  0.00  0.00    -0.240 NA
ENDBRANCH  19  21
ENDBRANCH  18  19
ENDBRANCH  17  18
ENDBRANCH  16  17
ENDBRANCH   4  16
TORSDOF 7
ENDMDL
MODEL 4
REMARK VINA RESULT:      -7.5      4.599      8.939
REMARK  Name = 
REMARK                            x       y       z     vdW  Elec       q    Type
REMARK                         _______ _______ _______ _____ _____    ______ ____
ROOT
ATOM      1  C   LIG    1        6.034  -1.565  20.118  0.00  0.00    -0.046 A 
ATOM      2  C   LIG    1        7.010  -1.301  21.074  0.00  0.00    +0.007 A 
ATOM      3  C   LIG    1        7.546  -2.325  21.847  0.00  0.00    +0.046 A 
ATOM      4  C   LIG    1        7.087  -3.642  21.728  0.00  0.00    +0.121 A 
ATOM      5  C   LIG    1        6.086  -3.912  20.797  0.00  0.00    +0.046 A 
ATOM      6  C   LIG    1        5.566  -2.883  19.992  0.00  0.00    +0.007 A 
ENDROOT
BRANCH   1   7
ATOM      7  C   LIG    1        5.508  -0.431  19.268  0.00  0.00    +0.059 C 
BRANCH   7  10
ATOM      8  O   LIG    1        3.337   1.511  17.790  0.00  0.00    -0.274 OA
ATOM      9  C   LIG    1        3.598   1.252  18.958  0.00  0.00    +0.232 C 
ATOM     10  C   LIG    1        4.024  -0.108  19.498  0.00  0.00    +0.143 C 
ATOM     11  S   LIG    1        3.742   0.057  21.313  0.00  0.00    -0.089 S 
ATOM     12  C   LIG    1        3.505   1.781  21.229  0.00  0.00    +0.114 C 
ATOM     13  S   LIG    1        3.269   2.805  22.508  0.00  0.00    -0.028 S 
ATOM     14  N   LIG    1        3.514   2.196  19.940  0.00  0.00    -0.273 N 
ATOM     15  H   LIG    1        3.253   3.142  19.700  0.00  0.00    +0.156 HD
ENDBRANCH   7  10
ENDBRANCH   1   7
BRANCH   4  16
ATOM     16  O   LIG    1        7.559  -4.705  22.481  0.00  0.00    -0.490 OA
BRANCH  16  17
ATOM     17  C   LIG    1        8.989  -4.793  22.435  0.00  0.00    +0.248 C 
BRANCH  17  18
ATOM     18  C   LIG    1        9.606  -5.179  21.098  0.00  0.00    +0.147 C 
BRANCH  18  19
ATOM     19  N   LIG    1       10.637  -4.229  20.576  0.00  0.00    -0.315 N 
ATOM     20  C   LIG    1       12.003  -4.665  20.903  0.00  0.00    +0.131 C 
BRANCH  19  21
ATOM     21  C   LIG    1       10.569  -3.725  19.259  0.00  0.00    +0.121 A 
ATOM     22  C   LIG    1        9.450  -3.022  18.803  0.00  0.00    +0.043 A 
ATOM     23  C   LIG    1        9.391  -2.508  17.505  0.00  0.00    +0.005 A 
ATOM     24  C   LIG    1       10.497  -2.626  16.688  0.00  0.00    +0.020 A 
ATOM     25  C   LIG    1       11.602  -3.264  17.212  0.00  0.00    +0.113 A 
ATOM     26  N   LIG    1       11.649  -3.816  18.450  0.00  0.00    -0.240 NA
ENDBRANCH  19  21
ENDBRANCH  18  19
ENDBRANCH  17  18
ENDBRANCH  16  17
ENDBRANCH   4  16
TORSDOF 7
ENDMDL
MODEL 5
REMARK VINA RESULT:      -7.5      4.807      7.433
REMARK  Name = 
REMARK                            x       y       z     vdW  Elec       q    Type
REMARK                         _______ _______ _______ _____ _____    ______ ____
ROOT
ATOM      1  C   LIG    1        9.558  -3.777  26.190  0.00  0.00    -0.046 A 
ATOM      2  C   LIG    1        8.359  -3.855  25.487  0.00  0.00    +0.007 A 
ATOM      3  C   LIG    1        8.351  -4.077  24.115  0.00  0.00    +0.046 A 
ATOM      4  C   LIG    1        9.542  -4.178  23.387  0.00  0.00    +0.121 A 
ATOM      5  C   LIG    1       10.749  -4.068  24.076  0.00  0.00    +0.046 A 
ATOM      6  C   LIG    1       10.759  -3.875  25.469  0.00  0.00    +0.007 A 
ENDROOT
BRANCH   1   7
ATOM      7  C   LIG    1        9.524  -3.579  27.688  0.00  0.00    +0.059 C 
BRANCH   7  10
ATOM      8  O   LIG    1        6.356  -4.364  27.808  0.00  0.00    -0.274 OA
ATOM      9  C   LIG    1        7.244  -4.260  28.645  0.00  0.00    +0.232 C 
ATOM     10  C   LIG    1        8.708  -4.636  28.445  0.00  0.00    +0.143 C 
ATOM     11  S   LIG    1        9.351  -4.739  30.171  0.00  0.00    -0.089 S 
ATOM     12  C   LIG    1        7.934  -3.994  30.858  0.00  0.00    +0.114 C 
ATOM     13  S   LIG    1        7.704  -3.601  32.449  0.00  0.00    -0.028 S 
ATOM     14  N   LIG    1        6.997  -3.789  29.901  0.00  0.00    -0.273 N 
ATOM     15  H   LIG    1        6.063  -3.495  30.148  0.00  0.00    +0.156 HD
ENDBRANCH   7  10
ENDBRANCH   1   7
BRANCH   4  16
ATOM     16  O   LIG    1        9.607  -4.375  22.018  0.00  0.00    -0.490 OA
BRANCH  16  17
ATOM     17  C   LIG    1        8.374  -4.031  21.373  0.00  0.00    +0.248 C 
BRANCH  17  18
ATOM     18  C   LIG    1        8.468  -3.081  20.187  0.00  0.00    +0.147 C 
BRANCH  18  19
ATOM     19  N   LIG    1        7.635  -1.842  20.297  0.00  0.00    -0.315 N 
ATOM     20  C   LIG    1        8.277  -0.689  19.648  0.00  0.00    +0.131 C 
BRANCH  19  21
ATOM     21  C   LIG    1        6.249  -1.865  20.033  0.00  0.00    +0.121 A 
ATOM     22  C   LIG    1        5.751  -1.782  18.729  0.00  0.00    +0.043 A 
ATOM     23  C   LIG    1        4.379  -1.824  18.468  0.00  0.00    +0.005 A 
ATOM     24  C   LIG    1        3.506  -2.037  19.515  0.00  0.00    +0.020 A 
ATOM     25  C   LIG    1        4.053  -2.186  20.772  0.00  0.00    +0.113 A 
ATOM     26  N   LIG    1        5.379  -2.091  21.044  0.00  0.00    -0.240 NA
ENDBRANCH  19  21
ENDBRANCH  18  19
ENDBRANCH  17  18
ENDBRANCH  16  17
ENDBRANCH   4  16
TORSDOF 7
ENDMDL
MODEL 6
REMARK VINA RESULT:      -7.5      4.556      7.980
REMARK  Name = 
REMARK                            x       y       z     vdW  Elec       q    Type
REMARK                         _______ _______ _______ _____ _____    ______ ____
ROOT
ATOM      1  C   LIG    1        5.986  -1.572  19.977  0.00  0.00    -0.046 A 
ATOM      2  C   LIG    1        7.002  -1.165  20.837  0.00  0.00    +0.007 A 
ATOM      3  C   LIG    1        7.613  -2.069  21.697  0.00  0.00    +0.046 A 
ATOM      4  C   LIG    1        7.195  -3.403  21.767  0.00  0.00    +0.121 A 
ATOM      5  C   LIG    1        6.155  -3.815  20.934  0.00  0.00    +0.046 A 
ATOM      6  C   LIG    1        5.558  -2.908  20.040  0.00  0.00    +0.007 A 
ENDROOT
BRANCH   1   7
ATOM      7  C   LIG    1        5.377  -0.568  19.026  0.00  0.00    +0.059 C 
BRANCH   7  10
ATOM      8  O   LIG    1        3.273   1.657  17.889  0.00  0.00    -0.274 OA
ATOM      9  C   LIG    1        3.540   1.222  19.003  0.00  0.00    +0.232 C 
ATOM     10  C   LIG    1        3.913  -0.218  19.333  0.00  0.00    +0.143 C 
ATOM     11  S   LIG    1        3.667  -0.304  21.159  0.00  0.00    -0.089 S 
ATOM     12  C   LIG    1        3.507   1.423  21.327  0.00  0.00    +0.114 C 
ATOM     13  S   LIG    1        3.337   2.261  22.744  0.00  0.00    -0.028 S 
ATOM     14  N   LIG    1        3.515   2.018  20.110  0.00  0.00    -0.273 N 
ATOM     15  H   LIG    1        3.293   2.999  20.014  0.00  0.00    +0.156 HD
ENDBRANCH   7  10
ENDBRANCH   1   7
BRANCH   4  16
ATOM     16  O   LIG    1        7.742  -4.351  22.616  0.00  0.00    -0.490 OA
BRANCH  16  17
ATOM     17  C   LIG    1        8.730  -3.778  23.483  0.00  0.00    +0.248 C 
BRANCH  17  18
ATOM     18  C   LIG    1        8.421  -3.800  24.974  0.00  0.00    +0.147 C 
BRANCH  18  19
ATOM     19  N   LIG    1        9.590  -4.098  25.861  0.00  0.00    -0.315 N 
ATOM     20  C   LIG    1       10.684  -3.134  25.671  0.00  0.00    +0.131 C 
BRANCH  19  21
ATOM     21  C   LIG    1        9.413  -4.400  27.228  0.00  0.00    +0.121 A 
ATOM     22  C   LIG    1       10.499  -4.487  28.104  0.00  0.00    +0.043 A 
ATOM     23  C   LIG    1       10.320  -4.769  29.461  0.00  0.00    +0.005 A 
ATOM     24  C   LIG    1        9.038  -4.879  29.958  0.00  0.00    +0.020 A 
ATOM     25  C   LIG    1        8.000  -4.712  29.066  0.00  0.00    +0.113 A 
ATOM     26  N   LIG    1        8.163  -4.495  27.736  0.00  0.00    -0.240 NA
ENDBRANCH  19  21
ENDBRANCH  18  19
ENDBRANCH  17  18
ENDBRANCH  16  17
ENDBRANCH   4  16
TORSDOF 7
ENDMDL
MODEL 7
REMARK VINA RESULT:      -7.4      5.439      7.923
REMARK  Name = 
REMARK                            x       y       z     vdW  Elec       q    Type
REMARK                         _______ _______ _______ _____ _____    ______ ____
ROOT
ATOM      1  C   LIG    1        9.994  -4.233  27.287  0.00  0.00    -0.046 A 
ATOM      2  C   LIG    1        8.652  -4.333  26.931  0.00  0.00    +0.007 A 
ATOM      3  C   LIG    1        8.252  -4.179  25.609  0.00  0.00    +0.046 A 
ATOM      4  C   LIG    1        9.172  -3.868  24.602  0.00  0.00    +0.121 A 
ATOM      5  C   LIG    1       10.515  -3.732  24.952  0.00  0.00    +0.046 A 
ATOM      6  C   LIG    1       10.925  -3.919  26.284  0.00  0.00    +0.007 A 
ENDROOT
BRANCH   1   7
ATOM      7  C   LIG    1       10.394  -4.449  28.728  0.00  0.00    +0.059 C 
BRANCH   7  10
ATOM      8  O   LIG    1       11.153  -1.290  29.063  0.00  0.00    -0.274 OA
ATOM      9  C   LIG    1       10.966  -2.213  29.846  0.00  0.00    +0.232 C 
ATOM     10  C   LIG    1        9.944  -3.332  29.681  0.00  0.00    +0.143 C 
ATOM     11  S   LIG    1        9.819  -4.036  31.381  0.00  0.00    -0.089 S 
ATOM     12  C   LIG    1       11.216  -3.170  31.959  0.00  0.00    +0.114 C 
ATOM     13  S   LIG    1       11.902  -3.301  33.460  0.00  0.00    -0.028 S 
ATOM     14  N   LIG    1       11.678  -2.328  31.004  0.00  0.00    -0.273 N 
ATOM     15  H   LIG    1       12.395  -1.649  31.217  0.00  0.00    +0.156 HD
ENDBRANCH   7  10
ENDBRANCH   1   7
BRANCH   4  16
ATOM     16  O   LIG    1        8.840  -3.679  23.271  0.00  0.00    -0.490 OA
BRANCH  16  17
ATOM     17  C   LIG    1        7.607  -4.328  22.934  0.00  0.00    +0.248 C 
BRANCH  17  18
ATOM     18  C   LIG    1        7.181  -4.265  21.474  0.00  0.00    +0.147 C 
BRANCH  18  19
ATOM     19  N   LIG    1        7.104  -2.887  20.893  0.00  0.00    -0.315 N 
ATOM     20  C   LIG    1        8.264  -2.585  20.042  0.00  0.00    +0.131 C 
BRANCH  19  21
ATOM     21  C   LIG    1        5.911  -2.402  20.316  0.00  0.00    +0.121 A 
ATOM     22  C   LIG    1        5.846  -2.037  18.968  0.00  0.00    +0.043 A 
ATOM     23  C   LIG    1        4.660  -1.574  18.394  0.00  0.00    +0.005 A 
ATOM     24  C   LIG    1        3.510  -1.558  19.156  0.00  0.00    +0.020 A 
ATOM     25  C   LIG    1        3.612  -1.997  20.460  0.00  0.00    +0.113 A 
ATOM     26  N   LIG    1        4.770  -2.395  21.044  0.00  0.00    -0.240 NA
ENDBRANCH  19  21
ENDBRANCH  18  19
ENDBRANCH  17  18
ENDBRANCH  16  17
ENDBRANCH   4  16
TORSDOF 7
ENDMDL
MODEL 8
REMARK VINA RESULT:      -7.4      3.449      4.648
REMARK  Name = 
REMARK                            x       y       z     vdW  Elec       q    Type
REMARK                         _______ _______ _______ _____ _____    ______ ____
ROOT
ATOM      1  C   LIG    1        7.725  -2.071  19.458  0.00  0.00    -0.046 A 
ATOM      2  C   LIG    1        7.595  -2.371  20.811  0.00  0.00    +0.007 A 
ATOM      3  C   LIG    1        6.340  -2.468  21.402  0.00  0.00    +0.046 A 
ATOM      4  C   LIG    1        5.171  -2.216  20.674  0.00  0.00    +0.121 A 
ATOM      5  C   LIG    1        5.291  -1.882  19.326  0.00  0.00    +0.046 A 
ATOM      6  C   LIG    1        6.558  -1.816  18.719  0.00  0.00    +0.007 A 
ENDROOT
BRANCH   1   7
ATOM      7  C   LIG    1        9.104  -2.018  18.842  0.00  0.00    +0.059 C 
BRANCH   7  10
ATOM      8  O   LIG    1       10.850  -4.280  20.424  0.00  0.00    -0.274 OA
ATOM      9  C   LIG    1       10.885  -3.807  19.294  0.00  0.00    +0.232 C 
ATOM     10  C   LIG    1        9.677  -3.391  18.463  0.00  0.00    +0.143 C 
ATOM     11  S   LIG    1       10.365  -3.280  16.756  0.00  0.00    -0.089 S 
ATOM     12  C   LIG    1       12.018  -3.388  17.298  0.00  0.00    +0.114 C 
ATOM     13  S   LIG    1       13.372  -3.272  16.354  0.00  0.00    -0.028 S 
ATOM     14  N   LIG    1       12.062  -3.610  18.633  0.00  0.00    -0.273 N 
ATOM     15  H   LIG    1       12.934  -3.837  19.090  0.00  0.00    +0.156 HD
ENDBRANCH   7  10
ENDBRANCH   1   7
BRANCH   4  16
ATOM     16  O   LIG    1        3.893  -2.272  21.204  0.00  0.00    -0.490 OA
BRANCH  16  17
ATOM     17  C   LIG    1        3.070  -1.205  20.716  0.00  0.00    +0.248 C 
BRANCH  17  18
ATOM     18  C   LIG    1        2.901  -0.001  21.633  0.00  0.00    +0.147 C 
BRANCH  18  19
ATOM     19  N   LIG    1        3.529   1.266  21.141  0.00  0.00    -0.315 N 
ATOM     20  C   LIG    1        3.566   1.326  19.672  0.00  0.00    +0.131 C 
BRANCH  19  21
ATOM     21  C   LIG    1        3.179   2.517  21.690  0.00  0.00    +0.121 A 
ATOM     22  C   LIG    1        2.806   3.594  20.880  0.00  0.00    +0.043 A 
ATOM     23  C   LIG    1        2.442   4.827  21.427  0.00  0.00    +0.005 A 
ATOM     24  C   LIG    1        2.368   4.955  22.798  0.00  0.00    +0.020 A 
ATOM     25  C   LIG    1        2.675   3.841  23.552  0.00  0.00    +0.113 A 
ATOM     26  N   LIG    1        3.084   2.656  23.033  0.00  0.00    -0.240 NA
ENDBRANCH  19  21
ENDBRANCH  18  19
ENDBRANCH  17  18
ENDBRANCH  16  17
ENDBRANCH   4  16
TORSDOF 7
ENDMDL
MODEL 9
REMARK VINA RESULT:      -7.4      4.353      6.606
REMARK  Name = 
REMARK                            x       y       z     vdW  Elec       q    Type
REMARK                         _______ _______ _______ _____ _____    ______ ____
ROOT
ATOM      1  C   LIG    1       10.396  -3.877  24.898  0.00  0.00    -0.046 A 
ATOM      2  C   LIG    1        9.041  -3.564  24.947  0.00  0.00    +0.007 A 
ATOM      3  C   LIG    1        8.223  -3.767  23.841  0.00  0.00    +0.046 A 
ATOM      4  C   LIG    1        8.740  -4.240  22.630  0.00  0.00    +0.121 A 
ATOM      5  C   LIG    1       10.102  -4.526  22.559  0.00  0.00    +0.046 A 
ATOM      6  C   LIG    1       10.925  -4.352  23.687  0.00  0.00    +0.007 A 
ENDROOT
BRANCH   1   7
ATOM      7  C   LIG    1       11.244  -3.684  26.134  0.00  0.00    +0.059 C 
BRANCH   7  10
ATOM      8  O   LIG    1       13.997  -2.474  24.861  0.00  0.00    -0.274 OA
ATOM      9  C   LIG    1       13.454  -2.396  25.956  0.00  0.00    +0.232 C 
ATOM     10  C   LIG    1       11.952  -2.323  26.205  0.00  0.00    +0.143 C 
ATOM     11  S   LIG    1       11.847  -1.705  27.939  0.00  0.00    -0.089 S 
ATOM     12  C   LIG    1       13.545  -1.951  28.245  0.00  0.00    +0.114 C 
ATOM     13  S   LIG    1       14.329  -1.717  29.683  0.00  0.00    -0.028 S 
ATOM     14  N   LIG    1       14.175  -2.350  27.114  0.00  0.00    -0.273 N 
ATOM     15  H   LIG    1       15.182  -2.404  27.076  0.00  0.00    +0.156 HD
ENDBRANCH   7  10
ENDBRANCH   1   7
BRANCH   4  16
ATOM     16  O   LIG    1        7.987  -4.443  21.485  0.00  0.00    -0.490 OA
BRANCH  16  17
ATOM     17  C   LIG    1        6.622  -4.046  21.670  0.00  0.00    +0.248 C 
BRANCH  17  18
ATOM     18  C   LIG    1        5.945  -3.367  20.488  0.00  0.00    +0.147 C 
BRANCH  18  19
ATOM     19  N   LIG    1        6.382  -1.959  20.226  0.00  0.00    -0.315 N 
ATOM     20  C   LIG    1        7.457  -1.896  19.224  0.00  0.00    +0.131 C 
BRANCH  19  21
ATOM     21  C   LIG    1        5.443  -0.926  20.028  0.00  0.00    +0.121 A 
ATOM     22  C   LIG    1        5.190  -0.400  18.757  0.00  0.00    +0.043 A 
ATOM     23  C   LIG    1        4.246   0.611  18.561  0.00  0.00    +0.005 A 
ATOM     24  C   LIG    1        3.489   1.037  19.633  0.00  0.00    +0.020 A 
ATOM     25  C   LIG    1        3.727   0.435  20.851  0.00  0.00    +0.113 A 
ATOM     26  N   LIG    1        4.680  -0.507  21.064  0.00  0.00    -0.240 NA
ENDBRANCH  19  21
ENDBRANCH  18  19
ENDBRANCH  17  18
ENDBRANCH  16  17
ENDBRANCH   4  16
TORSDOF 7
ENDMDL
