MODEL 1
REMARK VINA RESULT:      -8.5      0.000      0.000
REMARK  Name = 
REMARK                            x       y       z     vdW  Elec       q    Type
REMARK                         _______ _______ _______ _____ _____    ______ ____
ROOT
ATOM      1  C   LIG    1       10.210   1.242  30.319  0.00  0.00    -0.046 A 
ATOM      2  C   LIG    1       10.840   1.457  29.096  0.00  0.00    +0.007 A 
ATOM      3  C   LIG    1       10.113   1.457  27.911  0.00  0.00    +0.046 A 
ATOM      4  C   LIG    1        8.739   1.190  27.900  0.00  0.00    +0.121 A 
ATOM      5  C   LIG    1        8.104   0.940  29.115  0.00  0.00    +0.046 A 
ATOM      6  C   LIG    1        8.833   0.971  30.318  0.00  0.00    +0.007 A 
ENDROOT
BRANCH   1   7
ATOM      7  C   LIG    1       11.028   1.292  31.588  0.00  0.00    +0.059 C 
BRANCH   7  10
ATOM      8  O   LIG    1       12.141   4.312  32.146  0.00  0.00    -0.274 OA
ATOM      9  C   LIG    1       11.764   3.393  32.862  0.00  0.00    +0.232 C 
ATOM     10  C   LIG    1       10.631   2.423  32.548  0.00  0.00    +0.143 C 
ATOM     11  S   LIG    1       10.251   1.680  34.193  0.00  0.00    -0.089 S 
ATOM     12  C   LIG    1       11.682   2.336  34.941  0.00  0.00    +0.114 C 
ATOM     13  S   LIG    1       12.194   2.063  36.490  0.00  0.00    -0.028 S 
ATOM     14  N   LIG    1       12.337   3.145  34.075  0.00  0.00    -0.273 N 
ATOM     15  H   LIG    1       13.110   3.716  34.387  0.00  0.00    +0.156 HD
ENDBRANCH   7  10
ENDBRANCH   1   7
BRANCH   4  16
ATOM     16  O   LIG    1        7.959   1.152  26.756  0.00  0.00    -0.490 OA
BRANCH  16  17
ATOM     17  C   LIG    1        6.645   1.675  26.991  0.00  0.00    +0.248 C 
BRANCH  17  18
ATOM     18  C   LIG    1        6.302   2.989  26.305  0.00  0.00    +0.147 C 
BRANCH  18  19
ATOM     19  N   LIG    1        6.974   4.199  26.877  0.00  0.00    -0.315 N 
ATOM     20  C   LIG    1        8.090   4.657  26.035  0.00  0.00    +0.131 C 
BRANCH  19  21
ATOM     21  C   LIG    1        6.225   5.291  27.363  0.00  0.00    +0.121 A 
ATOM     22  C   LIG    1        5.083   5.103  28.148  0.00  0.00    +0.043 A 
ATOM     23  C   LIG    1        4.353   6.187  28.644  0.00  0.00    +0.005 A 
ATOM     24  C   LIG    1        4.821   7.466  28.423  0.00  0.00    +0.020 A 
ATOM     25  C   LIG    1        5.991   7.594  27.705  0.00  0.00    +0.113 A 
ATOM     26  N   LIG    1        6.678   6.552  27.171  0.00  0.00    -0.240 NA
ENDBRANCH  19  21
ENDBRANCH  18  19
ENDBRANCH  17  18
ENDBRANCH  16  17
ENDBRANCH   4  16
TORSDOF 7
ENDMDL
MODEL 2
REMARK VINA RESULT:      -8.1      3.516      8.223
REMARK  Name = 
REMARK                            x       y       z     vdW  Elec       q    Type
REMARK                         _______ _______ _______ _____ _____    ______ ____
ROOT
ATOM      1  C   LIG    1        9.198   4.324  26.900  0.00  0.00    -0.046 A 
ATOM      2  C   LIG    1       10.251   4.386  27.807  0.00  0.00    +0.007 A 
ATOM      3  C   LIG    1       10.572   3.291  28.602  0.00  0.00    +0.046 A 
ATOM      4  C   LIG    1        9.818   2.113  28.557  0.00  0.00    +0.121 A 
ATOM      5  C   LIG    1        8.740   2.052  27.675  0.00  0.00    +0.046 A 
ATOM      6  C   LIG    1        8.434   3.147  26.847  0.00  0.00    +0.007 A 
ENDROOT
BRANCH   1   7
ATOM      7  C   LIG    1        8.908   5.520  26.022  0.00  0.00    +0.059 C 
BRANCH   7  10
ATOM      8  O   LIG    1        7.220   7.468  24.017  0.00  0.00    -0.274 OA
ATOM      9  C   LIG    1        7.110   7.151  25.195  0.00  0.00    +0.232 C 
ATOM     10  C   LIG    1        7.414   5.777  25.781  0.00  0.00    +0.143 C 
ATOM     11  S   LIG    1        6.564   5.826  27.418  0.00  0.00    -0.089 S 
ATOM     12  C   LIG    1        6.276   7.543  27.338  0.00  0.00    +0.114 C 
ATOM     13  S   LIG    1        5.595   8.481  28.519  0.00  0.00    -0.028 S 
ATOM     14  N   LIG    1        6.672   8.033  26.139  0.00  0.00    -0.273 N 
ATOM     15  H   LIG    1        6.451   8.981  25.870  0.00  0.00    +0.156 HD
ENDBRANCH   7  10
ENDBRANCH   1   7
BRANCH   4  16
ATOM     16  O   LIG    1       10.066   0.995  29.336  0.00  0.00    -0.490 OA
BRANCH  16  17
ATOM     17  C   LIG    1       11.007   1.275  30.380  0.00  0.00    +0.248 C 
BRANCH  17  18
ATOM     18  C   LIG    1       10.429   1.550  31.762  0.00  0.00    +0.147 C 
BRANCH  18  19
ATOM     19  N   LIG    1       11.327   2.312  32.686  0.00  0.00    -0.315 N 
ATOM     20  C   LIG    1       11.436   3.728  32.303  0.00  0.00    +0.131 C 
BRANCH  19  21
ATOM     21  C   LIG    1       11.224   2.173  34.086  0.00  0.00    +0.121 A 
ATOM     22  C   LIG    1       10.120   1.554  34.680  0.00  0.00    +0.043 A 
ATOM     23  C   LIG    1       10.028   1.401  36.066  0.00  0.00    +0.005 A 
ATOM     24  C   LIG    1       11.090   1.793  36.855  0.00  0.00    +0.020 A 
ATOM     25  C   LIG    1       12.186   2.330  36.213  0.00  0.00    +0.113 A 
ATOM     26  N   LIG    1       12.263   2.536  34.874  0.00  0.00    -0.240 NA
ENDBRANCH  19  21
ENDBRANCH  18  19
ENDBRANCH  17  18
ENDBRANCH  16  17
ENDBRANCH   4  16
TORSDOF 7
ENDMDL
MODEL 3
REMARK VINA RESULT:      -7.7      3.306      7.868
REMARK  Name = 
REMARK                            x       y       z     vdW  Elec       q    Type
REMARK                         _______ _______ _______ _____ _____    ______ ____
ROOT
ATOM      1  C   LIG    1        7.861   1.555  27.715  0.00  0.00    -0.046 A 
ATOM      2  C   LIG    1        7.696   1.610  29.096  0.00  0.00    +0.007 A 
ATOM      3  C   LIG    1        8.791   1.520  29.948  0.00  0.00    +0.046 A 
ATOM      4  C   LIG    1       10.084   1.319  29.453  0.00  0.00    +0.121 A 
ATOM      5  C   LIG    1       10.257   1.229  28.073  0.00  0.00    +0.046 A 
ATOM      6  C   LIG    1        9.155   1.352  27.208  0.00  0.00    +0.007 A 
ENDROOT
BRANCH   1   7
ATOM      7  C   LIG    1        6.652   1.700  26.820  0.00  0.00    +0.059 C 
BRANCH   7  10
ATOM      8  O   LIG    1        8.654   4.244  26.390  0.00  0.00    -0.274 OA
ATOM      9  C   LIG    1        7.483   4.125  26.727  0.00  0.00    +0.232 C 
ATOM     10  C   LIG    1        6.500   3.092  26.188  0.00  0.00    +0.143 C 
ATOM     11  S   LIG    1        4.862   3.778  26.685  0.00  0.00    -0.089 S 
ATOM     12  C   LIG    1        5.561   4.974  27.742  0.00  0.00    +0.114 C 
ATOM     13  S   LIG    1        4.737   6.027  28.716  0.00  0.00    -0.028 S 
ATOM     14  N   LIG    1        6.913   4.952  27.649  0.00  0.00    -0.273 N 
ATOM     15  H   LIG    1        7.471   5.671  28.087  0.00  0.00    +0.156 HD
ENDBRANCH   7  10
ENDBRANCH   1   7
BRANCH   4  16
ATOM     16  O   LIG    1       11.214   1.197  30.245  0.00  0.00    -0.490 OA
BRANCH  16  17
ATOM     17  C   LIG    1       11.894   2.451  30.395  0.00  0.00    +0.248 C 
BRANCH  17  18
ATOM     18  C   LIG    1       11.466   3.320  31.569  0.00  0.00    +0.147 C 
BRANCH  18  19
ATOM     19  N   LIG    1       12.310   3.188  32.799  0.00  0.00    -0.315 N 
ATOM     20  C   LIG    1       13.033   4.431  33.106  0.00  0.00    +0.131 C 
BRANCH  19  21
ATOM     21  C   LIG    1       11.803   2.593  33.974  0.00  0.00    +0.121 A 
ATOM     22  C   LIG    1       12.536   2.585  35.165  0.00  0.00    +0.043 A 
ATOM     23  C   LIG    1       12.025   2.012  36.332  0.00  0.00    +0.005 A 
ATOM     24  C   LIG    1       10.735   1.521  36.327  0.00  0.00    +0.020 A 
ATOM     25  C   LIG    1       10.028   1.620  35.147  0.00  0.00    +0.113 A 
ATOM     26  N   LIG    1       10.535   2.123  33.992  0.00  0.00    -0.240 NA
ENDBRANCH  19  21
ENDBRANCH  18  19
ENDBRANCH  17  18
ENDBRANCH  16  17
ENDBRANCH   4  16
TORSDOF 7
ENDMDL
MODEL 4
REMARK VINA RESULT:      -7.7      5.746      8.590
REMARK  Name = 
REMARK                            x       y       z     vdW  Elec       q    Type
REMARK                         _______ _______ _______ _____ _____    ______ ____
ROOT
ATOM      1  C   LIG    1       15.920   2.896  28.610  0.00  0.00    -0.046 A 
ATOM      2  C   LIG    1       15.215   1.967  27.850  0.00  0.00    +0.007 A 
ATOM      3  C   LIG    1       13.888   1.670  28.138  0.00  0.00    +0.046 A 
ATOM      4  C   LIG    1       13.232   2.252  29.229  0.00  0.00    +0.121 A 
ATOM      5  C   LIG    1       13.939   3.159  30.017  0.00  0.00    +0.046 A 
ATOM      6  C   LIG    1       15.272   3.485  29.707  0.00  0.00    +0.007 A 
ENDROOT
BRANCH   1   7
ATOM      7  C   LIG    1       17.347   3.224  28.237  0.00  0.00    +0.059 C 
BRANCH   7  10
ATOM      8  O   LIG    1       19.139   4.516  25.831  0.00  0.00    -0.274 OA
ATOM      9  C   LIG    1       18.876   4.854  26.979  0.00  0.00    +0.232 C 
ATOM     10  C   LIG    1       17.543   4.645  27.688  0.00  0.00    +0.143 C 
ATOM     11  S   LIG    1       17.645   5.809  29.116  0.00  0.00    -0.089 S 
ATOM     12  C   LIG    1       19.346   6.111  28.887  0.00  0.00    +0.114 C 
ATOM     13  S   LIG    1       20.318   7.037  29.855  0.00  0.00    -0.028 S 
ATOM     14  N   LIG    1       19.788   5.493  27.766  0.00  0.00    -0.273 N 
ATOM     15  H   LIG    1       20.715   5.676  27.408  0.00  0.00    +0.156 HD
ENDBRANCH   7  10
ENDBRANCH   1   7
BRANCH   4  16
ATOM     16  O   LIG    1       11.922   1.984  29.587  0.00  0.00    -0.490 OA
BRANCH  16  17
ATOM     17  C   LIG    1       11.385   3.006  30.437  0.00  0.00    +0.248 C 
BRANCH  17  18
ATOM     18  C   LIG    1       10.861   2.557  31.794  0.00  0.00    +0.147 C 
BRANCH  18  19
ATOM     19  N   LIG    1       11.810   2.746  32.937  0.00  0.00    -0.315 N 
ATOM     20  C   LIG    1       12.423   4.083  32.925  0.00  0.00    +0.131 C 
BRANCH  19  21
ATOM     21  C   LIG    1       11.463   2.359  34.248  0.00  0.00    +0.121 A 
ATOM     22  C   LIG    1       10.244   1.735  34.528  0.00  0.00    +0.043 A 
ATOM     23  C   LIG    1        9.910   1.336  35.825  0.00  0.00    +0.005 A 
ATOM     24  C   LIG    1       10.841   1.486  36.832  0.00  0.00    +0.020 A 
ATOM     25  C   LIG    1       12.056   2.041  36.489  0.00  0.00    +0.113 A 
ATOM     26  N   LIG    1       12.370   2.483  35.245  0.00  0.00    -0.240 NA
ENDBRANCH  19  21
ENDBRANCH  18  19
ENDBRANCH  17  18
ENDBRANCH  16  17
ENDBRANCH   4  16
TORSDOF 7
ENDMDL
MODEL 5
REMARK VINA RESULT:      -7.5      6.291      9.151
REMARK  Name = 
REMARK                            x       y       z     vdW  Elec       q    Type
REMARK                         _______ _______ _______ _____ _____    ______ ____
ROOT
ATOM      1  C   LIG    1       15.977   2.972  28.329  0.00  0.00    -0.046 A 
ATOM      2  C   LIG    1       15.100   2.057  27.752  0.00  0.00    +0.007 A 
ATOM      3  C   LIG    1       13.849   1.821  28.310  0.00  0.00    +0.046 A 
ATOM      4  C   LIG    1       13.448   2.452  29.493  0.00  0.00    +0.121 A 
ATOM      5  C   LIG    1       14.332   3.345  30.097  0.00  0.00    +0.046 A 
ATOM      6  C   LIG    1       15.586   3.609  29.517  0.00  0.00    +0.007 A 
ENDROOT
BRANCH   1   7
ATOM      7  C   LIG    1       17.311   3.233  27.668  0.00  0.00    +0.059 C 
BRANCH   7  10
ATOM      8  O   LIG    1       15.402   4.362  25.271  0.00  0.00    -0.274 OA
ATOM      9  C   LIG    1       16.613   4.300  25.443  0.00  0.00    +0.232 C 
ATOM     10  C   LIG    1       17.336   4.480  26.772  0.00  0.00    +0.143 C 
ATOM     11  S   LIG    1       19.081   4.788  26.259  0.00  0.00    -0.089 S 
ATOM     12  C   LIG    1       18.791   4.320  24.606  0.00  0.00    +0.114 C 
ATOM     13  S   LIG    1       19.921   4.214  23.401  0.00  0.00    -0.028 S 
ATOM     14  N   LIG    1       17.475   4.066  24.411  0.00  0.00    -0.273 N 
ATOM     15  H   LIG    1       17.110   3.917  23.482  0.00  0.00    +0.156 HD
ENDBRANCH   7  10
ENDBRANCH   1   7
BRANCH   4  16
ATOM     16  O   LIG    1       12.228   2.246  30.114  0.00  0.00    -0.490 OA
BRANCH  16  17
ATOM     17  C   LIG    1       11.657   3.475  30.583  0.00  0.00    +0.248 C 
BRANCH  17  18
ATOM     18  C   LIG    1       11.068   3.460  31.987  0.00  0.00    +0.147 C 
BRANCH  18  19
ATOM     19  N   LIG    1       12.038   3.139  33.080  0.00  0.00    -0.315 N 
ATOM     20  C   LIG    1       12.943   4.264  33.360  0.00  0.00    +0.131 C 
BRANCH  19  21
ATOM     21  C   LIG    1       11.615   2.520  34.276  0.00  0.00    +0.121 A 
ATOM     22  C   LIG    1       12.417   2.516  35.421  0.00  0.00    +0.043 A 
ATOM     23  C   LIG    1       11.989   1.918  36.609  0.00  0.00    +0.005 A 
ATOM     24  C   LIG    1       10.713   1.397  36.673  0.00  0.00    +0.020 A 
ATOM     25  C   LIG    1        9.936   1.491  35.538  0.00  0.00    +0.113 A 
ATOM     26  N   LIG    1       10.362   2.018  34.362  0.00  0.00    -0.240 NA
ENDBRANCH  19  21
ENDBRANCH  18  19
ENDBRANCH  17  18
ENDBRANCH  16  17
ENDBRANCH   4  16
TORSDOF 7
ENDMDL
MODEL 6
REMARK VINA RESULT:      -7.5      3.729      8.136
REMARK  Name = 
REMARK                            x       y       z     vdW  Elec       q    Type
REMARK                         _______ _______ _______ _____ _____    ______ ____
ROOT
ATOM      1  C   LIG    1        7.242   3.963  27.406  0.00  0.00    -0.046 A 
ATOM      2  C   LIG    1        8.608   4.220  27.482  0.00  0.00    +0.007 A 
ATOM      3  C   LIG    1        9.501   3.222  27.853  0.00  0.00    +0.046 A 
ATOM      4  C   LIG    1        9.057   1.944  28.212  0.00  0.00    +0.121 A 
ATOM      5  C   LIG    1        7.688   1.685  28.172  0.00  0.00    +0.046 A 
ATOM      6  C   LIG    1        6.786   2.684  27.766  0.00  0.00    +0.007 A 
ENDROOT
BRANCH   1   7
ATOM      7  C   LIG    1        6.307   5.062  26.957  0.00  0.00    +0.059 C 
BRANCH   7  10
ATOM      8  O   LIG    1        3.997   6.608  28.673  0.00  0.00    -0.274 OA
ATOM      9  C   LIG    1        4.935   6.975  27.976  0.00  0.00    +0.232 C 
ATOM     10  C   LIG    1        6.294   6.292  27.877  0.00  0.00    +0.143 C 
ATOM     11  S   LIG    1        7.359   7.593  27.119  0.00  0.00    -0.089 S 
ATOM     12  C   LIG    1        6.007   8.612  26.705  0.00  0.00    +0.114 C 
ATOM     13  S   LIG    1        6.070  10.035  25.863  0.00  0.00    -0.028 S 
ATOM     14  N   LIG    1        4.857   8.090  27.195  0.00  0.00    -0.273 N 
ATOM     15  H   LIG    1        3.998   8.620  27.168  0.00  0.00    +0.156 HD
ENDBRANCH   7  10
ENDBRANCH   1   7
BRANCH   4  16
ATOM     16  O   LIG    1        9.889   0.912  28.613  0.00  0.00    -0.490 OA
BRANCH  16  17
ATOM     17  C   LIG    1       10.913   1.371  29.505  0.00  0.00    +0.248 C 
BRANCH  17  18
ATOM     18  C   LIG    1       10.581   1.351  30.991  0.00  0.00    +0.147 C 
BRANCH  18  19
ATOM     19  N   LIG    1       11.410   2.264  31.840  0.00  0.00    -0.315 N 
ATOM     20  C   LIG    1       11.435   3.636  31.309  0.00  0.00    +0.131 C 
BRANCH  19  21
ATOM     21  C   LIG    1       11.289   2.267  33.245  0.00  0.00    +0.121 A 
ATOM     22  C   LIG    1       10.235   1.613  33.890  0.00  0.00    +0.043 A 
ATOM     23  C   LIG    1       10.127   1.602  35.283  0.00  0.00    +0.005 A 
ATOM     24  C   LIG    1       11.130   2.175  36.037  0.00  0.00    +0.020 A 
ATOM     25  C   LIG    1       12.185   2.743  35.353  0.00  0.00    +0.113 A 
ATOM     26  N   LIG    1       12.272   2.810  34.001  0.00  0.00    -0.240 NA
ENDBRANCH  19  21
ENDBRANCH  18  19
ENDBRANCH  17  18
ENDBRANCH  16  17
ENDBRANCH   4  16
TORSDOF 7
ENDMDL
MODEL 7
REMARK VINA RESULT:      -7.4      9.222     10.963
REMARK  Name = 
REMARK                            x       y       z     vdW  Elec       q    Type
REMARK                         _______ _______ _______ _____ _____    ______ ____
ROOT
ATOM      1  C   LIG    1       18.234   6.045  27.209  0.00  0.00    -0.046 A 
ATOM      2  C   LIG    1       18.081   6.698  25.989  0.00  0.00    +0.007 A 
ATOM      3  C   LIG    1       18.728   6.238  24.848  0.00  0.00    +0.046 A 
ATOM      4  C   LIG    1       19.594   5.139  24.896  0.00  0.00    +0.121 A 
ATOM      5  C   LIG    1       19.781   4.498  26.119  0.00  0.00    +0.046 A 
ATOM      6  C   LIG    1       19.102   4.942  27.268  0.00  0.00    +0.007 A 
ENDROOT
BRANCH   1   7
ATOM      7  C   LIG    1       17.480   6.550  28.417  0.00  0.00    +0.059 C 
BRANCH   7  10
ATOM      8  O   LIG    1       16.408   5.387  31.275  0.00  0.00    -0.274 OA
ATOM      9  C   LIG    1       17.196   6.267  30.950  0.00  0.00    +0.232 C 
ATOM     10  C   LIG    1       18.147   6.219  29.760  0.00  0.00    +0.143 C 
ATOM     11  S   LIG    1       19.364   7.549  30.145  0.00  0.00    -0.089 S 
ATOM     12  C   LIG    1       18.404   8.201  31.445  0.00  0.00    +0.114 C 
ATOM     13  S   LIG    1       18.744   9.553  32.336  0.00  0.00    -0.028 S 
ATOM     14  N   LIG    1       17.317   7.423  31.663  0.00  0.00    -0.273 N 
ATOM     15  H   LIG    1       16.727   7.575  32.469  0.00  0.00    +0.156 HD
ENDBRANCH   7  10
ENDBRANCH   1   7
BRANCH   4  16
ATOM     16  O   LIG    1       20.288   4.643  23.805  0.00  0.00    -0.490 OA
BRANCH  16  17
ATOM     17  C   LIG    1       19.501   4.694  22.608  0.00  0.00    +0.248 C 
BRANCH  17  18
ATOM     18  C   LIG    1       19.332   3.386  21.847  0.00  0.00    +0.147 C 
BRANCH  18  19
ATOM     19  N   LIG    1       18.245   2.491  22.356  0.00  0.00    -0.315 N 
ATOM     20  C   LIG    1       18.785   1.288  23.008  0.00  0.00    +0.131 C 
BRANCH  19  21
ATOM     21  C   LIG    1       17.147   3.008  23.076  0.00  0.00    +0.121 A 
ATOM     22  C   LIG    1       17.107   2.974  24.473  0.00  0.00    +0.043 A 
ATOM     23  C   LIG    1       16.027   3.503  25.184  0.00  0.00    +0.005 A 
ATOM     24  C   LIG    1       15.023   4.148  24.493  0.00  0.00    +0.020 A 
ATOM     25  C   LIG    1       15.146   4.219  23.122  0.00  0.00    +0.113 A 
ATOM     26  N   LIG    1       16.161   3.659  22.416  0.00  0.00    -0.240 NA
ENDBRANCH  19  21
ENDBRANCH  18  19
ENDBRANCH  17  18
ENDBRANCH  16  17
ENDBRANCH   4  16
TORSDOF 7
ENDMDL
MODEL 8
REMARK VINA RESULT:      -7.4     10.631     13.518
REMARK  Name = 
REMARK                            x       y       z     vdW  Elec       q    Type
REMARK                         _______ _______ _______ _____ _____    ______ ____
ROOT
ATOM      1  C   LIG    1       18.605   4.781  26.041  0.00  0.00    -0.046 A 
ATOM      2  C   LIG    1       18.189   4.004  27.118  0.00  0.00    +0.007 A 
ATOM      3  C   LIG    1       17.621   4.591  28.243  0.00  0.00    +0.046 A 
ATOM      4  C   LIG    1       17.496   5.981  28.354  0.00  0.00    +0.121 A 
ATOM      5  C   LIG    1       17.939   6.771  27.295  0.00  0.00    +0.046 A 
ATOM      6  C   LIG    1       18.485   6.176  26.143  0.00  0.00    +0.007 A 
ENDROOT
BRANCH   1   7
ATOM      7  C   LIG    1       19.178   4.102  24.818  0.00  0.00    +0.059 C 
BRANCH   7  10
ATOM      8  O   LIG    1       16.218   2.842  24.254  0.00  0.00    -0.274 OA
ATOM      9  C   LIG    1       17.256   2.911  23.608  0.00  0.00    +0.232 C 
ATOM     10  C   LIG    1       18.232   4.082  23.609  0.00  0.00    +0.143 C 
ATOM     11  S   LIG    1       19.239   3.785  22.092  0.00  0.00    -0.089 S 
ATOM     12  C   LIG    1       18.621   2.172  21.866  0.00  0.00    +0.114 C 
ATOM     13  S   LIG    1       19.096   1.091  20.707  0.00  0.00    -0.028 S 
ATOM     14  N   LIG    1       17.652   1.906  22.774  0.00  0.00    -0.273 N 
ATOM     15  H   LIG    1       17.090   1.071  22.700  0.00  0.00    +0.156 HD
ENDBRANCH   7  10
ENDBRANCH   1   7
BRANCH   4  16
ATOM     16  O   LIG    1       16.962   6.632  29.453  0.00  0.00    -0.490 OA
BRANCH  16  17
ATOM     17  C   LIG    1       17.722   6.378  30.642  0.00  0.00    +0.248 C 
BRANCH  17  18
ATOM     18  C   LIG    1       18.514   7.548  31.206  0.00  0.00    +0.147 C 
BRANCH  18  19
ATOM     19  N   LIG    1       19.995   7.338  31.279  0.00  0.00    -0.315 N 
ATOM     20  C   LIG    1       20.666   7.717  30.026  0.00  0.00    +0.131 C 
BRANCH  19  21
ATOM     21  C   LIG    1       20.740   7.760  32.400  0.00  0.00    +0.121 A 
ATOM     22  C   LIG    1       20.533   9.012  32.987  0.00  0.00    +0.043 A 
ATOM     23  C   LIG    1       21.259   9.420  34.109  0.00  0.00    +0.005 A 
ATOM     24  C   LIG    1       22.137   8.533  34.697  0.00  0.00    +0.020 A 
ATOM     25  C   LIG    1       22.250   7.284  34.123  0.00  0.00    +0.113 A 
ATOM     26  N   LIG    1       21.593   6.897  33.000  0.00  0.00    -0.240 NA
ENDBRANCH  19  21
ENDBRANCH  18  19
ENDBRANCH  17  18
ENDBRANCH  16  17
ENDBRANCH   4  16
TORSDOF 7
ENDMDL
MODEL 9
REMARK VINA RESULT:      -7.3     10.734     13.076
REMARK  Name = 
REMARK                            x       y       z     vdW  Elec       q    Type
REMARK                         _______ _______ _______ _____ _____    ______ ____
ROOT
ATOM      1  C   LIG    1       18.637   4.734  25.904  0.00  0.00    -0.046 A 
ATOM      2  C   LIG    1       18.274   3.883  26.945  0.00  0.00    +0.007 A 
ATOM      3  C   LIG    1       17.693   4.383  28.104  0.00  0.00    +0.046 A 
ATOM      4  C   LIG    1       17.501   5.757  28.288  0.00  0.00    +0.121 A 
ATOM      5  C   LIG    1       17.891   6.622  27.267  0.00  0.00    +0.046 A 
ATOM      6  C   LIG    1       18.449   6.115  26.079  0.00  0.00    +0.007 A 
ENDROOT
BRANCH   1   7
ATOM      7  C   LIG    1       19.226   4.148  24.642  0.00  0.00    +0.059 C 
BRANCH   7  10
ATOM      8  O   LIG    1       16.296   2.770  24.209  0.00  0.00    -0.274 OA
ATOM      9  C   LIG    1       17.309   2.861  23.526  0.00  0.00    +0.232 C 
ATOM     10  C   LIG    1       18.241   4.066  23.467  0.00  0.00    +0.143 C 
ATOM     11  S   LIG    1       19.205   3.771  21.923  0.00  0.00    -0.089 S 
ATOM     12  C   LIG    1       18.640   2.131  21.754  0.00  0.00    +0.114 C 
ATOM     13  S   LIG    1       19.114   1.041  20.603  0.00  0.00    -0.028 S 
ATOM     14  N   LIG    1       17.712   1.852  22.701  0.00  0.00    -0.273 N 
ATOM     15  H   LIG    1       17.179   0.995  22.665  0.00  0.00    +0.156 HD
ENDBRANCH   7  10
ENDBRANCH   1   7
BRANCH   4  16
ATOM     16  O   LIG    1       16.950   6.324  29.425  0.00  0.00    -0.490 OA
BRANCH  16  17
ATOM     17  C   LIG    1       17.637   7.523  29.807  0.00  0.00    +0.248 C 
BRANCH  17  18
ATOM     18  C   LIG    1       18.480   7.451  31.072  0.00  0.00    +0.147 C 
BRANCH  18  19
ATOM     19  N   LIG    1       19.776   8.198  31.016  0.00  0.00    -0.315 N 
ATOM     20  C   LIG    1       20.653   7.698  29.946  0.00  0.00    +0.131 C 
BRANCH  19  21
ATOM     21  C   LIG    1       19.813   9.607  31.084  0.00  0.00    +0.121 A 
ATOM     22  C   LIG    1       20.970  10.325  30.767  0.00  0.00    +0.043 A 
ATOM     23  C   LIG    1       20.999  11.721  30.818  0.00  0.00    +0.005 A 
ATOM     24  C   LIG    1       19.835  12.404  31.104  0.00  0.00    +0.020 A 
ATOM     25  C   LIG    1       18.703  11.651  31.337  0.00  0.00    +0.113 A 
ATOM     26  N   LIG    1       18.677  10.294  31.346  0.00  0.00    -0.240 NA
ENDBRANCH  19  21
ENDBRANCH  18  19
ENDBRANCH  17  18
ENDBRANCH  16  17
ENDBRANCH   4  16
TORSDOF 7
ENDMDL
