MODEL 1
REMARK VINA RESULT:      -2.4      0.000      0.000
REMARK  Name = 
REMARK                            x       y       z     vdW  Elec       q    Type
REMARK                         _______ _______ _______ _____ _____    ______ ____
ROOT
ATOM      1  C   LIG    1       17.120   3.667  51.807  0.00  0.00    -0.046 A 
ATOM      2  C   LIG    1       17.989   2.906  51.031  0.00  0.00    +0.007 A 
ATOM      3  C   LIG    1       19.098   3.486  50.426  0.00  0.00    +0.046 A 
ATOM      4  C   LIG    1       19.350   4.859  50.532  0.00  0.00    +0.121 A 
ATOM      5  C   LIG    1       18.467   5.637  51.279  0.00  0.00    +0.046 A 
ATOM      6  C   LIG    1       17.362   5.046  51.919  0.00  0.00    +0.007 A 
ENDROOT
BRANCH   1   7
ATOM      7  C   LIG    1       15.950   2.991  52.484  0.00  0.00    +0.059 C 
BRANCH   7  10
ATOM      8  O   LIG    1       13.627   1.518  50.723  0.00  0.00    -0.274 OA
ATOM      9  C   LIG    1       14.241   1.228  51.742  0.00  0.00    +0.232 C 
ATOM     10  C   LIG    1       15.705   1.547  52.023  0.00  0.00    +0.143 C 
ATOM     11  S   LIG    1       16.116   0.415  53.420  0.00  0.00    -0.089 S 
ATOM     12  C   LIG    1       14.451  -0.010  53.708  0.00  0.00    +0.114 C 
ATOM     13  S   LIG    1       13.880  -0.977  54.924  0.00  0.00    -0.028 S 
ATOM     14  N   LIG    1       13.652   0.548  52.767  0.00  0.00    -0.273 N 
ATOM     15  H   LIG    1       12.678   0.292  52.700  0.00  0.00    +0.156 HD
ENDBRANCH   7  10
ENDBRANCH   1   7
BRANCH   4  16
ATOM     16  O   LIG    1       20.421   5.506  49.938  0.00  0.00    -0.490 OA
BRANCH  16  17
ATOM     17  C   LIG    1       21.671   4.907  50.302  0.00  0.00    +0.248 C 
BRANCH  17  18
ATOM     18  C   LIG    1       22.268   5.335  51.636  0.00  0.00    +0.147 C 
BRANCH  18  19
ATOM     19  N   LIG    1       22.454   4.234  52.632  0.00  0.00    -0.315 N 
ATOM     20  C   LIG    1       23.495   4.556  53.620  0.00  0.00    +0.131 C 
BRANCH  19  21
ATOM     21  C   LIG    1       21.349   3.609  53.248  0.00  0.00    +0.121 A 
ATOM     22  C   LIG    1       21.162   2.225  53.184  0.00  0.00    +0.043 A 
ATOM     23  C   LIG    1       20.076   1.606  53.810  0.00  0.00    +0.005 A 
ATOM     24  C   LIG    1       19.221   2.371  54.576  0.00  0.00    +0.020 A 
ATOM     25  C   LIG    1       19.491   3.720  54.665  0.00  0.00    +0.113 A 
ATOM     26  N   LIG    1       20.509   4.340  54.016  0.00  0.00    -0.240 NA
ENDBRANCH  19  21
ENDBRANCH  18  19
ENDBRANCH  17  18
ENDBRANCH  16  17
ENDBRANCH   4  16
TORSDOF 7
ENDMDL
MODEL 2
REMARK VINA RESULT:      -2.0      1.842      2.202
REMARK  Name = 
REMARK                            x       y       z     vdW  Elec       q    Type
REMARK                         _______ _______ _______ _____ _____    ______ ____
ROOT
ATOM      1  C   LIG    1       17.659   3.428  51.461  0.00  0.00    -0.046 A 
ATOM      2  C   LIG    1       18.705   3.158  50.583  0.00  0.00    +0.007 A 
ATOM      3  C   LIG    1       19.507   4.183  50.094  0.00  0.00    +0.046 A 
ATOM      4  C   LIG    1       19.261   5.521  50.424  0.00  0.00    +0.121 A 
ATOM      5  C   LIG    1       18.195   5.806  51.276  0.00  0.00    +0.046 A 
ATOM      6  C   LIG    1       17.402   4.767  51.797  0.00  0.00    +0.007 A 
ENDROOT
BRANCH   1   7
ATOM      7  C   LIG    1       16.837   2.283  52.004  0.00  0.00    +0.059 C 
BRANCH   7  10
ATOM      8  O   LIG    1       16.679   3.138  55.152  0.00  0.00    -0.274 OA
ATOM      9  C   LIG    1       15.985   2.445  54.418  0.00  0.00    +0.232 C 
ATOM     10  C   LIG    1       15.702   2.713  52.945  0.00  0.00    +0.143 C 
ATOM     11  S   LIG    1       14.233   1.651  52.604  0.00  0.00    -0.089 S 
ATOM     12  C   LIG    1       14.371   0.789  54.112  0.00  0.00    +0.114 C 
ATOM     13  S   LIG    1       13.438  -0.486  54.605  0.00  0.00    -0.028 S 
ATOM     14  N   LIG    1       15.358   1.322  54.871  0.00  0.00    -0.273 N 
ATOM     15  H   LIG    1       15.483   1.035  55.831  0.00  0.00    +0.156 HD
ENDBRANCH   7  10
ENDBRANCH   1   7
BRANCH   4  16
ATOM     16  O   LIG    1       20.005   6.591  49.955  0.00  0.00    -0.490 OA
BRANCH  16  17
ATOM     17  C   LIG    1       20.628   7.313  51.026  0.00  0.00    +0.248 C 
BRANCH  17  18
ATOM     18  C   LIG    1       21.976   6.792  51.504  0.00  0.00    +0.147 C 
BRANCH  18  19
ATOM     19  N   LIG    1       21.992   6.260  52.903  0.00  0.00    -0.315 N 
ATOM     20  C   LIG    1       21.442   7.228  53.865  0.00  0.00    +0.131 C 
BRANCH  19  21
ATOM     21  C   LIG    1       21.553   4.951  53.194  0.00  0.00    +0.121 A 
ATOM     22  C   LIG    1       20.465   4.716  54.040  0.00  0.00    +0.043 A 
ATOM     23  C   LIG    1       20.021   3.419  54.312  0.00  0.00    +0.005 A 
ATOM     24  C   LIG    1       20.616   2.358  53.663  0.00  0.00    +0.020 A 
ATOM     25  C   LIG    1       21.636   2.650  52.782  0.00  0.00    +0.113 A 
ATOM     26  N   LIG    1       22.113   3.900  52.553  0.00  0.00    -0.240 NA
ENDBRANCH  19  21
ENDBRANCH  18  19
ENDBRANCH  17  18
ENDBRANCH  16  17
ENDBRANCH   4  16
TORSDOF 7
ENDMDL
MODEL 3
REMARK VINA RESULT:      -2.0      2.533      3.713
REMARK  Name = 
REMARK                            x       y       z     vdW  Elec       q    Type
REMARK                         _______ _______ _______ _____ _____    ______ ____
ROOT
ATOM      1  C   LIG    1       18.078   5.816  52.676  0.00  0.00    -0.046 A 
ATOM      2  C   LIG    1       18.210   7.094  52.140  0.00  0.00    +0.007 A 
ATOM      3  C   LIG    1       19.178   7.970  52.617  0.00  0.00    +0.046 A 
ATOM      4  C   LIG    1       20.015   7.619  53.684  0.00  0.00    +0.121 A 
ATOM      5  C   LIG    1       19.868   6.354  54.250  0.00  0.00    +0.046 A 
ATOM      6  C   LIG    1       18.911   5.455  53.746  0.00  0.00    +0.007 A 
ENDROOT
BRANCH   1   7
ATOM      7  C   LIG    1       17.042   4.878  52.100  0.00  0.00    +0.059 C 
BRANCH   7  10
ATOM      8  O   LIG    1       18.450   2.008  52.770  0.00  0.00    -0.274 OA
ATOM      9  C   LIG    1       17.297   2.369  52.570  0.00  0.00    +0.232 C 
ATOM     10  C   LIG    1       16.688   3.695  53.013  0.00  0.00    +0.143 C 
ATOM     11  S   LIG    1       14.875   3.384  52.880  0.00  0.00    -0.089 S 
ATOM     12  C   LIG    1       15.085   1.892  52.004  0.00  0.00    +0.114 C 
ATOM     13  S   LIG    1       13.883   0.944  51.376  0.00  0.00    -0.028 S 
ATOM     14  N   LIG    1       16.399   1.579  51.915  0.00  0.00    -0.273 N 
ATOM     15  H   LIG    1       16.693   0.679  51.562  0.00  0.00    +0.156 HD
ENDBRANCH   7  10
ENDBRANCH   1   7
BRANCH   4  16
ATOM     16  O   LIG    1       20.982   8.450  54.223  0.00  0.00    -0.490 OA
BRANCH  16  17
ATOM     17  C   LIG    1       22.295   7.888  54.094  0.00  0.00    +0.248 C 
BRANCH  17  18
ATOM     18  C   LIG    1       22.943   7.980  52.719  0.00  0.00    +0.147 C 
BRANCH  18  19
ATOM     19  N   LIG    1       23.338   6.669  52.114  0.00  0.00    -0.315 N 
ATOM     20  C   LIG    1       24.360   5.980  52.916  0.00  0.00    +0.131 C 
BRANCH  19  21
ATOM     21  C   LIG    1       22.369   5.761  51.639  0.00  0.00    +0.121 A 
ATOM     22  C   LIG    1       21.565   6.060  50.535  0.00  0.00    +0.043 A 
ATOM     23  C   LIG    1       20.618   5.151  50.054  0.00  0.00    +0.005 A 
ATOM     24  C   LIG    1       20.538   3.901  50.632  0.00  0.00    +0.020 A 
ATOM     25  C   LIG    1       21.404   3.630  51.671  0.00  0.00    +0.113 A 
ATOM     26  N   LIG    1       22.288   4.524  52.182  0.00  0.00    -0.240 NA
ENDBRANCH  19  21
ENDBRANCH  18  19
ENDBRANCH  17  18
ENDBRANCH  16  17
ENDBRANCH   4  16
TORSDOF 7
ENDMDL
MODEL 4
REMARK VINA RESULT:      -1.9      2.685      4.305
REMARK  Name = 
REMARK                            x       y       z     vdW  Elec       q    Type
REMARK                         _______ _______ _______ _____ _____    ______ ____
ROOT
ATOM      1  C   LIG    1       19.692   2.259  54.238  0.00  0.00    -0.046 A 
ATOM      2  C   LIG    1       20.012   1.050  53.626  0.00  0.00    +0.007 A 
ATOM      3  C   LIG    1       21.251   0.454  53.829  0.00  0.00    +0.046 A 
ATOM      4  C   LIG    1       22.236   1.071  54.610  0.00  0.00    +0.121 A 
ATOM      5  C   LIG    1       21.939   2.298  55.200  0.00  0.00    +0.046 A 
ATOM      6  C   LIG    1       20.673   2.886  55.022  0.00  0.00    +0.007 A 
ENDROOT
BRANCH   1   7
ATOM      7  C   LIG    1       18.318   2.852  54.028  0.00  0.00    +0.059 C 
BRANCH   7  10
ATOM      8  O   LIG    1       17.694   4.580  51.327  0.00  0.00    -0.274 OA
ATOM      9  C   LIG    1       17.080   3.730  51.960  0.00  0.00    +0.232 C 
ATOM     10  C   LIG    1       17.694   2.525  52.663  0.00  0.00    +0.143 C 
ATOM     11  S   LIG    1       16.242   1.421  52.941  0.00  0.00    -0.089 S 
ATOM     12  C   LIG    1       15.086   2.656  52.521  0.00  0.00    +0.114 C 
ATOM     13  S   LIG    1       13.438   2.525  52.593  0.00  0.00    -0.028 S 
ATOM     14  N   LIG    1       15.723   3.771  52.091  0.00  0.00    -0.273 N 
ATOM     15  H   LIG    1       15.206   4.534  51.677  0.00  0.00    +0.156 HD
ENDBRANCH   7  10
ENDBRANCH   1   7
BRANCH   4  16
ATOM     16  O   LIG    1       23.498   0.546  54.834  0.00  0.00    -0.490 OA
BRANCH  16  17
ATOM     17  C   LIG    1       24.529   1.420  54.357  0.00  0.00    +0.248 C 
BRANCH  17  18
ATOM     18  C   LIG    1       24.847   1.348  52.870  0.00  0.00    +0.147 C 
BRANCH  18  19
ATOM     19  N   LIG    1       24.804   2.657  52.146  0.00  0.00    -0.315 N 
ATOM     20  C   LIG    1       25.536   2.606  50.871  0.00  0.00    +0.131 C 
BRANCH  19  21
ATOM     21  C   LIG    1       23.598   3.378  52.009  0.00  0.00    +0.121 A 
ATOM     22  C   LIG    1       22.514   2.861  51.293  0.00  0.00    +0.043 A 
ATOM     23  C   LIG    1       21.315   3.568  51.173  0.00  0.00    +0.005 A 
ATOM     24  C   LIG    1       21.173   4.763  51.849  0.00  0.00    +0.020 A 
ATOM     25  C   LIG    1       22.246   5.193  52.601  0.00  0.00    +0.113 A 
ATOM     26  N   LIG    1       23.435   4.543  52.678  0.00  0.00    -0.240 NA
ENDBRANCH  19  21
ENDBRANCH  18  19
ENDBRANCH  17  18
ENDBRANCH  16  17
ENDBRANCH   4  16
TORSDOF 7
ENDMDL
MODEL 5
REMARK VINA RESULT:      -1.9      2.343      3.287
REMARK  Name = 
REMARK                            x       y       z     vdW  Elec       q    Type
REMARK                         _______ _______ _______ _____ _____    ______ ____
ROOT
ATOM      1  C   LIG    1       19.439   4.403  51.261  0.00  0.00    -0.046 A 
ATOM      2  C   LIG    1       19.839   4.901  50.024  0.00  0.00    +0.007 A 
ATOM      3  C   LIG    1       20.648   6.029  49.938  0.00  0.00    +0.046 A 
ATOM      4  C   LIG    1       21.043   6.730  51.082  0.00  0.00    +0.121 A 
ATOM      5  C   LIG    1       20.621   6.260  52.324  0.00  0.00    +0.046 A 
ATOM      6  C   LIG    1       19.829   5.100  52.415  0.00  0.00    +0.007 A 
ENDROOT
BRANCH   1   7
ATOM      7  C   LIG    1       18.596   3.150  51.314  0.00  0.00    +0.059 C 
BRANCH   7  10
ATOM      8  O   LIG    1       19.151   1.583  54.126  0.00  0.00    -0.274 OA
ATOM      9  C   LIG    1       18.173   1.719  53.401  0.00  0.00    +0.232 C 
ATOM     10  C   LIG    1       17.808   2.977  52.621  0.00  0.00    +0.143 C 
ATOM     11  S   LIG    1       16.035   2.703  52.196  0.00  0.00    -0.089 S 
ATOM     12  C   LIG    1       16.067   1.028  52.674  0.00  0.00    +0.114 C 
ATOM     13  S   LIG    1       14.828  -0.060  52.530  0.00  0.00    -0.028 S 
ATOM     14  N   LIG    1       17.266   0.716  53.222  0.00  0.00    -0.273 N 
ATOM     15  H   LIG    1       17.410  -0.173  53.679  0.00  0.00    +0.156 HD
ENDBRANCH   7  10
ENDBRANCH   1   7
BRANCH   4  16
ATOM     16  O   LIG    1       21.827   7.872  51.068  0.00  0.00    -0.490 OA
BRANCH  16  17
ATOM     17  C   LIG    1       23.037   7.694  51.816  0.00  0.00    +0.248 C 
BRANCH  17  18
ATOM     18  C   LIG    1       24.195   7.025  51.088  0.00  0.00    +0.147 C 
BRANCH  18  19
ATOM     19  N   LIG    1       24.734   5.794  51.747  0.00  0.00    -0.315 N 
ATOM     20  C   LIG    1       25.527   6.114  52.944  0.00  0.00    +0.131 C 
BRANCH  19  21
ATOM     21  C   LIG    1       23.918   4.665  51.967  0.00  0.00    +0.121 A 
ATOM     22  C   LIG    1       23.523   3.831  50.917  0.00  0.00    +0.043 A 
ATOM     23  C   LIG    1       22.729   2.703  51.139  0.00  0.00    +0.005 A 
ATOM     24  C   LIG    1       22.402   2.361  52.435  0.00  0.00    +0.020 A 
ATOM     25  C   LIG    1       22.878   3.175  53.441  0.00  0.00    +0.113 A 
ATOM     26  N   LIG    1       23.601   4.304  53.232  0.00  0.00    -0.240 NA
ENDBRANCH  19  21
ENDBRANCH  18  19
ENDBRANCH  17  18
ENDBRANCH  16  17
ENDBRANCH   4  16
TORSDOF 7
ENDMDL
MODEL 6
REMARK VINA RESULT:      -1.9      2.582      3.841
REMARK  Name = 
REMARK                            x       y       z     vdW  Elec       q    Type
REMARK                         _______ _______ _______ _____ _____    ______ ____
ROOT
ATOM      1  C   LIG    1       20.462   3.955  50.683  0.00  0.00    -0.046 A 
ATOM      2  C   LIG    1       21.608   3.327  51.164  0.00  0.00    +0.007 A 
ATOM      3  C   LIG    1       22.850   3.945  51.073  0.00  0.00    +0.046 A 
ATOM      4  C   LIG    1       23.000   5.191  50.452  0.00  0.00    +0.121 A 
ATOM      5  C   LIG    1       21.864   5.813  49.938  0.00  0.00    +0.046 A 
ATOM      6  C   LIG    1       20.601   5.204  50.057  0.00  0.00    +0.007 A 
ENDROOT
BRANCH   1   7
ATOM      7  C   LIG    1       19.124   3.270  50.839  0.00  0.00    +0.059 C 
BRANCH   7  10
ATOM      8  O   LIG    1       19.696   1.527  53.542  0.00  0.00    -0.274 OA
ATOM      9  C   LIG    1       18.686   1.962  53.001  0.00  0.00    +0.232 C 
ATOM     10  C   LIG    1       18.568   3.294  52.271  0.00  0.00    +0.143 C 
ATOM     11  S   LIG    1       16.745   3.558  52.179  0.00  0.00    -0.089 S 
ATOM     12  C   LIG    1       16.375   1.932  52.684  0.00  0.00    +0.114 C 
ATOM     13  S   LIG    1       14.869   1.255  52.792  0.00  0.00    -0.028 S 
ATOM     14  N   LIG    1       17.510   1.270  53.014  0.00  0.00    -0.273 N 
ATOM     15  H   LIG    1       17.469   0.365  53.459  0.00  0.00    +0.156 HD
ENDBRANCH   7  10
ENDBRANCH   1   7
BRANCH   4  16
ATOM     16  O   LIG    1       24.208   5.851  50.307  0.00  0.00    -0.490 OA
BRANCH  16  17
ATOM     17  C   LIG    1       24.121   7.217  50.735  0.00  0.00    +0.248 C 
BRANCH  17  18
ATOM     18  C   LIG    1       24.610   7.521  52.144  0.00  0.00    +0.147 C 
BRANCH  18  19
ATOM     19  N   LIG    1       23.532   7.799  53.145  0.00  0.00    -0.315 N 
ATOM     20  C   LIG    1       22.699   8.945  52.751  0.00  0.00    +0.131 C 
BRANCH  19  21
ATOM     21  C   LIG    1       22.743   6.759  53.679  0.00  0.00    +0.121 A 
ATOM     22  C   LIG    1       21.355   6.734  53.513  0.00  0.00    +0.043 A 
ATOM     23  C   LIG    1       20.578   5.693  54.027  0.00  0.00    +0.005 A 
ATOM     24  C   LIG    1       21.206   4.627  54.637  0.00  0.00    +0.020 A 
ATOM     25  C   LIG    1       22.583   4.665  54.710  0.00  0.00    +0.113 A 
ATOM     26  N   LIG    1       23.343   5.697  54.265  0.00  0.00    -0.240 NA
ENDBRANCH  19  21
ENDBRANCH  18  19
ENDBRANCH  17  18
ENDBRANCH  16  17
ENDBRANCH   4  16
TORSDOF 7
ENDMDL
MODEL 7
REMARK VINA RESULT:      -1.9      3.921      7.341
REMARK  Name = 
REMARK                            x       y       z     vdW  Elec       q    Type
REMARK                         _______ _______ _______ _____ _____    ______ ____
ROOT
ATOM      1  C   LIG    1       20.786   3.494  51.318  0.00  0.00    -0.046 A 
ATOM      2  C   LIG    1       20.420   3.032  52.579  0.00  0.00    +0.007 A 
ATOM      3  C   LIG    1       19.120   2.612  52.833  0.00  0.00    +0.046 A 
ATOM      4  C   LIG    1       18.125   2.686  51.851  0.00  0.00    +0.121 A 
ATOM      5  C   LIG    1       18.473   3.178  50.594  0.00  0.00    +0.046 A 
ATOM      6  C   LIG    1       19.796   3.574  50.326  0.00  0.00    +0.007 A 
ENDROOT
BRANCH   1   7
ATOM      7  C   LIG    1       22.220   3.902  51.069  0.00  0.00    +0.059 C 
BRANCH   7  10
ATOM      8  O   LIG    1       23.806   3.663  53.915  0.00  0.00    -0.274 OA
ATOM      9  C   LIG    1       24.129   3.526  52.741  0.00  0.00    +0.232 C 
ATOM     10  C   LIG    1       23.260   2.927  51.641  0.00  0.00    +0.143 C 
ATOM     11  S   LIG    1       24.480   2.537  50.313  0.00  0.00    -0.089 S 
ATOM     12  C   LIG    1       25.761   3.438  51.076  0.00  0.00    +0.114 C 
ATOM     13  S   LIG    1       27.278   3.698  50.467  0.00  0.00    -0.028 S 
ATOM     14  N   LIG    1       25.359   3.899  52.285  0.00  0.00    -0.273 N 
ATOM     15  H   LIG    1       26.019   4.321  52.922  0.00  0.00    +0.156 HD
ENDBRANCH   7  10
ENDBRANCH   1   7
BRANCH   4  16
ATOM     16  O   LIG    1       16.807   2.306  52.043  0.00  0.00    -0.490 OA
BRANCH  16  17
ATOM     17  C   LIG    1       16.238   2.931  53.201  0.00  0.00    +0.248 C 
BRANCH  17  18
ATOM     18  C   LIG    1       15.605   4.300  52.994  0.00  0.00    +0.147 C 
BRANCH  18  19
ATOM     19  N   LIG    1       16.442   5.460  53.437  0.00  0.00    -0.315 N 
ATOM     20  C   LIG    1       17.068   5.218  54.746  0.00  0.00    +0.131 C 
BRANCH  19  21
ATOM     21  C   LIG    1       17.342   6.092  52.554  0.00  0.00    +0.121 A 
ATOM     22  C   LIG    1       18.672   6.334  52.913  0.00  0.00    +0.043 A 
ATOM     23  C   LIG    1       19.566   6.943  52.030  0.00  0.00    +0.005 A 
ATOM     24  C   LIG    1       19.148   7.234  50.748  0.00  0.00    +0.020 A 
ATOM     25  C   LIG    1       17.848   6.909  50.421  0.00  0.00    +0.113 A 
ATOM     26  N   LIG    1       16.954   6.369  51.287  0.00  0.00    -0.240 NA
ENDBRANCH  19  21
ENDBRANCH  18  19
ENDBRANCH  17  18
ENDBRANCH  16  17
ENDBRANCH   4  16
TORSDOF 7
ENDMDL
MODEL 8
REMARK VINA RESULT:      -1.9      1.082      1.446
REMARK  Name = 
REMARK                            x       y       z     vdW  Elec       q    Type
REMARK                         _______ _______ _______ _____ _____    ______ ____
ROOT
ATOM      1  C   LIG    1       17.391   3.696  51.935  0.00  0.00    -0.046 A 
ATOM      2  C   LIG    1       18.166   2.949  51.052  0.00  0.00    +0.007 A 
ATOM      3  C   LIG    1       19.447   3.362  50.705  0.00  0.00    +0.046 A 
ATOM      4  C   LIG    1       19.981   4.563  51.187  0.00  0.00    +0.121 A 
ATOM      5  C   LIG    1       19.200   5.335  52.046  0.00  0.00    +0.046 A 
ATOM      6  C   LIG    1       17.916   4.902  52.424  0.00  0.00    +0.007 A 
ENDROOT
BRANCH   1   7
ATOM      7  C   LIG    1       16.019   3.191  52.321  0.00  0.00    +0.059 C 
BRANCH   7  10
ATOM      8  O   LIG    1       13.681   1.554  50.734  0.00  0.00    -0.274 OA
ATOM      9  C   LIG    1       14.313   1.359  51.765  0.00  0.00    +0.232 C 
ATOM     10  C   LIG    1       15.778   1.710  51.994  0.00  0.00    +0.143 C 
ATOM     11  S   LIG    1       16.219   0.709  53.479  0.00  0.00    -0.089 S 
ATOM     12  C   LIG    1       14.562   0.301  53.829  0.00  0.00    +0.114 C 
ATOM     13  S   LIG    1       14.016  -0.557  55.135  0.00  0.00    -0.028 S 
ATOM     14  N   LIG    1       13.745   0.768  52.855  0.00  0.00    -0.273 N 
ATOM     15  H   LIG    1       12.771   0.502  52.827  0.00  0.00    +0.156 HD
ENDBRANCH   7  10
ENDBRANCH   1   7
BRANCH   4  16
ATOM     16  O   LIG    1       21.238   5.044  50.865  0.00  0.00    -0.490 OA
BRANCH  16  17
ATOM     17  C   LIG    1       22.257   4.061  51.090  0.00  0.00    +0.248 C 
BRANCH  17  18
ATOM     18  C   LIG    1       23.217   4.326  52.242  0.00  0.00    +0.147 C 
BRANCH  18  19
ATOM     19  N   LIG    1       22.727   3.894  53.589  0.00  0.00    -0.315 N 
ATOM     20  C   LIG    1       22.125   5.008  54.337  0.00  0.00    +0.131 C 
BRANCH  19  21
ATOM     21  C   LIG    1       21.976   2.711  53.751  0.00  0.00    +0.121 A 
ATOM     22  C   LIG    1       20.636   2.743  54.149  0.00  0.00    +0.043 A 
ATOM     23  C   LIG    1       19.889   1.571  54.291  0.00  0.00    +0.005 A 
ATOM     24  C   LIG    1       20.464   0.366  53.947  0.00  0.00    +0.020 A 
ATOM     25  C   LIG    1       21.765   0.396  53.490  0.00  0.00    +0.113 A 
ATOM     26  N   LIG    1       22.518   1.521  53.402  0.00  0.00    -0.240 NA
ENDBRANCH  19  21
ENDBRANCH  18  19
ENDBRANCH  17  18
ENDBRANCH  16  17
ENDBRANCH   4  16
TORSDOF 7
ENDMDL
MODEL 9
REMARK VINA RESULT:      -1.8      3.564      7.022
REMARK  Name = 
REMARK                            x       y       z     vdW  Elec       q    Type
REMARK                         _______ _______ _______ _____ _____    ______ ____
ROOT
ATOM      1  C   LIG    1       19.543   2.707  52.622  0.00  0.00    -0.046 A 
ATOM      2  C   LIG    1       18.782   3.032  51.502  0.00  0.00    +0.007 A 
ATOM      3  C   LIG    1       17.424   2.739  51.454  0.00  0.00    +0.046 A 
ATOM      4  C   LIG    1       16.787   2.064  52.503  0.00  0.00    +0.121 A 
ATOM      5  C   LIG    1       17.547   1.705  53.615  0.00  0.00    +0.046 A 
ATOM      6  C   LIG    1       18.914   2.029  53.678  0.00  0.00    +0.007 A 
ENDROOT
BRANCH   1   7
ATOM      7  C   LIG    1       21.007   3.081  52.653  0.00  0.00    +0.059 C 
BRANCH   7  10
ATOM      8  O   LIG    1       23.342   1.690  50.843  0.00  0.00    -0.274 OA
ATOM      9  C   LIG    1       23.032   2.847  51.096  0.00  0.00    +0.232 C 
ATOM     10  C   LIG    1       21.611   3.372  51.271  0.00  0.00    +0.143 C 
ATOM     11  S   LIG    1       21.819   5.197  51.103  0.00  0.00    -0.089 S 
ATOM     12  C   LIG    1       23.557   5.118  51.203  0.00  0.00    +0.114 C 
ATOM     13  S   LIG    1       24.600   6.403  51.224  0.00  0.00    -0.028 S 
ATOM     14  N   LIG    1       23.969   3.828  51.239  0.00  0.00    -0.273 N 
ATOM     15  H   LIG    1       24.948   3.597  51.157  0.00  0.00    +0.156 HD
ENDBRANCH   7  10
ENDBRANCH   1   7
BRANCH   4  16
ATOM     16  O   LIG    1       15.446   1.721  52.511  0.00  0.00    -0.490 OA
BRANCH  16  17
ATOM     17  C   LIG    1       14.743   2.355  53.588  0.00  0.00    +0.248 C 
BRANCH  17  18
ATOM     18  C   LIG    1       14.363   3.815  53.386  0.00  0.00    +0.147 C 
BRANCH  18  19
ATOM     19  N   LIG    1       15.157   4.796  54.192  0.00  0.00    -0.315 N 
ATOM     20  C   LIG    1       15.446   4.291  55.543  0.00  0.00    +0.131 C 
BRANCH  19  21
ATOM     21  C   LIG    1       16.281   5.452  53.645  0.00  0.00    +0.121 A 
ATOM     22  C   LIG    1       17.515   5.459  54.302  0.00  0.00    +0.043 A 
ATOM     23  C   LIG    1       18.631   6.094  53.750  0.00  0.00    +0.005 A 
ATOM     24  C   LIG    1       18.529   6.651  52.492  0.00  0.00    +0.020 A 
ATOM     25  C   LIG    1       17.309   6.553  51.856  0.00  0.00    +0.113 A 
ATOM     26  N   LIG    1       16.204   5.989  52.406  0.00  0.00    -0.240 NA
ENDBRANCH  19  21
ENDBRANCH  18  19
ENDBRANCH  17  18
ENDBRANCH  16  17
ENDBRANCH   4  16
TORSDOF 7
ENDMDL
