MODEL 1
REMARK VINA RESULT:      -7.7      0.000      0.000
REMARK  Name = 
REMARK                            x       y       z     vdW  Elec       q    Type
REMARK                         _______ _______ _______ _____ _____    ______ ____
ROOT
ATOM      1  C   LIG    1       26.033   2.228  16.751  0.00  0.00    -0.046 A 
ATOM      2  C   LIG    1       26.209   0.944  17.259  0.00  0.00    +0.007 A 
ATOM      3  C   LIG    1       26.296   0.725  18.629  0.00  0.00    +0.046 A 
ATOM      4  C   LIG    1       26.262   1.788  19.539  0.00  0.00    +0.121 A 
ATOM      5  C   LIG    1       26.119   3.081  19.040  0.00  0.00    +0.046 A 
ATOM      6  C   LIG    1       25.999   3.301  17.656  0.00  0.00    +0.007 A 
ENDROOT
BRANCH   1   7
ATOM      7  C   LIG    1       25.900   2.420  15.258  0.00  0.00    +0.059 C 
BRANCH   7  10
ATOM      8  O   LIG    1       23.024   3.751  16.048  0.00  0.00    -0.274 OA
ATOM      9  C   LIG    1       23.649   3.622  15.003  0.00  0.00    +0.232 C 
ATOM     10  C   LIG    1       25.163   3.705  14.852  0.00  0.00    +0.143 C 
ATOM     11  S   LIG    1       25.388   3.952  13.038  0.00  0.00    -0.089 S 
ATOM     12  C   LIG    1       23.726   3.576  12.671  0.00  0.00    +0.114 C 
ATOM     13  S   LIG    1       23.052   3.472  11.164  0.00  0.00    -0.028 S 
ATOM     14  N   LIG    1       23.020   3.396  13.813  0.00  0.00    -0.273 N 
ATOM     15  H   LIG    1       22.015   3.308  13.790  0.00  0.00    +0.156 HD
ENDBRANCH   7  10
ENDBRANCH   1   7
BRANCH   4  16
ATOM     16  O   LIG    1       26.366   1.644  20.913  0.00  0.00    -0.490 OA
BRANCH  16  17
ATOM     17  C   LIG    1       27.493   0.836  21.278  0.00  0.00    +0.248 C 
BRANCH  17  18
ATOM     18  C   LIG    1       28.846   1.533  21.319  0.00  0.00    +0.147 C 
BRANCH  18  19
ATOM     19  N   LIG    1       30.032   0.624  21.246  0.00  0.00    -0.315 N 
ATOM     20  C   LIG    1       31.294   1.347  21.468  0.00  0.00    +0.131 C 
BRANCH  19  21
ATOM     21  C   LIG    1       30.041  -0.623  21.906  0.00  0.00    +0.121 A 
ATOM     22  C   LIG    1       30.501  -1.783  21.274  0.00  0.00    +0.043 A 
ATOM     23  C   LIG    1       30.525  -3.013  21.936  0.00  0.00    +0.005 A 
ATOM     24  C   LIG    1       30.167  -3.064  23.267  0.00  0.00    +0.020 A 
ATOM     25  C   LIG    1       29.790  -1.879  23.864  0.00  0.00    +0.113 A 
ATOM     26  N   LIG    1       29.708  -0.689  23.216  0.00  0.00    -0.240 NA
ENDBRANCH  19  21
ENDBRANCH  18  19
ENDBRANCH  17  18
ENDBRANCH  16  17
ENDBRANCH   4  16
TORSDOF 7
ENDMDL
MODEL 2
REMARK VINA RESULT:      -7.5      4.070      9.589
REMARK  Name = 
REMARK                            x       y       z     vdW  Elec       q    Type
REMARK                         _______ _______ _______ _____ _____    ______ ____
ROOT
ATOM      1  C   LIG    1       26.921  -0.089  19.904  0.00  0.00    -0.046 A 
ATOM      2  C   LIG    1       26.971  -0.795  18.705  0.00  0.00    +0.007 A 
ATOM      3  C   LIG    1       26.623  -0.186  17.505  0.00  0.00    +0.046 A 
ATOM      4  C   LIG    1       26.164   1.135  17.465  0.00  0.00    +0.121 A 
ATOM      5  C   LIG    1       26.078   1.841  18.663  0.00  0.00    +0.046 A 
ATOM      6  C   LIG    1       26.459   1.237  19.875  0.00  0.00    +0.007 A 
ENDROOT
BRANCH   1   7
ATOM      7  C   LIG    1       27.348  -0.773  21.182  0.00  0.00    +0.059 C 
BRANCH   7  10
ATOM      8  O   LIG    1       29.515   1.621  20.692  0.00  0.00    -0.274 OA
ATOM      9  C   LIG    1       29.466   0.651  21.438  0.00  0.00    +0.232 C 
ATOM     10  C   LIG    1       28.211   0.100  22.105  0.00  0.00    +0.143 C 
ATOM     11  S   LIG    1       28.888  -0.969  23.447  0.00  0.00    -0.089 S 
ATOM     12  C   LIG    1       30.515  -0.903  22.827  0.00  0.00    +0.114 C 
ATOM     13  S   LIG    1       31.828  -1.715  23.424  0.00  0.00    -0.028 S 
ATOM     14  N   LIG    1       30.583  -0.057  21.771  0.00  0.00    -0.273 N 
ATOM     15  H   LIG    1       31.476   0.207  21.379  0.00  0.00    +0.156 HD
ENDBRANCH   7  10
ENDBRANCH   1   7
BRANCH   4  16
ATOM     16  O   LIG    1       25.780   1.795  16.309  0.00  0.00    -0.490 OA
BRANCH  16  17
ATOM     17  C   LIG    1       25.526   3.185  16.551  0.00  0.00    +0.248 C 
BRANCH  17  18
ATOM     18  C   LIG    1       24.168   3.715  16.112  0.00  0.00    +0.147 C 
BRANCH  18  19
ATOM     19  N   LIG    1       23.819   3.460  14.679  0.00  0.00    -0.315 N 
ATOM     20  C   LIG    1       22.465   3.932  14.351  0.00  0.00    +0.131 C 
BRANCH  19  21
ATOM     21  C   LIG    1       24.726   3.760  13.640  0.00  0.00    +0.121 A 
ATOM     22  C   LIG    1       25.778   4.662  13.825  0.00  0.00    +0.043 A 
ATOM     23  C   LIG    1       26.686   4.944  12.801  0.00  0.00    +0.005 A 
ATOM     24  C   LIG    1       26.588   4.252  11.611  0.00  0.00    +0.020 A 
ATOM     25  C   LIG    1       25.576   3.321  11.505  0.00  0.00    +0.113 A 
ATOM     26  N   LIG    1       24.655   3.080  12.473  0.00  0.00    -0.240 NA
ENDBRANCH  19  21
ENDBRANCH  18  19
ENDBRANCH  17  18
ENDBRANCH  16  17
ENDBRANCH   4  16
TORSDOF 7
ENDMDL
MODEL 3
REMARK VINA RESULT:      -6.9      4.107      9.620
REMARK  Name = 
REMARK                            x       y       z     vdW  Elec       q    Type
REMARK                         _______ _______ _______ _____ _____    ______ ____
ROOT
ATOM      1  C   LIG    1       26.866   0.789  20.774  0.00  0.00    -0.046 A 
ATOM      2  C   LIG    1       26.675   2.131  21.089  0.00  0.00    +0.007 A 
ATOM      3  C   LIG    1       26.321   3.050  20.108  0.00  0.00    +0.046 A 
ATOM      4  C   LIG    1       26.197   2.671  18.767  0.00  0.00    +0.121 A 
ATOM      5  C   LIG    1       26.419   1.336  18.434  0.00  0.00    +0.046 A 
ATOM      6  C   LIG    1       26.745   0.399  19.431  0.00  0.00    +0.007 A 
ENDROOT
BRANCH   1   7
ATOM      7  C   LIG    1       27.208  -0.187  21.876  0.00  0.00    +0.059 C 
BRANCH   7  10
ATOM      8  O   LIG    1       29.909   1.432  21.010  0.00  0.00    -0.274 OA
ATOM      9  C   LIG    1       29.694   0.357  21.557  0.00  0.00    +0.232 C 
ATOM     10  C   LIG    1       28.568   0.067  22.542  0.00  0.00    +0.143 C 
ATOM     11  S   LIG    1       29.117  -1.497  23.352  0.00  0.00    -0.089 S 
ATOM     12  C   LIG    1       30.390  -1.776  22.195  0.00  0.00    +0.114 C 
ATOM     13  S   LIG    1       31.386  -3.096  22.129  0.00  0.00    -0.028 S 
ATOM     14  N   LIG    1       30.485  -0.732  21.338  0.00  0.00    -0.273 N 
ATOM     15  H   LIG    1       31.259  -0.664  20.692  0.00  0.00    +0.156 HD
ENDBRANCH   7  10
ENDBRANCH   1   7
BRANCH   4  16
ATOM     16  O   LIG    1       25.871   3.538  17.737  0.00  0.00    -0.490 OA
BRANCH  16  17
ATOM     17  C   LIG    1       25.053   2.900  16.746  0.00  0.00    +0.248 C 
BRANCH  17  18
ATOM     18  C   LIG    1       23.932   3.738  16.147  0.00  0.00    +0.147 C 
BRANCH  18  19
ATOM     19  N   LIG    1       23.632   3.460  14.707  0.00  0.00    -0.315 N 
ATOM     20  C   LIG    1       22.296   3.940  14.322  0.00  0.00    +0.131 C 
BRANCH  19  21
ATOM     21  C   LIG    1       24.578   3.732  13.696  0.00  0.00    +0.121 A 
ATOM     22  C   LIG    1       25.716   4.504  13.947  0.00  0.00    +0.043 A 
ATOM     23  C   LIG    1       26.661   4.756  12.950  0.00  0.00    +0.005 A 
ATOM     24  C   LIG    1       26.508   4.158  11.716  0.00  0.00    +0.020 A 
ATOM     25  C   LIG    1       25.406   3.347  11.542  0.00  0.00    +0.113 A 
ATOM     26  N   LIG    1       24.453   3.140  12.485  0.00  0.00    -0.240 NA
ENDBRANCH  19  21
ENDBRANCH  18  19
ENDBRANCH  17  18
ENDBRANCH  16  17
ENDBRANCH   4  16
TORSDOF 7
ENDMDL
MODEL 4
REMARK VINA RESULT:      -6.8      4.098      9.056
REMARK  Name = 
REMARK                            x       y       z     vdW  Elec       q    Type
REMARK                         _______ _______ _______ _____ _____    ______ ____
ROOT
ATOM      1  C   LIG    1       28.057  -0.112  20.512  0.00  0.00    -0.046 A 
ATOM      2  C   LIG    1       28.936   0.897  20.128  0.00  0.00    +0.007 A 
ATOM      3  C   LIG    1       28.540   2.230  20.143  0.00  0.00    +0.046 A 
ATOM      4  C   LIG    1       27.236   2.598  20.493  0.00  0.00    +0.121 A 
ATOM      5  C   LIG    1       26.338   1.593  20.847  0.00  0.00    +0.046 A 
ATOM      6  C   LIG    1       26.746   0.247  20.864  0.00  0.00    +0.007 A 
ENDROOT
BRANCH   1   7
ATOM      7  C   LIG    1       28.538  -1.545  20.524  0.00  0.00    +0.059 C 
BRANCH   7  10
ATOM      8  O   LIG    1       27.998  -0.989  23.697  0.00  0.00    -0.274 OA
ATOM      9  C   LIG    1       28.999  -1.012  22.990  0.00  0.00    +0.232 C 
ATOM     10  C   LIG    1       29.245  -1.961  21.822  0.00  0.00    +0.143 C 
ATOM     11  S   LIG    1       31.065  -1.832  21.558  0.00  0.00    -0.089 S 
ATOM     12  C   LIG    1       31.228  -0.444  22.600  0.00  0.00    +0.114 C 
ATOM     13  S   LIG    1       32.611   0.422  22.876  0.00  0.00    -0.028 S 
ATOM     14  N   LIG    1       30.045  -0.162  23.198  0.00  0.00    -0.273 N 
ATOM     15  H   LIG    1       29.991   0.523  23.938  0.00  0.00    +0.156 HD
ENDBRANCH   7  10
ENDBRANCH   1   7
BRANCH   4  16
ATOM     16  O   LIG    1       26.769   3.902  20.507  0.00  0.00    -0.490 OA
BRANCH  16  17
ATOM     17  C   LIG    1       26.575   4.411  19.181  0.00  0.00    +0.248 C 
BRANCH  17  18
ATOM     18  C   LIG    1       25.417   3.821  18.388  0.00  0.00    +0.147 C 
BRANCH  18  19
ATOM     19  N   LIG    1       25.799   3.160  17.100  0.00  0.00    -0.315 N 
ATOM     20  C   LIG    1       25.940   1.704  17.251  0.00  0.00    +0.131 C 
BRANCH  19  21
ATOM     21  C   LIG    1       25.148   3.484  15.891  0.00  0.00    +0.121 A 
ATOM     22  C   LIG    1       25.837   3.507  14.674  0.00  0.00    +0.043 A 
ATOM     23  C   LIG    1       25.187   3.810  13.475  0.00  0.00    +0.005 A 
ATOM     24  C   LIG    1       23.822   4.006  13.484  0.00  0.00    +0.020 A 
ATOM     25  C   LIG    1       23.178   3.900  14.700  0.00  0.00    +0.113 A 
ATOM     26  N   LIG    1       23.807   3.662  15.879  0.00  0.00    -0.240 NA
ENDBRANCH  19  21
ENDBRANCH  18  19
ENDBRANCH  17  18
ENDBRANCH  16  17
ENDBRANCH   4  16
TORSDOF 7
ENDMDL
MODEL 5
REMARK VINA RESULT:      -6.6      4.109      9.855
REMARK  Name = 
REMARK                            x       y       z     vdW  Elec       q    Type
REMARK                         _______ _______ _______ _____ _____    ______ ____
ROOT
ATOM      1  C   LIG    1       27.361   0.150  20.007  0.00  0.00    -0.046 A 
ATOM      2  C   LIG    1       27.017   1.289  20.730  0.00  0.00    +0.007 A 
ATOM      3  C   LIG    1       26.354   2.348  20.119  0.00  0.00    +0.046 A 
ATOM      4  C   LIG    1       26.056   2.328  18.751  0.00  0.00    +0.121 A 
ATOM      5  C   LIG    1       26.425   1.206  18.011  0.00  0.00    +0.046 A 
ATOM      6  C   LIG    1       27.068   0.121  18.634  0.00  0.00    +0.007 A 
ENDROOT
BRANCH   1   7
ATOM      7  C   LIG    1       28.042  -0.997  20.717  0.00  0.00    +0.059 C 
BRANCH   7  10
ATOM      8  O   LIG    1       30.592  -2.973  20.208  0.00  0.00    -0.274 OA
ATOM      9  C   LIG    1       30.303  -2.155  21.072  0.00  0.00    +0.232 C 
ATOM     10  C   LIG    1       29.564  -0.841  20.847  0.00  0.00    +0.143 C 
ATOM     11  S   LIG    1       29.920   0.106  22.389  0.00  0.00    -0.089 S 
ATOM     12  C   LIG    1       30.575  -1.279  23.218  0.00  0.00    +0.114 C 
ATOM     13  S   LIG    1       31.087  -1.333  24.791  0.00  0.00    -0.028 S 
ATOM     14  N   LIG    1       30.640  -2.343  22.381  0.00  0.00    -0.273 N 
ATOM     15  H   LIG    1       31.122  -3.187  22.655  0.00  0.00    +0.156 HD
ENDBRANCH   7  10
ENDBRANCH   1   7
BRANCH   4  16
ATOM     16  O   LIG    1       25.420   3.355  18.075  0.00  0.00    -0.490 OA
BRANCH  16  17
ATOM     17  C   LIG    1       24.962   2.936  16.783  0.00  0.00    +0.248 C 
BRANCH  17  18
ATOM     18  C   LIG    1       23.889   3.795  16.129  0.00  0.00    +0.147 C 
BRANCH  18  19
ATOM     19  N   LIG    1       23.605   3.476  14.694  0.00  0.00    -0.315 N 
ATOM     20  C   LIG    1       22.263   3.920  14.287  0.00  0.00    +0.131 C 
BRANCH  19  21
ATOM     21  C   LIG    1       24.554   3.740  13.684  0.00  0.00    +0.121 A 
ATOM     22  C   LIG    1       25.690   4.518  13.933  0.00  0.00    +0.043 A 
ATOM     23  C   LIG    1       26.638   4.763  12.936  0.00  0.00    +0.005 A 
ATOM     24  C   LIG    1       26.490   4.154  11.707  0.00  0.00    +0.020 A 
ATOM     25  C   LIG    1       25.391   3.338  11.537  0.00  0.00    +0.113 A 
ATOM     26  N   LIG    1       24.434   3.138  12.479  0.00  0.00    -0.240 NA
ENDBRANCH  19  21
ENDBRANCH  18  19
ENDBRANCH  17  18
ENDBRANCH  16  17
ENDBRANCH   4  16
TORSDOF 7
ENDMDL
MODEL 6
REMARK VINA RESULT:      -6.4      1.237      2.181
REMARK  Name = 
REMARK                            x       y       z     vdW  Elec       q    Type
REMARK                         _______ _______ _______ _____ _____    ______ ____
ROOT
ATOM      1  C   LIG    1       26.107   2.310  16.541  0.00  0.00    -0.046 A 
ATOM      2  C   LIG    1       26.161   0.997  17.003  0.00  0.00    +0.007 A 
ATOM      3  C   LIG    1       26.183   0.722  18.365  0.00  0.00    +0.046 A 
ATOM      4  C   LIG    1       26.206   1.749  19.315  0.00  0.00    +0.121 A 
ATOM      5  C   LIG    1       26.185   3.067  18.864  0.00  0.00    +0.046 A 
ATOM      6  C   LIG    1       26.130   3.348  17.486  0.00  0.00    +0.007 A 
ENDROOT
BRANCH   1   7
ATOM      7  C   LIG    1       26.039   2.567  15.054  0.00  0.00    +0.059 C 
BRANCH   7  10
ATOM      8  O   LIG    1       23.137   3.757  15.964  0.00  0.00    -0.274 OA
ATOM      9  C   LIG    1       23.717   3.644  14.891  0.00  0.00    +0.232 C 
ATOM     10  C   LIG    1       25.216   3.804  14.666  0.00  0.00    +0.143 C 
ATOM     11  S   LIG    1       25.339   4.033  12.840  0.00  0.00    -0.089 S 
ATOM     12  C   LIG    1       23.685   3.563  12.560  0.00  0.00    +0.114 C 
ATOM     13  S   LIG    1       22.945   3.398  11.089  0.00  0.00    -0.028 S 
ATOM     14  N   LIG    1       23.046   3.364  13.737  0.00  0.00    -0.273 N 
ATOM     15  H   LIG    1       22.046   3.223  13.764  0.00  0.00    +0.156 HD
ENDBRANCH   7  10
ENDBRANCH   1   7
BRANCH   4  16
ATOM     16  O   LIG    1       26.252   1.546  20.684  0.00  0.00    -0.490 OA
BRANCH  16  17
ATOM     17  C   LIG    1       26.002   0.176  21.027  0.00  0.00    +0.248 C 
BRANCH  17  18
ATOM     18  C   LIG    1       27.222  -0.683  21.329  0.00  0.00    +0.147 C 
BRANCH  18  19
ATOM     19  N   LIG    1       28.194  -0.088  22.301  0.00  0.00    -0.315 N 
ATOM     20  C   LIG    1       28.364  -0.931  23.493  0.00  0.00    +0.131 C 
BRANCH  19  21
ATOM     21  C   LIG    1       29.431   0.437  21.870  0.00  0.00    +0.121 A 
ATOM     22  C   LIG    1       29.500   1.556  21.036  0.00  0.00    +0.043 A 
ATOM     23  C   LIG    1       30.726   2.086  20.625  0.00  0.00    +0.005 A 
ATOM     24  C   LIG    1       31.891   1.541  21.126  0.00  0.00    +0.020 A 
ATOM     25  C   LIG    1       31.766   0.484  22.003  0.00  0.00    +0.113 A 
ATOM     26  N   LIG    1       30.582  -0.073  22.364  0.00  0.00    -0.240 NA
ENDBRANCH  19  21
ENDBRANCH  18  19
ENDBRANCH  17  18
ENDBRANCH  16  17
ENDBRANCH   4  16
TORSDOF 7
ENDMDL
MODEL 7
REMARK VINA RESULT:      -6.3      1.834      2.251
REMARK  Name = 
REMARK                            x       y       z     vdW  Elec       q    Type
REMARK                         _______ _______ _______ _____ _____    ______ ____
ROOT
ATOM      1  C   LIG    1       25.597   3.016  16.303  0.00  0.00    -0.046 A 
ATOM      2  C   LIG    1       25.767   3.515  17.591  0.00  0.00    +0.007 A 
ATOM      3  C   LIG    1       26.179   2.685  18.628  0.00  0.00    +0.046 A 
ATOM      4  C   LIG    1       26.387   1.316  18.426  0.00  0.00    +0.121 A 
ATOM      5  C   LIG    1       26.188   0.799  17.147  0.00  0.00    +0.046 A 
ATOM      6  C   LIG    1       25.801   1.643  16.089  0.00  0.00    +0.007 A 
ENDROOT
BRANCH   1   7
ATOM      7  C   LIG    1       25.189   3.958  15.194  0.00  0.00    +0.059 C 
BRANCH   7  10
ATOM      8  O   LIG    1       27.230   4.198  12.655  0.00  0.00    -0.274 OA
ATOM      9  C   LIG    1       26.011   4.165  12.773  0.00  0.00    +0.232 C 
ATOM     10  C   LIG    1       25.235   3.336  13.791  0.00  0.00    +0.143 C 
ATOM     11  S   LIG    1       23.524   3.330  13.103  0.00  0.00    -0.089 S 
ATOM     12  C   LIG    1       23.873   4.570  11.931  0.00  0.00    +0.114 C 
ATOM     13  S   LIG    1       22.794   5.271  10.890  0.00  0.00    -0.028 S 
ATOM     14  N   LIG    1       25.190   4.888  11.959  0.00  0.00    -0.273 N 
ATOM     15  H   LIG    1       25.591   5.487  11.252  0.00  0.00    +0.156 HD
ENDBRANCH   7  10
ENDBRANCH   1   7
BRANCH   4  16
ATOM     16  O   LIG    1       26.775   0.430  19.416  0.00  0.00    -0.490 OA
BRANCH  16  17
ATOM     17  C   LIG    1       26.508   0.947  20.726  0.00  0.00    +0.248 C 
BRANCH  17  18
ATOM     18  C   LIG    1       27.676   1.599  21.453  0.00  0.00    +0.147 C 
BRANCH  18  19
ATOM     19  N   LIG    1       29.010   0.964  21.210  0.00  0.00    -0.315 N 
ATOM     20  C   LIG    1       29.985   1.923  20.669  0.00  0.00    +0.131 C 
BRANCH  19  21
ATOM     21  C   LIG    1       29.606   0.123  22.173  0.00  0.00    +0.121 A 
ATOM     22  C   LIG    1       28.841  -0.733  22.972  0.00  0.00    +0.043 A 
ATOM     23  C   LIG    1       29.435  -1.578  23.913  0.00  0.00    +0.005 A 
ATOM     24  C   LIG    1       30.811  -1.627  23.993  0.00  0.00    +0.020 A 
ATOM     25  C   LIG    1       31.522  -0.816  23.132  0.00  0.00    +0.113 A 
ATOM     26  N   LIG    1       30.954   0.049  22.255  0.00  0.00    -0.240 NA
ENDBRANCH  19  21
ENDBRANCH  18  19
ENDBRANCH  17  18
ENDBRANCH  16  17
ENDBRANCH   4  16
TORSDOF 7
ENDMDL
MODEL 8
REMARK VINA RESULT:      -6.2      1.965      3.226
REMARK  Name = 
REMARK                            x       y       z     vdW  Elec       q    Type
REMARK                         _______ _______ _______ _____ _____    ______ ____
ROOT
ATOM      1  C   LIG    1       26.055   3.676  18.846  0.00  0.00    -0.046 A 
ATOM      2  C   LIG    1       25.676   3.086  20.049  0.00  0.00    +0.007 A 
ATOM      3  C   LIG    1       26.629   2.701  20.985  0.00  0.00    +0.046 A 
ATOM      4  C   LIG    1       27.998   2.843  20.731  0.00  0.00    +0.121 A 
ATOM      5  C   LIG    1       28.390   3.402  19.516  0.00  0.00    +0.046 A 
ATOM      6  C   LIG    1       27.426   3.821  18.581  0.00  0.00    +0.007 A 
ENDROOT
BRANCH   1   7
ATOM      7  C   LIG    1       24.988   4.120  17.873  0.00  0.00    +0.059 C 
BRANCH   7  10
ATOM      8  O   LIG    1       26.234   1.274  16.865  0.00  0.00    -0.274 OA
ATOM      9  C   LIG    1       25.643   2.194  16.312  0.00  0.00    +0.232 C 
ATOM     10  C   LIG    1       24.512   3.019  16.915  0.00  0.00    +0.143 C 
ATOM     11  S   LIG    1       23.752   3.824  15.439  0.00  0.00    -0.089 S 
ATOM     12  C   LIG    1       25.061   3.370  14.383  0.00  0.00    +0.114 C 
ATOM     13  S   LIG    1       25.233   3.794  12.792  0.00  0.00    -0.028 S 
ATOM     14  N   LIG    1       25.943   2.578  15.038  0.00  0.00    -0.273 N 
ATOM     15  H   LIG    1       26.687   2.111  14.539  0.00  0.00    +0.156 HD
ENDBRANCH   7  10
ENDBRANCH   1   7
BRANCH   4  16
ATOM     16  O   LIG    1       29.000   2.460  21.607  0.00  0.00    -0.490 OA
BRANCH  16  17
ATOM     17  C   LIG    1       30.009   1.680  20.952  0.00  0.00    +0.248 C 
BRANCH  17  18
ATOM     18  C   LIG    1       30.646   0.566  21.771  0.00  0.00    +0.147 C 
BRANCH  18  19
ATOM     19  N   LIG    1       29.833  -0.687  21.880  0.00  0.00    -0.315 N 
ATOM     20  C   LIG    1       29.613  -1.079  23.280  0.00  0.00    +0.131 C 
BRANCH  19  21
ATOM     21  C   LIG    1       28.663  -0.869  21.113  0.00  0.00    +0.121 A 
ATOM     22  C   LIG    1       27.402  -0.527  21.609  0.00  0.00    +0.043 A 
ATOM     23  C   LIG    1       26.246  -0.691  20.841  0.00  0.00    +0.005 A 
ATOM     24  C   LIG    1       26.366  -1.121  19.536  0.00  0.00    +0.020 A 
ATOM     25  C   LIG    1       27.639  -1.376  19.071  0.00  0.00    +0.113 A 
ATOM     26  N   LIG    1       28.763  -1.274  19.825  0.00  0.00    -0.240 NA
ENDBRANCH  19  21
ENDBRANCH  18  19
ENDBRANCH  17  18
ENDBRANCH  16  17
ENDBRANCH   4  16
TORSDOF 7
ENDMDL
MODEL 9
REMARK VINA RESULT:      -5.8      1.710      2.241
REMARK  Name = 
REMARK                            x       y       z     vdW  Elec       q    Type
REMARK                         _______ _______ _______ _____ _____    ______ ____
ROOT
ATOM      1  C   LIG    1       25.907   3.331  18.750  0.00  0.00    -0.046 A 
ATOM      2  C   LIG    1       25.542   2.179  19.441  0.00  0.00    +0.007 A 
ATOM      3  C   LIG    1       26.392   1.618  20.388  0.00  0.00    +0.046 A 
ATOM      4  C   LIG    1       27.658   2.158  20.641  0.00  0.00    +0.121 A 
ATOM      5  C   LIG    1       28.046   3.293  19.931  0.00  0.00    +0.046 A 
ATOM      6  C   LIG    1       27.175   3.880  18.996  0.00  0.00    +0.007 A 
ENDROOT
BRANCH   1   7
ATOM      7  C   LIG    1       24.938   3.935  17.760  0.00  0.00    +0.059 C 
BRANCH   7  10
ATOM      8  O   LIG    1       26.180   1.184  16.514  0.00  0.00    -0.274 OA
ATOM      9  C   LIG    1       25.678   2.192  16.031  0.00  0.00    +0.232 C 
ATOM     10  C   LIG    1       24.522   2.986  16.627  0.00  0.00    +0.143 C 
ATOM     11  S   LIG    1       23.939   4.003  15.204  0.00  0.00    -0.089 S 
ATOM     12  C   LIG    1       25.329   3.626  14.224  0.00  0.00    +0.114 C 
ATOM     13  S   LIG    1       25.671   4.237  12.725  0.00  0.00    -0.028 S 
ATOM     14  N   LIG    1       26.116   2.718  14.851  0.00  0.00    -0.273 N 
ATOM     15  H   LIG    1       26.889   2.284  14.368  0.00  0.00    +0.156 HD
ENDBRANCH   7  10
ENDBRANCH   1   7
BRANCH   4  16
ATOM     16  O   LIG    1       28.562   1.637  21.552  0.00  0.00    -0.490 OA
BRANCH  16  17
ATOM     17  C   LIG    1       29.683   1.029  20.899  0.00  0.00    +0.248 C 
BRANCH  17  18
ATOM     18  C   LIG    1       31.060   1.367  21.453  0.00  0.00    +0.147 C 
BRANCH  18  19
ATOM     19  N   LIG    1       31.787   0.224  22.091  0.00  0.00    -0.315 N 
ATOM     20  C   LIG    1       32.686   0.675  23.164  0.00  0.00    +0.131 C 
BRANCH  19  21
ATOM     21  C   LIG    1       31.111  -0.958  22.460  0.00  0.00    +0.121 A 
ATOM     22  C   LIG    1       31.281  -2.150  21.750  0.00  0.00    +0.043 A 
ATOM     23  C   LIG    1       30.625  -3.324  22.128  0.00  0.00    +0.005 A 
ATOM     24  C   LIG    1       29.861  -3.324  23.276  0.00  0.00    +0.020 A 
ATOM     25  C   LIG    1       29.784  -2.141  23.981  0.00  0.00    +0.113 A 
ATOM     26  N   LIG    1       30.371  -0.981  23.593  0.00  0.00    -0.240 NA
ENDBRANCH  19  21
ENDBRANCH  18  19
ENDBRANCH  17  18
ENDBRANCH  16  17
ENDBRANCH   4  16
TORSDOF 7
ENDMDL
