MODEL 1
REMARK VINA RESULT:      -8.2      0.000      0.000
REMARK  Name = 
REMARK                            x       y       z     vdW  Elec       q    Type
REMARK                         _______ _______ _______ _____ _____    ______ ____
ROOT
ATOM      1  C   LIG    1        6.993  20.392  29.202  0.00  0.00    -0.046 A 
ATOM      2  C   LIG    1        7.564  19.549  30.151  0.00  0.00    +0.007 A 
ATOM      3  C   LIG    1        6.773  18.709  30.926  0.00  0.00    +0.046 A 
ATOM      4  C   LIG    1        5.377  18.719  30.817  0.00  0.00    +0.121 A 
ATOM      5  C   LIG    1        4.792  19.583  29.894  0.00  0.00    +0.046 A 
ATOM      6  C   LIG    1        5.594  20.411  29.087  0.00  0.00    +0.007 A 
ENDROOT
BRANCH   1   7
ATOM      7  C   LIG    1        7.890  21.259  28.350  0.00  0.00    +0.059 C 
BRANCH   7  10
ATOM      8  O   LIG    1        6.701  19.277  26.042  0.00  0.00    -0.274 OA
ATOM      9  C   LIG    1        7.486  20.217  26.041  0.00  0.00    +0.232 C 
ATOM     10  C   LIG    1        7.387  21.463  26.913  0.00  0.00    +0.143 C 
ATOM     11  S   LIG    1        8.516  22.653  26.068  0.00  0.00    -0.089 S 
ATOM     12  C   LIG    1        9.205  21.431  25.034  0.00  0.00    +0.114 C 
ATOM     13  S   LIG    1       10.440  21.642  23.952  0.00  0.00    -0.028 S 
ATOM     14  N   LIG    1        8.568  20.249  25.211  0.00  0.00    -0.273 N 
ATOM     15  H   LIG    1        8.746  19.470  24.594  0.00  0.00    +0.156 HD
ENDBRANCH   7  10
ENDBRANCH   1   7
BRANCH   4  16
ATOM     16  O   LIG    1        4.529  17.926  31.573  0.00  0.00    -0.490 OA
BRANCH  16  17
ATOM     17  C   LIG    1        3.377  17.518  30.823  0.00  0.00    +0.248 C 
BRANCH  17  18
ATOM     18  C   LIG    1        2.025  17.983  31.347  0.00  0.00    +0.147 C 
BRANCH  18  19
ATOM     19  N   LIG    1        1.534  17.266  32.566  0.00  0.00    -0.315 N 
ATOM     20  C   LIG    1        1.989  15.868  32.601  0.00  0.00    +0.131 C 
BRANCH  19  21
ATOM     21  C   LIG    1        1.614  17.857  33.844  0.00  0.00    +0.121 A 
ATOM     22  C   LIG    1        2.717  18.626  34.227  0.00  0.00    +0.043 A 
ATOM     23  C   LIG    1        2.785  19.225  35.487  0.00  0.00    +0.005 A 
ATOM     24  C   LIG    1        1.703  19.124  36.336  0.00  0.00    +0.020 A 
ATOM     25  C   LIG    1        0.610  18.416  35.882  0.00  0.00    +0.113 A 
ATOM     26  N   LIG    1        0.555  17.782  34.684  0.00  0.00    -0.240 NA
ENDBRANCH  19  21
ENDBRANCH  18  19
ENDBRANCH  17  18
ENDBRANCH  16  17
ENDBRANCH   4  16
TORSDOF 7
ENDMDL
MODEL 2
REMARK VINA RESULT:      -8.2      4.082      8.349
REMARK  Name = 
REMARK                            x       y       z     vdW  Elec       q    Type
REMARK                         _______ _______ _______ _____ _____    ______ ____
ROOT
ATOM      1  C   LIG    1        4.115  18.092  30.827  0.00  0.00    -0.046 A 
ATOM      2  C   LIG    1        5.402  17.585  30.986  0.00  0.00    +0.007 A 
ATOM      3  C   LIG    1        6.515  18.386  30.761  0.00  0.00    +0.046 A 
ATOM      4  C   LIG    1        6.385  19.707  30.318  0.00  0.00    +0.121 A 
ATOM      5  C   LIG    1        5.101  20.214  30.123  0.00  0.00    +0.046 A 
ATOM      6  C   LIG    1        3.972  19.415  30.381  0.00  0.00    +0.007 A 
ENDROOT
BRANCH   1   7
ATOM      7  C   LIG    1        2.929  17.202  31.123  0.00  0.00    +0.059 C 
BRANCH   7  10
ATOM      8  O   LIG    1        1.451  14.600  32.431  0.00  0.00    -0.274 OA
ATOM      9  C   LIG    1        1.733  15.720  32.840  0.00  0.00    +0.232 C 
ATOM     10  C   LIG    1        2.991  16.507  32.491  0.00  0.00    +0.143 C 
ATOM     11  S   LIG    1        3.044  17.807  33.799  0.00  0.00    -0.089 S 
ATOM     12  C   LIG    1        1.426  17.471  34.351  0.00  0.00    +0.114 C 
ATOM     13  S   LIG    1        0.594  18.296  35.520  0.00  0.00    -0.028 S 
ATOM     14  N   LIG    1        0.918  16.397  33.699  0.00  0.00    -0.273 N 
ATOM     15  H   LIG    1        0.047  15.980  33.993  0.00  0.00    +0.156 HD
ENDBRANCH   7  10
ENDBRANCH   1   7
BRANCH   4  16
ATOM     16  O   LIG    1        7.449  20.552  30.053  0.00  0.00    -0.490 OA
BRANCH  16  17
ATOM     17  C   LIG    1        7.827  20.511  28.670  0.00  0.00    +0.248 C 
BRANCH  17  18
ATOM     18  C   LIG    1        6.937  21.274  27.699  0.00  0.00    +0.147 C 
BRANCH  18  19
ATOM     19  N   LIG    1        6.442  20.477  26.532  0.00  0.00    -0.315 N 
ATOM     20  C   LIG    1        7.544  19.852  25.786  0.00  0.00    +0.131 C 
BRANCH  19  21
ATOM     21  C   LIG    1        5.350  19.593  26.660  0.00  0.00    +0.121 A 
ATOM     22  C   LIG    1        5.530  18.259  27.038  0.00  0.00    +0.043 A 
ATOM     23  C   LIG    1        4.446  17.389  27.182  0.00  0.00    +0.005 A 
ATOM     24  C   LIG    1        3.167  17.883  27.029  0.00  0.00    +0.020 A 
ATOM     25  C   LIG    1        3.041  19.223  26.728  0.00  0.00    +0.113 A 
ATOM     26  N   LIG    1        4.088  20.063  26.531  0.00  0.00    -0.240 NA
ENDBRANCH  19  21
ENDBRANCH  18  19
ENDBRANCH  17  18
ENDBRANCH  16  17
ENDBRANCH   4  16
TORSDOF 7
ENDMDL
MODEL 3
REMARK VINA RESULT:      -7.6      3.946      9.626
REMARK  Name = 
REMARK                            x       y       z     vdW  Elec       q    Type
REMARK                         _______ _______ _______ _____ _____    ______ ____
ROOT
ATOM      1  C   LIG    1        2.472  17.970  30.913  0.00  0.00    -0.046 A 
ATOM      2  C   LIG    1        3.527  17.062  30.895  0.00  0.00    +0.007 A 
ATOM      3  C   LIG    1        4.286  16.874  29.746  0.00  0.00    +0.046 A 
ATOM      4  C   LIG    1        3.985  17.548  28.557  0.00  0.00    +0.121 A 
ATOM      5  C   LIG    1        2.910  18.434  28.553  0.00  0.00    +0.046 A 
ATOM      6  C   LIG    1        2.161  18.650  29.725  0.00  0.00    +0.007 A 
ENDROOT
BRANCH   1   7
ATOM      7  C   LIG    1        1.698  18.178  32.194  0.00  0.00    +0.059 C 
BRANCH   7  10
ATOM      8  O   LIG    1        0.750  15.757  34.171  0.00  0.00    -0.274 OA
ATOM      9  C   LIG    1        1.290  16.842  34.345  0.00  0.00    +0.232 C 
ATOM     10  C   LIG    1        2.314  17.488  33.420  0.00  0.00    +0.143 C 
ATOM     11  S   LIG    1        3.081  18.782  34.488  0.00  0.00    -0.089 S 
ATOM     12  C   LIG    1        1.872  18.625  35.733  0.00  0.00    +0.114 C 
ATOM     13  S   LIG    1        1.750  19.542  37.105  0.00  0.00    -0.028 S 
ATOM     14  N   LIG    1        1.026  17.608  35.443  0.00  0.00    -0.273 N 
ATOM     15  H   LIG    1        0.351  17.289  36.123  0.00  0.00    +0.156 HD
ENDBRANCH   7  10
ENDBRANCH   1   7
BRANCH   4  16
ATOM     16  O   LIG    1        4.684  17.391  27.371  0.00  0.00    -0.490 OA
BRANCH  16  17
ATOM     17  C   LIG    1        4.908  18.647  26.717  0.00  0.00    +0.248 C 
BRANCH  17  18
ATOM     18  C   LIG    1        6.316  19.219  26.805  0.00  0.00    +0.147 C 
BRANCH  18  19
ATOM     19  N   LIG    1        6.393  20.713  26.855  0.00  0.00    -0.315 N 
ATOM     20  C   LIG    1        6.113  21.233  28.202  0.00  0.00    +0.131 C 
BRANCH  19  21
ATOM     21  C   LIG    1        7.462  21.411  26.255  0.00  0.00    +0.121 A 
ATOM     22  C   LIG    1        8.379  20.767  25.420  0.00  0.00    +0.043 A 
ATOM     23  C   LIG    1        9.427  21.464  24.812  0.00  0.00    +0.005 A 
ATOM     24  C   LIG    1        9.504  22.832  24.975  0.00  0.00    +0.020 A 
ATOM     25  C   LIG    1        8.531  23.430  25.749  0.00  0.00    +0.113 A 
ATOM     26  N   LIG    1        7.543  22.755  26.390  0.00  0.00    -0.240 NA
ENDBRANCH  19  21
ENDBRANCH  18  19
ENDBRANCH  17  18
ENDBRANCH  16  17
ENDBRANCH   4  16
TORSDOF 7
ENDMDL
MODEL 4
REMARK VINA RESULT:      -7.4      2.065      3.614
REMARK  Name = 
REMARK                            x       y       z     vdW  Elec       q    Type
REMARK                         _______ _______ _______ _____ _____    ______ ____
ROOT
ATOM      1  C   LIG    1        4.022  20.061  28.085  0.00  0.00    -0.046 A 
ATOM      2  C   LIG    1        3.314  18.906  27.766  0.00  0.00    +0.007 A 
ATOM      3  C   LIG    1        2.295  18.445  28.591  0.00  0.00    +0.046 A 
ATOM      4  C   LIG    1        1.982  19.091  29.793  0.00  0.00    +0.121 A 
ATOM      5  C   LIG    1        2.707  20.230  30.139  0.00  0.00    +0.046 A 
ATOM      6  C   LIG    1        3.717  20.716  29.289  0.00  0.00    +0.007 A 
ENDROOT
BRANCH   1   7
ATOM      7  C   LIG    1        5.094  20.555  27.141  0.00  0.00    +0.059 C 
BRANCH   7  10
ATOM      8  O   LIG    1        7.426  20.529  29.427  0.00  0.00    -0.274 OA
ATOM      9  C   LIG    1        7.428  20.559  28.203  0.00  0.00    +0.232 C 
ATOM     10  C   LIG    1        6.444  19.838  27.290  0.00  0.00    +0.143 C 
ATOM     11  S   LIG    1        7.297  19.863  25.655  0.00  0.00    -0.089 S 
ATOM     12  C   LIG    1        8.504  21.004  26.180  0.00  0.00    +0.114 C 
ATOM     13  S   LIG    1        9.690  21.682  25.246  0.00  0.00    -0.028 S 
ATOM     14  N   LIG    1        8.364  21.263  27.503  0.00  0.00    -0.273 N 
ATOM     15  H   LIG    1        9.064  21.794  28.002  0.00  0.00    +0.156 HD
ENDBRANCH   7  10
ENDBRANCH   1   7
BRANCH   4  16
ATOM     16  O   LIG    1        0.996  18.673  30.671  0.00  0.00    -0.490 OA
BRANCH  16  17
ATOM     17  C   LIG    1        1.253  19.123  32.009  0.00  0.00    +0.248 C 
BRANCH  17  18
ATOM     18  C   LIG    1        1.159  18.075  33.109  0.00  0.00    +0.147 C 
BRANCH  18  19
ATOM     19  N   LIG    1        2.221  17.020  33.074  0.00  0.00    -0.315 N 
ATOM     20  C   LIG    1        1.652  15.672  32.926  0.00  0.00    +0.131 C 
BRANCH  19  21
ATOM     21  C   LIG    1        3.378  17.172  32.281  0.00  0.00    +0.121 A 
ATOM     22  C   LIG    1        3.593  16.387  31.144  0.00  0.00    +0.043 A 
ATOM     23  C   LIG    1        4.731  16.552  30.350  0.00  0.00    +0.005 A 
ATOM     24  C   LIG    1        5.615  17.568  30.649  0.00  0.00    +0.020 A 
ATOM     25  C   LIG    1        5.318  18.360  31.738  0.00  0.00    +0.113 A 
ATOM     26  N   LIG    1        4.247  18.174  32.550  0.00  0.00    -0.240 NA
ENDBRANCH  19  21
ENDBRANCH  18  19
ENDBRANCH  17  18
ENDBRANCH  16  17
ENDBRANCH   4  16
TORSDOF 7
ENDMDL
MODEL 5
REMARK VINA RESULT:      -7.4      1.939      2.567
REMARK  Name = 
REMARK                            x       y       z     vdW  Elec       q    Type
REMARK                         _______ _______ _______ _____ _____    ______ ____
ROOT
ATOM      1  C   LIG    1        7.521  20.079  28.382  0.00  0.00    -0.046 A 
ATOM      2  C   LIG    1        6.371  19.618  27.748  0.00  0.00    +0.007 A 
ATOM      3  C   LIG    1        5.388  18.939  28.459  0.00  0.00    +0.046 A 
ATOM      4  C   LIG    1        5.543  18.651  29.820  0.00  0.00    +0.121 A 
ATOM      5  C   LIG    1        6.705  19.079  30.458  0.00  0.00    +0.046 A 
ATOM      6  C   LIG    1        7.686  19.794  29.747  0.00  0.00    +0.007 A 
ENDROOT
BRANCH   1   7
ATOM      7  C   LIG    1        8.546  20.851  27.584  0.00  0.00    +0.059 C 
BRANCH   7  10
ATOM      8  O   LIG    1        9.757  21.221  24.573  0.00  0.00    -0.274 OA
ATOM      9  C   LIG    1        9.093  21.928  25.321  0.00  0.00    +0.232 C 
ATOM     10  C   LIG    1        8.006  21.445  26.274  0.00  0.00    +0.143 C 
ATOM     11  S   LIG    1        7.087  22.993  26.676  0.00  0.00    -0.089 S 
ATOM     12  C   LIG    1        8.298  24.025  25.965  0.00  0.00    +0.114 C 
ATOM     13  S   LIG    1        8.305  25.680  25.969  0.00  0.00    -0.028 S 
ATOM     14  N   LIG    1        9.259  23.281  25.367  0.00  0.00    -0.273 N 
ATOM     15  H   LIG    1        9.962  23.716  24.787  0.00  0.00    +0.156 HD
ENDBRANCH   7  10
ENDBRANCH   1   7
BRANCH   4  16
ATOM     16  O   LIG    1        4.616  17.960  30.582  0.00  0.00    -0.490 OA
BRANCH  16  17
ATOM     17  C   LIG    1        3.484  17.552  29.802  0.00  0.00    +0.248 C 
BRANCH  17  18
ATOM     18  C   LIG    1        2.178  18.291  30.059  0.00  0.00    +0.147 C 
BRANCH  18  19
ATOM     19  N   LIG    1        2.202  19.240  31.216  0.00  0.00    -0.315 N 
ATOM     20  C   LIG    1        1.420  20.456  30.946  0.00  0.00    +0.131 C 
BRANCH  19  21
ATOM     21  C   LIG    1        1.996  18.789  32.537  0.00  0.00    +0.121 A 
ATOM     22  C   LIG    1        0.716  18.504  33.022  0.00  0.00    +0.043 A 
ATOM     23  C   LIG    1        0.515  18.040  34.324  0.00  0.00    +0.005 A 
ATOM     24  C   LIG    1        1.613  17.777  35.117  0.00  0.00    +0.020 A 
ATOM     25  C   LIG    1        2.857  18.006  34.567  0.00  0.00    +0.113 A 
ATOM     26  N   LIG    1        3.061  18.510  33.323  0.00  0.00    -0.240 NA
ENDBRANCH  19  21
ENDBRANCH  18  19
ENDBRANCH  17  18
ENDBRANCH  16  17
ENDBRANCH   4  16
TORSDOF 7
ENDMDL
MODEL 6
REMARK VINA RESULT:      -7.4      2.017      2.699
REMARK  Name = 
REMARK                            x       y       z     vdW  Elec       q    Type
REMARK                         _______ _______ _______ _____ _____    ______ ____
ROOT
ATOM      1  C   LIG    1        6.647  20.242  27.183  0.00  0.00    -0.046 A 
ATOM      2  C   LIG    1        5.577  19.717  26.464  0.00  0.00    +0.007 A 
ATOM      3  C   LIG    1        4.286  19.755  26.978  0.00  0.00    +0.046 A 
ATOM      4  C   LIG    1        4.025  20.273  28.252  0.00  0.00    +0.121 A 
ATOM      5  C   LIG    1        5.094  20.771  28.995  0.00  0.00    +0.046 A 
ATOM      6  C   LIG    1        6.397  20.762  28.463  0.00  0.00    +0.007 A 
ENDROOT
BRANCH   1   7
ATOM      7  C   LIG    1        8.029  20.220  26.572  0.00  0.00    +0.059 C 
BRANCH   7  10
ATOM      8  O   LIG    1       10.540  21.059  24.658  0.00  0.00    -0.274 OA
ATOM      9  C   LIG    1        9.591  21.666  25.140  0.00  0.00    +0.232 C 
ATOM     10  C   LIG    1        8.183  21.114  25.333  0.00  0.00    +0.143 C 
ATOM     11  S   LIG    1        7.171  22.634  25.586  0.00  0.00    -0.089 S 
ATOM     12  C   LIG    1        8.565  23.661  25.781  0.00  0.00    +0.114 C 
ATOM     13  S   LIG    1        8.554  25.273  26.156  0.00  0.00    -0.028 S 
ATOM     14  N   LIG    1        9.702  22.959  25.559  0.00  0.00    -0.273 N 
ATOM     15  H   LIG    1       10.594  23.429  25.493  0.00  0.00    +0.156 HD
ENDBRANCH   7  10
ENDBRANCH   1   7
BRANCH   4  16
ATOM     16  O   LIG    1        2.769  20.322  28.834  0.00  0.00    -0.490 OA
BRANCH  16  17
ATOM     17  C   LIG    1        2.764  19.722  30.136  0.00  0.00    +0.248 C 
BRANCH  17  18
ATOM     18  C   LIG    1        2.442  18.236  30.200  0.00  0.00    +0.147 C 
BRANCH  18  19
ATOM     19  N   LIG    1        3.015  17.511  31.378  0.00  0.00    -0.315 N 
ATOM     20  C   LIG    1        4.485  17.500  31.354  0.00  0.00    +0.131 C 
BRANCH  19  21
ATOM     21  C   LIG    1        2.531  17.738  32.684  0.00  0.00    +0.121 A 
ATOM     22  C   LIG    1        3.357  18.241  33.693  0.00  0.00    +0.043 A 
ATOM     23  C   LIG    1        2.871  18.482  34.981  0.00  0.00    +0.005 A 
ATOM     24  C   LIG    1        1.527  18.299  35.234  0.00  0.00    +0.020 A 
ATOM     25  C   LIG    1        0.741  17.871  34.184  0.00  0.00    +0.113 A 
ATOM     26  N   LIG    1        1.213  17.580  32.946  0.00  0.00    -0.240 NA
ENDBRANCH  19  21
ENDBRANCH  18  19
ENDBRANCH  17  18
ENDBRANCH  16  17
ENDBRANCH   4  16
TORSDOF 7
ENDMDL
MODEL 7
REMARK VINA RESULT:      -7.3      3.944      8.515
REMARK  Name = 
REMARK                            x       y       z     vdW  Elec       q    Type
REMARK                         _______ _______ _______ _____ _____    ______ ____
ROOT
ATOM      1  C   LIG    1        2.549  17.883  30.758  0.00  0.00    -0.046 A 
ATOM      2  C   LIG    1        3.695  17.093  30.765  0.00  0.00    +0.007 A 
ATOM      3  C   LIG    1        4.490  16.980  29.631  0.00  0.00    +0.046 A 
ATOM      4  C   LIG    1        4.140  17.610  28.431  0.00  0.00    +0.121 A 
ATOM      5  C   LIG    1        2.976  18.377  28.402  0.00  0.00    +0.046 A 
ATOM      6  C   LIG    1        2.188  18.518  29.559  0.00  0.00    +0.007 A 
ENDROOT
BRANCH   1   7
ATOM      7  C   LIG    1        1.735  18.015  32.024  0.00  0.00    +0.059 C 
BRANCH   7  10
ATOM      8  O   LIG    1        0.879  15.573  34.018  0.00  0.00    -0.274 OA
ATOM      9  C   LIG    1        1.377  16.681  34.185  0.00  0.00    +0.232 C 
ATOM     10  C   LIG    1        2.376  17.359  33.256  0.00  0.00    +0.143 C 
ATOM     11  S   LIG    1        3.091  18.690  34.314  0.00  0.00    -0.089 S 
ATOM     12  C   LIG    1        1.888  18.495  35.559  0.00  0.00    +0.114 C 
ATOM     13  S   LIG    1        1.728  19.417  36.925  0.00  0.00    -0.028 S 
ATOM     14  N   LIG    1        1.082  17.444  35.276  0.00  0.00    -0.273 N 
ATOM     15  H   LIG    1        0.419  17.103  35.958  0.00  0.00    +0.156 HD
ENDBRANCH   7  10
ENDBRANCH   1   7
BRANCH   4  16
ATOM     16  O   LIG    1        4.872  17.521  27.259  0.00  0.00    -0.490 OA
BRANCH  16  17
ATOM     17  C   LIG    1        4.422  18.467  26.279  0.00  0.00    +0.248 C 
BRANCH  17  18
ATOM     18  C   LIG    1        5.164  19.794  26.224  0.00  0.00    +0.147 C 
BRANCH  18  19
ATOM     19  N   LIG    1        6.554  19.769  26.780  0.00  0.00    -0.315 N 
ATOM     20  C   LIG    1        7.524  20.387  25.863  0.00  0.00    +0.131 C 
BRANCH  19  21
ATOM     21  C   LIG    1        6.814  20.139  28.116  0.00  0.00    +0.121 A 
ATOM     22  C   LIG    1        5.780  20.453  29.003  0.00  0.00    +0.043 A 
ATOM     23  C   LIG    1        6.039  20.801  30.331  0.00  0.00    +0.005 A 
ATOM     24  C   LIG    1        7.337  20.750  30.796  0.00  0.00    +0.020 A 
ATOM     25  C   LIG    1        8.312  20.364  29.900  0.00  0.00    +0.113 A 
ATOM     26  N   LIG    1        8.079  20.078  28.594  0.00  0.00    -0.240 NA
ENDBRANCH  19  21
ENDBRANCH  18  19
ENDBRANCH  17  18
ENDBRANCH  16  17
ENDBRANCH   4  16
TORSDOF 7
ENDMDL
MODEL 8
REMARK VINA RESULT:      -7.2      1.792      2.275
REMARK  Name = 
REMARK                            x       y       z     vdW  Elec       q    Type
REMARK                         _______ _______ _______ _____ _____    ______ ____
ROOT
ATOM      1  C   LIG    1        6.877  20.304  27.115  0.00  0.00    -0.046 A 
ATOM      2  C   LIG    1        7.493  20.486  28.350  0.00  0.00    +0.007 A 
ATOM      3  C   LIG    1        7.030  19.824  29.482  0.00  0.00    +0.046 A 
ATOM      4  C   LIG    1        5.902  18.998  29.431  0.00  0.00    +0.121 A 
ATOM      5  C   LIG    1        5.257  18.835  28.206  0.00  0.00    +0.046 A 
ATOM      6  C   LIG    1        5.743  19.478  27.053  0.00  0.00    +0.007 A 
ENDROOT
BRANCH   1   7
ATOM      7  C   LIG    1        7.437  21.007  25.900  0.00  0.00    +0.059 C 
BRANCH   7  10
ATOM      8  O   LIG    1        8.496  23.977  26.755  0.00  0.00    -0.274 OA
ATOM      9  C   LIG    1        8.855  23.144  25.931  0.00  0.00    +0.232 C 
ATOM     10  C   LIG    1        8.823  21.632  26.118  0.00  0.00    +0.143 C 
ATOM     11  S   LIG    1        9.947  21.024  24.787  0.00  0.00    -0.089 S 
ATOM     12  C   LIG    1       10.017  22.572  23.990  0.00  0.00    +0.114 C 
ATOM     13  S   LIG    1       10.791  22.911  22.567  0.00  0.00    -0.028 S 
ATOM     14  N   LIG    1        9.355  23.506  24.714  0.00  0.00    -0.273 N 
ATOM     15  H   LIG    1        9.413  24.484  24.471  0.00  0.00    +0.156 HD
ENDBRANCH   7  10
ENDBRANCH   1   7
BRANCH   4  16
ATOM     16  O   LIG    1        5.373  18.328  30.522  0.00  0.00    -0.490 OA
BRANCH  16  17
ATOM     17  C   LIG    1        4.675  17.140  30.128  0.00  0.00    +0.248 C 
BRANCH  17  18
ATOM     18  C   LIG    1        3.240  17.000  30.615  0.00  0.00    +0.147 C 
BRANCH  18  19
ATOM     19  N   LIG    1        2.672  18.218  31.277  0.00  0.00    -0.315 N 
ATOM     20  C   LIG    1        1.676  18.890  30.430  0.00  0.00    +0.131 C 
BRANCH  19  21
ATOM     21  C   LIG    1        2.255  18.190  32.625  0.00  0.00    +0.121 A 
ATOM     22  C   LIG    1        3.154  18.407  33.673  0.00  0.00    +0.043 A 
ATOM     23  C   LIG    1        2.736  18.398  35.006  0.00  0.00    +0.005 A 
ATOM     24  C   LIG    1        1.392  18.256  35.285  0.00  0.00    +0.020 A 
ATOM     25  C   LIG    1        0.537  18.119  34.212  0.00  0.00    +0.113 A 
ATOM     26  N   LIG    1        0.939  18.069  32.916  0.00  0.00    -0.240 NA
ENDBRANCH  19  21
ENDBRANCH  18  19
ENDBRANCH  17  18
ENDBRANCH  16  17
ENDBRANCH   4  16
TORSDOF 7
ENDMDL
MODEL 9
REMARK VINA RESULT:      -7.0      2.441      4.451
REMARK  Name = 
REMARK                            x       y       z     vdW  Elec       q    Type
REMARK                         _______ _______ _______ _____ _____    ______ ____
ROOT
ATOM      1  C   LIG    1        7.343  20.771  29.042  0.00  0.00    -0.046 A 
ATOM      2  C   LIG    1        5.973  20.899  29.256  0.00  0.00    +0.007 A 
ATOM      3  C   LIG    1        5.308  20.053  30.136  0.00  0.00    +0.046 A 
ATOM      4  C   LIG    1        5.978  19.014  30.793  0.00  0.00    +0.121 A 
ATOM      5  C   LIG    1        7.343  18.856  30.560  0.00  0.00    +0.046 A 
ATOM      6  C   LIG    1        8.024  19.732  29.695  0.00  0.00    +0.007 A 
ENDROOT
BRANCH   1   7
ATOM      7  C   LIG    1        8.038  21.739  28.111  0.00  0.00    +0.059 C 
BRANCH   7  10
ATOM      8  O   LIG    1        7.156  19.340  26.077  0.00  0.00    -0.274 OA
ATOM      9  C   LIG    1        7.808  20.369  25.954  0.00  0.00    +0.232 C 
ATOM     10  C   LIG    1        7.532  21.691  26.662  0.00  0.00    +0.143 C 
ATOM     11  S   LIG    1        8.502  22.905  25.669  0.00  0.00    -0.089 S 
ATOM     12  C   LIG    1        9.363  21.667  24.796  0.00  0.00    +0.114 C 
ATOM     13  S   LIG    1       10.573  21.903  23.692  0.00  0.00    -0.028 S 
ATOM     14  N   LIG    1        8.887  20.442  25.123  0.00  0.00    -0.273 N 
ATOM     15  H   LIG    1        9.176  19.622  24.609  0.00  0.00    +0.156 HD
ENDBRANCH   7  10
ENDBRANCH   1   7
BRANCH   4  16
ATOM     16  O   LIG    1        5.374  18.122  31.663  0.00  0.00    -0.490 OA
BRANCH  16  17
ATOM     17  C   LIG    1        3.944  18.211  31.606  0.00  0.00    +0.248 C 
BRANCH  17  18
ATOM     18  C   LIG    1        3.243  17.275  30.631  0.00  0.00    +0.147 C 
BRANCH  18  19
ATOM     19  N   LIG    1        2.426  17.954  29.575  0.00  0.00    -0.315 N 
ATOM     20  C   LIG    1        1.731  19.141  30.096  0.00  0.00    +0.131 C 
BRANCH  19  21
ATOM     21  C   LIG    1        2.950  18.198  28.288  0.00  0.00    +0.121 A 
ATOM     22  C   LIG    1        2.991  19.486  27.747  0.00  0.00    +0.043 A 
ATOM     23  C   LIG    1        3.527  19.728  26.479  0.00  0.00    +0.005 A 
ATOM     24  C   LIG    1        4.105  18.684  25.787  0.00  0.00    +0.020 A 
ATOM     25  C   LIG    1        4.104  17.447  26.397  0.00  0.00    +0.113 A 
ATOM     26  N   LIG    1        3.536  17.189  27.602  0.00  0.00    -0.240 NA
ENDBRANCH  19  21
ENDBRANCH  18  19
ENDBRANCH  17  18
ENDBRANCH  16  17
ENDBRANCH   4  16
TORSDOF 7
ENDMDL
