MODEL 1
REMARK VINA RESULT:      -9.7      0.000      0.000
REMARK  Name = 
REMARK                            x       y       z     vdW  Elec       q    Type
REMARK                         _______ _______ _______ _____ _____    ______ ____
ROOT
ATOM      1  C   LIG    1       19.778 -15.077  18.051  0.00  0.00    -0.046 A 
ATOM      2  C   LIG    1       20.499 -15.705  19.062  0.00  0.00    +0.007 A 
ATOM      3  C   LIG    1       21.884 -15.797  18.999  0.00  0.00    +0.046 A 
ATOM      4  C   LIG    1       22.596 -15.309  17.897  0.00  0.00    +0.121 A 
ATOM      5  C   LIG    1       21.882 -14.706  16.863  0.00  0.00    +0.046 A 
ATOM      6  C   LIG    1       20.483 -14.585  16.940  0.00  0.00    +0.007 A 
ENDROOT
BRANCH   1   7
ATOM      7  C   LIG    1       18.277 -14.959  18.177  0.00  0.00    +0.059 C 
BRANCH   7  10
ATOM      8  O   LIG    1       17.676 -18.161  17.936  0.00  0.00    -0.274 OA
ATOM      9  C   LIG    1       17.048 -17.202  18.369  0.00  0.00    +0.232 C 
ATOM     10  C   LIG    1       17.640 -16.005  19.104  0.00  0.00    +0.143 C 
ATOM     11  S   LIG    1       16.167 -15.243  19.911  0.00  0.00    -0.089 S 
ATOM     12  C   LIG    1       15.035 -16.208  19.004  0.00  0.00    +0.114 C 
ATOM     13  S   LIG    1       13.385 -16.092  19.052  0.00  0.00    -0.028 S 
ATOM     14  N   LIG    1       15.692 -17.115  18.242  0.00  0.00    -0.273 N 
ATOM     15  H   LIG    1       15.189 -17.845  17.760  0.00  0.00    +0.156 HD
ENDBRANCH   7  10
ENDBRANCH   1   7
BRANCH   4  16
ATOM     16  O   LIG    1       23.972 -15.387  17.759  0.00  0.00    -0.490 OA
BRANCH  16  17
ATOM     17  C   LIG    1       24.648 -15.046  18.977  0.00  0.00    +0.248 C 
BRANCH  17  18
ATOM     18  C   LIG    1       25.166 -13.620  19.092  0.00  0.00    +0.147 C 
BRANCH  18  19
ATOM     19  N   LIG    1       26.563 -13.409  18.597  0.00  0.00    -0.315 N 
ATOM     20  C   LIG    1       26.808 -12.007  18.225  0.00  0.00    +0.131 C 
BRANCH  19  21
ATOM     21  C   LIG    1       27.672 -13.954  19.279  0.00  0.00    +0.121 A 
ATOM     22  C   LIG    1       28.152 -13.388  20.463  0.00  0.00    +0.043 A 
ATOM     23  C   LIG    1       29.239 -13.939  21.147  0.00  0.00    +0.005 A 
ATOM     24  C   LIG    1       29.792 -15.116  20.685  0.00  0.00    +0.020 A 
ATOM     25  C   LIG    1       29.235 -15.673  19.554  0.00  0.00    +0.113 A 
ATOM     26  N   LIG    1       28.217 -15.116  18.850  0.00  0.00    -0.240 NA
ENDBRANCH  19  21
ENDBRANCH  18  19
ENDBRANCH  17  18
ENDBRANCH  16  17
ENDBRANCH   4  16
TORSDOF 7
ENDMDL
MODEL 2
REMARK VINA RESULT:      -9.5      1.149      1.737
REMARK  Name = 
REMARK                            x       y       z     vdW  Elec       q    Type
REMARK                         _______ _______ _______ _____ _____    ______ ____
ROOT
ATOM      1  C   LIG    1       19.503 -15.069  18.141  0.00  0.00    -0.046 A 
ATOM      2  C   LIG    1       20.136 -15.628  19.249  0.00  0.00    +0.007 A 
ATOM      3  C   LIG    1       21.522 -15.688  19.322  0.00  0.00    +0.046 A 
ATOM      4  C   LIG    1       22.327 -15.238  18.269  0.00  0.00    +0.121 A 
ATOM      5  C   LIG    1       21.704 -14.707  17.141  0.00  0.00    +0.046 A 
ATOM      6  C   LIG    1       20.302 -14.616  17.079  0.00  0.00    +0.007 A 
ENDROOT
BRANCH   1   7
ATOM      7  C   LIG    1       17.995 -14.983  18.118  0.00  0.00    +0.059 C 
BRANCH   7  10
ATOM      8  O   LIG    1       17.192 -18.137  17.838  0.00  0.00    -0.274 OA
ATOM      9  C   LIG    1       16.626 -17.146  18.283  0.00  0.00    +0.232 C 
ATOM     10  C   LIG    1       17.292 -15.998  19.032  0.00  0.00    +0.143 C 
ATOM     11  S   LIG    1       15.871 -15.154  19.850  0.00  0.00    -0.089 S 
ATOM     12  C   LIG    1       14.680 -16.033  18.931  0.00  0.00    +0.114 C 
ATOM     13  S   LIG    1       13.040 -15.814  18.982  0.00  0.00    -0.028 S 
ATOM     14  N   LIG    1       15.279 -16.971  18.158  0.00  0.00    -0.273 N 
ATOM     15  H   LIG    1       14.730 -17.662  17.667  0.00  0.00    +0.156 HD
ENDBRANCH   7  10
ENDBRANCH   1   7
BRANCH   4  16
ATOM     16  O   LIG    1       23.711 -15.289  18.267  0.00  0.00    -0.490 OA
BRANCH  16  17
ATOM     17  C   LIG    1       24.194 -16.627  18.445  0.00  0.00    +0.248 C 
BRANCH  17  18
ATOM     18  C   LIG    1       25.338 -16.813  19.431  0.00  0.00    +0.147 C 
BRANCH  18  19
ATOM     19  N   LIG    1       26.704 -16.554  18.877  0.00  0.00    -0.315 N 
ATOM     20  C   LIG    1       26.719 -16.607  17.407  0.00  0.00    +0.131 C 
BRANCH  19  21
ATOM     21  C   LIG    1       27.498 -15.489  19.353  0.00  0.00    +0.121 A 
ATOM     22  C   LIG    1       28.865 -15.412  19.071  0.00  0.00    +0.043 A 
ATOM     23  C   LIG    1       29.645 -14.347  19.529  0.00  0.00    +0.005 A 
ATOM     24  C   LIG    1       29.033 -13.309  20.200  0.00  0.00    +0.020 A 
ATOM     25  C   LIG    1       27.669 -13.398  20.389  0.00  0.00    +0.113 A 
ATOM     26  N   LIG    1       26.911 -14.454  19.999  0.00  0.00    -0.240 NA
ENDBRANCH  19  21
ENDBRANCH  18  19
ENDBRANCH  17  18
ENDBRANCH  16  17
ENDBRANCH   4  16
TORSDOF 7
ENDMDL
MODEL 3
REMARK VINA RESULT:      -9.2      2.247      3.535
REMARK  Name = 
REMARK                            x       y       z     vdW  Elec       q    Type
REMARK                         _______ _______ _______ _____ _____    ______ ____
ROOT
ATOM      1  C   LIG    1       20.725 -15.948  17.925  0.00  0.00    -0.046 A 
ATOM      2  C   LIG    1       21.695 -16.267  18.871  0.00  0.00    +0.007 A 
ATOM      3  C   LIG    1       22.844 -15.497  19.001  0.00  0.00    +0.046 A 
ATOM      4  C   LIG    1       23.091 -14.409  18.156  0.00  0.00    +0.121 A 
ATOM      5  C   LIG    1       22.142 -14.099  17.183  0.00  0.00    +0.046 A 
ATOM      6  C   LIG    1       20.963 -14.859  17.071  0.00  0.00    +0.007 A 
ENDROOT
BRANCH   1   7
ATOM      7  C   LIG    1       19.469 -16.784  17.843  0.00  0.00    +0.059 C 
BRANCH   7  10
ATOM      8  O   LIG    1       17.505 -18.656  19.662  0.00  0.00    -0.274 OA
ATOM      9  C   LIG    1       17.377 -17.576  19.098  0.00  0.00    +0.232 C 
ATOM     10  C   LIG    1       18.454 -16.507  18.962  0.00  0.00    +0.143 C 
ATOM     11  S   LIG    1       17.490 -15.001  18.508  0.00  0.00    -0.089 S 
ATOM     12  C   LIG    1       16.028 -15.897  18.200  0.00  0.00    +0.114 C 
ATOM     13  S   LIG    1       14.602 -15.285  17.625  0.00  0.00    -0.028 S 
ATOM     14  N   LIG    1       16.199 -17.202  18.521  0.00  0.00    -0.273 N 
ATOM     15  H   LIG    1       15.413 -17.837  18.536  0.00  0.00    +0.156 HD
ENDBRANCH   7  10
ENDBRANCH   1   7
BRANCH   4  16
ATOM     16  O   LIG    1       24.223 -13.614  18.216  0.00  0.00    -0.490 OA
BRANCH  16  17
ATOM     17  C   LIG    1       25.327 -14.307  18.813  0.00  0.00    +0.248 C 
BRANCH  17  18
ATOM     18  C   LIG    1       26.407 -14.811  17.865  0.00  0.00    +0.147 C 
BRANCH  18  19
ATOM     19  N   LIG    1       26.709 -16.274  17.966  0.00  0.00    -0.315 N 
ATOM     20  C   LIG    1       27.386 -16.609  19.227  0.00  0.00    +0.131 C 
BRANCH  19  21
ATOM     21  C   LIG    1       25.740 -17.245  17.636  0.00  0.00    +0.121 A 
ATOM     22  C   LIG    1       24.967 -17.143  16.476  0.00  0.00    +0.043 A 
ATOM     23  C   LIG    1       24.021 -18.116  16.142  0.00  0.00    +0.005 A 
ATOM     24  C   LIG    1       23.911 -19.241  16.933  0.00  0.00    +0.020 A 
ATOM     25  C   LIG    1       24.748 -19.328  18.026  0.00  0.00    +0.113 A 
ATOM     26  N   LIG    1       25.630 -18.363  18.391  0.00  0.00    -0.240 NA
ENDBRANCH  19  21
ENDBRANCH  18  19
ENDBRANCH  17  18
ENDBRANCH  16  17
ENDBRANCH   4  16
TORSDOF 7
ENDMDL
MODEL 4
REMARK VINA RESULT:      -8.8      1.622      2.444
REMARK  Name = 
REMARK                            x       y       z     vdW  Elec       q    Type
REMARK                         _______ _______ _______ _____ _____    ______ ____
ROOT
ATOM      1  C   LIG    1       18.524 -16.619  18.398  0.00  0.00    -0.046 A 
ATOM      2  C   LIG    1       19.436 -17.626  18.704  0.00  0.00    +0.007 A 
ATOM      3  C   LIG    1       20.795 -17.350  18.803  0.00  0.00    +0.046 A 
ATOM      4  C   LIG    1       21.298 -16.069  18.548  0.00  0.00    +0.121 A 
ATOM      5  C   LIG    1       20.398 -15.061  18.208  0.00  0.00    +0.046 A 
ATOM      6  C   LIG    1       19.019 -15.331  18.139  0.00  0.00    +0.007 A 
ENDROOT
BRANCH   1   7
ATOM      7  C   LIG    1       17.051 -16.950  18.342  0.00  0.00    +0.059 C 
BRANCH   7  10
ATOM      8  O   LIG    1       15.533 -18.569  20.740  0.00  0.00    -0.274 OA
ATOM      9  C   LIG    1       15.266 -17.575  20.075  0.00  0.00    +0.232 C 
ATOM     10  C   LIG    1       16.264 -16.529  19.592  0.00  0.00    +0.143 C 
ATOM     11  S   LIG    1       15.185 -15.101  19.143  0.00  0.00    -0.089 S 
ATOM     12  C   LIG    1       13.719 -16.037  19.247  0.00  0.00    +0.114 C 
ATOM     13  S   LIG    1       12.191 -15.513  18.888  0.00  0.00    -0.028 S 
ATOM     14  N   LIG    1       13.988 -17.286  19.696  0.00  0.00    -0.273 N 
ATOM     15  H   LIG    1       13.239 -17.916  19.948  0.00  0.00    +0.156 HD
ENDBRANCH   7  10
ENDBRANCH   1   7
BRANCH   4  16
ATOM     16  O   LIG    1       22.640 -15.731  18.606  0.00  0.00    -0.490 OA
BRANCH  16  17
ATOM     17  C   LIG    1       23.253 -15.770  17.311  0.00  0.00    +0.248 C 
BRANCH  17  18
ATOM     18  C   LIG    1       24.769 -15.904  17.279  0.00  0.00    +0.147 C 
BRANCH  18  19
ATOM     19  N   LIG    1       25.454 -15.685  18.592  0.00  0.00    -0.315 N 
ATOM     20  C   LIG    1       25.926 -16.947  19.183  0.00  0.00    +0.131 C 
BRANCH  19  21
ATOM     21  C   LIG    1       26.409 -14.660  18.757  0.00  0.00    +0.121 A 
ATOM     22  C   LIG    1       26.129 -13.335  18.408  0.00  0.00    +0.043 A 
ATOM     23  C   LIG    1       27.069 -12.318  18.589  0.00  0.00    +0.005 A 
ATOM     24  C   LIG    1       28.267 -12.617  19.204  0.00  0.00    +0.020 A 
ATOM     25  C   LIG    1       28.466 -13.924  19.596  0.00  0.00    +0.113 A 
ATOM     26  N   LIG    1       27.583 -14.931  19.374  0.00  0.00    -0.240 NA
ENDBRANCH  19  21
ENDBRANCH  18  19
ENDBRANCH  17  18
ENDBRANCH  16  17
ENDBRANCH   4  16
TORSDOF 7
ENDMDL
MODEL 5
REMARK VINA RESULT:      -8.8      2.103      2.672
REMARK  Name = 
REMARK                            x       y       z     vdW  Elec       q    Type
REMARK                         _______ _______ _______ _____ _____    ______ ____
ROOT
ATOM      1  C   LIG    1       20.799 -16.316  18.332  0.00  0.00    -0.046 A 
ATOM      2  C   LIG    1       21.422 -17.507  18.695  0.00  0.00    +0.007 A 
ATOM      3  C   LIG    1       22.553 -17.953  18.021  0.00  0.00    +0.046 A 
ATOM      4  C   LIG    1       23.072 -17.253  16.926  0.00  0.00    +0.121 A 
ATOM      5  C   LIG    1       22.436 -16.077  16.533  0.00  0.00    +0.046 A 
ATOM      6  C   LIG    1       21.311 -15.606  17.234  0.00  0.00    +0.007 A 
ENDROOT
BRANCH   1   7
ATOM      7  C   LIG    1       19.598 -15.842  19.117  0.00  0.00    +0.059 C 
BRANCH   7  10
ATOM      8  O   LIG    1       16.950 -13.945  18.874  0.00  0.00    -0.274 OA
ATOM      9  C   LIG    1       17.132 -15.151  18.988  0.00  0.00    +0.232 C 
ATOM     10  C   LIG    1       18.268 -15.946  18.356  0.00  0.00    +0.143 C 
ATOM     11  S   LIG    1       17.671 -17.688  18.471  0.00  0.00    -0.089 S 
ATOM     12  C   LIG    1       16.358 -17.281  19.541  0.00  0.00    +0.114 C 
ATOM     13  S   LIG    1       15.303 -18.341  20.250  0.00  0.00    -0.028 S 
ATOM     14  N   LIG    1       16.287 -15.939  19.712  0.00  0.00    -0.273 N 
ATOM     15  H   LIG    1       15.501 -15.521  20.190  0.00  0.00    +0.156 HD
ENDBRANCH   7  10
ENDBRANCH   1   7
BRANCH   4  16
ATOM     16  O   LIG    1       24.179 -17.652  16.196  0.00  0.00    -0.490 OA
BRANCH  16  17
ATOM     17  C   LIG    1       25.250 -16.704  16.295  0.00  0.00    +0.248 C 
BRANCH  17  18
ATOM     18  C   LIG    1       26.167 -16.836  17.503  0.00  0.00    +0.147 C 
BRANCH  18  19
ATOM     19  N   LIG    1       25.935 -15.832  18.589  0.00  0.00    -0.315 N 
ATOM     20  C   LIG    1       25.687 -16.476  19.888  0.00  0.00    +0.131 C 
BRANCH  19  21
ATOM     21  C   LIG    1       26.771 -14.705  18.734  0.00  0.00    +0.121 A 
ATOM     22  C   LIG    1       26.335 -13.422  18.391  0.00  0.00    +0.043 A 
ATOM     23  C   LIG    1       27.158 -12.304  18.553  0.00  0.00    +0.005 A 
ATOM     24  C   LIG    1       28.395 -12.464  19.143  0.00  0.00    +0.020 A 
ATOM     25  C   LIG    1       28.748 -13.740  19.530  0.00  0.00    +0.113 A 
ATOM     26  N   LIG    1       27.980 -14.840  19.327  0.00  0.00    -0.240 NA
ENDBRANCH  19  21
ENDBRANCH  18  19
ENDBRANCH  17  18
ENDBRANCH  16  17
ENDBRANCH   4  16
TORSDOF 7
ENDMDL
MODEL 6
REMARK VINA RESULT:      -8.5      3.937      9.999
REMARK  Name = 
REMARK                            x       y       z     vdW  Elec       q    Type
REMARK                         _______ _______ _______ _____ _____    ______ ____
ROOT
ATOM      1  C   LIG    1       24.554 -15.130  17.666  0.00  0.00    -0.046 A 
ATOM      2  C   LIG    1       24.427 -16.479  17.347  0.00  0.00    +0.007 A 
ATOM      3  C   LIG    1       23.176 -17.082  17.289  0.00  0.00    +0.046 A 
ATOM      4  C   LIG    1       22.010 -16.372  17.597  0.00  0.00    +0.121 A 
ATOM      5  C   LIG    1       22.129 -15.028  17.950  0.00  0.00    +0.046 A 
ATOM      6  C   LIG    1       23.391 -14.408  17.979  0.00  0.00    +0.007 A 
ENDROOT
BRANCH   1   7
ATOM      7  C   LIG    1       25.928 -14.501  17.677  0.00  0.00    +0.059 C 
BRANCH   7  10
ATOM      8  O   LIG    1       27.251 -11.525  17.927  0.00  0.00    -0.274 OA
ATOM      9  C   LIG    1       27.309 -12.546  18.601  0.00  0.00    +0.232 C 
ATOM     10  C   LIG    1       26.164 -13.524  18.838  0.00  0.00    +0.143 C 
ATOM     11  S   LIG    1       26.739 -14.490  20.300  0.00  0.00    -0.089 S 
ATOM     12  C   LIG    1       28.363 -13.865  20.211  0.00  0.00    +0.114 C 
ATOM     13  S   LIG    1       29.641 -14.308  21.164  0.00  0.00    -0.028 S 
ATOM     14  N   LIG    1       28.451 -12.919  19.246  0.00  0.00    -0.273 N 
ATOM     15  H   LIG    1       29.283 -12.354  19.151  0.00  0.00    +0.156 HD
ENDBRANCH   7  10
ENDBRANCH   1   7
BRANCH   4  16
ATOM     16  O   LIG    1       20.736 -16.915  17.581  0.00  0.00    -0.490 OA
BRANCH  16  17
ATOM     17  C   LIG    1       20.249 -17.164  18.907  0.00  0.00    +0.248 C 
BRANCH  17  18
ATOM     18  C   LIG    1       18.990 -18.011  19.021  0.00  0.00    +0.147 C 
BRANCH  18  19
ATOM     19  N   LIG    1       17.774 -17.436  18.363  0.00  0.00    -0.315 N 
ATOM     20  C   LIG    1       16.863 -18.484  17.879  0.00  0.00    +0.131 C 
BRANCH  19  21
ATOM     21  C   LIG    1       17.057 -16.374  18.952  0.00  0.00    +0.121 A 
ATOM     22  C   LIG    1       17.187 -15.059  18.493  0.00  0.00    +0.043 A 
ATOM     23  C   LIG    1       16.461 -14.012  19.066  0.00  0.00    +0.005 A 
ATOM     24  C   LIG    1       15.536 -14.298  20.049  0.00  0.00    +0.020 A 
ATOM     25  C   LIG    1       15.394 -15.620  20.415  0.00  0.00    +0.113 A 
ATOM     26  N   LIG    1       16.133 -16.637  19.905  0.00  0.00    -0.240 NA
ENDBRANCH  19  21
ENDBRANCH  18  19
ENDBRANCH  17  18
ENDBRANCH  16  17
ENDBRANCH   4  16
TORSDOF 7
ENDMDL
MODEL 7
REMARK VINA RESULT:      -8.4      2.566      3.639
REMARK  Name = 
REMARK                            x       y       z     vdW  Elec       q    Type
REMARK                         _______ _______ _______ _____ _____    ______ ____
ROOT
ATOM      1  C   LIG    1       19.197 -15.182  18.536  0.00  0.00    -0.046 A 
ATOM      2  C   LIG    1       20.201 -15.607  19.401  0.00  0.00    +0.007 A 
ATOM      3  C   LIG    1       21.542 -15.445  19.071  0.00  0.00    +0.046 A 
ATOM      4  C   LIG    1       21.928 -14.898  17.842  0.00  0.00    +0.121 A 
ATOM      5  C   LIG    1       20.931 -14.498  16.954  0.00  0.00    +0.046 A 
ATOM      6  C   LIG    1       19.574 -14.633  17.300  0.00  0.00    +0.007 A 
ENDROOT
BRANCH   1   7
ATOM      7  C   LIG    1       17.752 -15.336  18.950  0.00  0.00    +0.059 C 
BRANCH   7  10
ATOM      8  O   LIG    1       15.037 -15.414  17.135  0.00  0.00    -0.274 OA
ATOM      9  C   LIG    1       15.514 -16.146  17.994  0.00  0.00    +0.232 C 
ATOM     10  C   LIG    1       16.996 -16.440  18.195  0.00  0.00    +0.143 C 
ATOM     11  S   LIG    1       16.981 -17.955  19.246  0.00  0.00    -0.089 S 
ATOM     12  C   LIG    1       15.278 -17.831  19.591  0.00  0.00    +0.114 C 
ATOM     13  S   LIG    1       14.405 -18.808  20.602  0.00  0.00    -0.028 S 
ATOM     14  N   LIG    1       14.727 -16.812  18.887  0.00  0.00    -0.273 N 
ATOM     15  H   LIG    1       13.726 -16.686  18.860  0.00  0.00    +0.156 HD
ENDBRANCH   7  10
ENDBRANCH   1   7
BRANCH   4  16
ATOM     16  O   LIG    1       23.242 -14.729  17.440  0.00  0.00    -0.490 OA
BRANCH  16  17
ATOM     17  C   LIG    1       24.067 -14.250  18.511  0.00  0.00    +0.248 C 
BRANCH  17  18
ATOM     18  C   LIG    1       25.215 -15.152  18.941  0.00  0.00    +0.147 C 
BRANCH  18  19
ATOM     19  N   LIG    1       25.838 -15.957  17.843  0.00  0.00    -0.315 N 
ATOM     20  C   LIG    1       27.305 -15.978  17.941  0.00  0.00    +0.131 C 
BRANCH  19  21
ATOM     21  C   LIG    1       25.335 -17.227  17.490  0.00  0.00    +0.121 A 
ATOM     22  C   LIG    1       25.505 -18.337  18.323  0.00  0.00    +0.043 A 
ATOM     23  C   LIG    1       24.990 -19.591  17.981  0.00  0.00    +0.005 A 
ATOM     24  C   LIG    1       24.227 -19.711  16.838  0.00  0.00    +0.020 A 
ATOM     25  C   LIG    1       24.029 -18.570  16.089  0.00  0.00    +0.113 A 
ATOM     26  N   LIG    1       24.570 -17.361  16.382  0.00  0.00    -0.240 NA
ENDBRANCH  19  21
ENDBRANCH  18  19
ENDBRANCH  17  18
ENDBRANCH  16  17
ENDBRANCH   4  16
TORSDOF 7
ENDMDL
MODEL 8
REMARK VINA RESULT:      -8.4      2.543      3.984
REMARK  Name = 
REMARK                            x       y       z     vdW  Elec       q    Type
REMARK                         _______ _______ _______ _____ _____    ______ ____
ROOT
ATOM      1  C   LIG    1       18.237 -16.530  18.570  0.00  0.00    -0.046 A 
ATOM      2  C   LIG    1       19.077 -17.617  18.793  0.00  0.00    +0.007 A 
ATOM      3  C   LIG    1       20.437 -17.433  19.013  0.00  0.00    +0.046 A 
ATOM      4  C   LIG    1       21.016 -16.160  18.967  0.00  0.00    +0.121 A 
ATOM      5  C   LIG    1       20.190 -15.067  18.712  0.00  0.00    +0.046 A 
ATOM      6  C   LIG    1       18.808 -15.248  18.520  0.00  0.00    +0.007 A 
ENDROOT
BRANCH   1   7
ATOM      7  C   LIG    1       16.757 -16.768  18.378  0.00  0.00    +0.059 C 
BRANCH   7  10
ATOM      8  O   LIG    1       15.118 -18.651  20.484  0.00  0.00    -0.274 OA
ATOM      9  C   LIG    1       14.886 -17.583  19.931  0.00  0.00    +0.232 C 
ATOM     10  C   LIG    1       15.908 -16.494  19.628  0.00  0.00    +0.143 C 
ATOM     11  S   LIG    1       14.856 -15.015  19.301  0.00  0.00    -0.089 S 
ATOM     12  C   LIG    1       13.385 -15.945  19.218  0.00  0.00    +0.114 C 
ATOM     13  S   LIG    1       11.878 -15.370  18.849  0.00  0.00    -0.028 S 
ATOM     14  N   LIG    1       13.629 -17.242  19.526  0.00  0.00    -0.273 N 
ATOM     15  H   LIG    1       12.868 -17.891  19.663  0.00  0.00    +0.156 HD
ENDBRANCH   7  10
ENDBRANCH   1   7
BRANCH   4  16
ATOM     16  O   LIG    1       22.365 -15.907  19.154  0.00  0.00    -0.490 OA
BRANCH  16  17
ATOM     17  C   LIG    1       22.782 -14.718  18.470  0.00  0.00    +0.248 C 
BRANCH  17  18
ATOM     18  C   LIG    1       24.223 -14.683  17.982  0.00  0.00    +0.147 C 
BRANCH  18  19
ATOM     19  N   LIG    1       25.018 -15.921  18.257  0.00  0.00    -0.315 N 
ATOM     20  C   LIG    1       25.406 -16.022  19.672  0.00  0.00    +0.131 C 
BRANCH  19  21
ATOM     21  C   LIG    1       24.617 -17.176  17.752  0.00  0.00    +0.121 A 
ATOM     22  C   LIG    1       24.141 -17.320  16.445  0.00  0.00    +0.043 A 
ATOM     23  C   LIG    1       23.761 -18.567  15.941  0.00  0.00    +0.005 A 
ATOM     24  C   LIG    1       23.941 -19.688  16.723  0.00  0.00    +0.020 A 
ATOM     25  C   LIG    1       24.483 -19.501  17.978  0.00  0.00    +0.113 A 
ATOM     26  N   LIG    1       24.802 -18.289  18.499  0.00  0.00    -0.240 NA
ENDBRANCH  19  21
ENDBRANCH  18  19
ENDBRANCH  17  18
ENDBRANCH  16  17
ENDBRANCH   4  16
TORSDOF 7
ENDMDL
MODEL 9
REMARK VINA RESULT:      -8.2      3.037      4.185
REMARK  Name = 
REMARK                            x       y       z     vdW  Elec       q    Type
REMARK                         _______ _______ _______ _____ _____    ______ ____
ROOT
ATOM      1  C   LIG    1       17.315 -15.230  18.847  0.00  0.00    -0.046 A 
ATOM      2  C   LIG    1       17.496 -16.566  19.195  0.00  0.00    +0.007 A 
ATOM      3  C   LIG    1       18.688 -17.221  18.910  0.00  0.00    +0.046 A 
ATOM      4  C   LIG    1       19.724 -16.581  18.220  0.00  0.00    +0.121 A 
ATOM      5  C   LIG    1       19.540 -15.253  17.837  0.00  0.00    +0.046 A 
ATOM      6  C   LIG    1       18.347 -14.579  18.153  0.00  0.00    +0.007 A 
ENDROOT
BRANCH   1   7
ATOM      7  C   LIG    1       16.021 -14.541  19.213  0.00  0.00    +0.059 C 
BRANCH   7  10
ATOM      8  O   LIG    1       14.175 -11.937  18.522  0.00  0.00    -0.274 OA
ATOM      9  C   LIG    1       14.050 -13.143  18.353  0.00  0.00    +0.232 C 
ATOM     10  C   LIG    1       15.170 -14.117  18.007  0.00  0.00    +0.143 C 
ATOM     11  S   LIG    1       14.259 -15.598  17.392  0.00  0.00    -0.089 S 
ATOM     12  C   LIG    1       12.715 -15.014  17.948  0.00  0.00    +0.114 C 
ATOM     13  S   LIG    1       11.272 -15.822  17.873  0.00  0.00    -0.028 S 
ATOM     14  N   LIG    1       12.837 -13.761  18.448  0.00  0.00    -0.273 N 
ATOM     15  H   LIG    1       12.019 -13.218  18.686  0.00  0.00    +0.156 HD
ENDBRANCH   7  10
ENDBRANCH   1   7
BRANCH   4  16
ATOM     16  O   LIG    1       20.926 -17.179  17.883  0.00  0.00    -0.490 OA
BRANCH  16  17
ATOM     17  C   LIG    1       21.742 -16.317  17.079  0.00  0.00    +0.248 C 
BRANCH  17  18
ATOM     18  C   LIG    1       22.880 -16.976  16.312  0.00  0.00    +0.147 C 
BRANCH  18  19
ATOM     19  N   LIG    1       23.777 -17.849  17.133  0.00  0.00    -0.315 N 
ATOM     20  C   LIG    1       24.084 -19.116  16.452  0.00  0.00    +0.131 C 
BRANCH  19  21
ATOM     21  C   LIG    1       24.922 -17.327  17.773  0.00  0.00    +0.121 A 
ATOM     22  C   LIG    1       25.933 -16.686  17.052  0.00  0.00    +0.043 A 
ATOM     23  C   LIG    1       27.057 -16.153  17.689  0.00  0.00    +0.005 A 
ATOM     24  C   LIG    1       27.125 -16.188  19.066  0.00  0.00    +0.020 A 
ATOM     25  C   LIG    1       26.066 -16.767  19.735  0.00  0.00    +0.113 A 
ATOM     26  N   LIG    1       24.997 -17.338  19.123  0.00  0.00    -0.240 NA
ENDBRANCH  19  21
ENDBRANCH  18  19
ENDBRANCH  17  18
ENDBRANCH  16  17
ENDBRANCH   4  16
TORSDOF 7
ENDMDL
