MODEL 1
REMARK VINA RESULT:      -7.6      0.000      0.000
REMARK  Name = 
REMARK                            x       y       z     vdW  Elec       q    Type
REMARK                         _______ _______ _______ _____ _____    ______ ____
ROOT
ATOM      1  C   LIG    1        4.398   7.235  -5.416  0.00  0.00    -0.046 A 
ATOM      2  C   LIG    1        5.111   6.112  -5.825  0.00  0.00    +0.007 A 
ATOM      3  C   LIG    1        6.259   6.239  -6.598  0.00  0.00    +0.046 A 
ATOM      4  C   LIG    1        6.706   7.492  -7.035  0.00  0.00    +0.121 A 
ATOM      5  C   LIG    1        5.981   8.621  -6.659  0.00  0.00    +0.046 A 
ATOM      6  C   LIG    1        4.837   8.496  -5.850  0.00  0.00    +0.007 A 
ENDROOT
BRANCH   1   7
ATOM      7  C   LIG    1        3.180   7.057  -4.539  0.00  0.00    +0.059 C 
BRANCH   7  10
ATOM      8  O   LIG    1        1.725   4.758  -2.731  0.00  0.00    -0.274 OA
ATOM      9  C   LIG    1        2.245   5.840  -2.484  0.00  0.00    +0.232 C 
ATOM     10  C   LIG    1        3.475   6.418  -3.174  0.00  0.00    +0.143 C 
ATOM     11  S   LIG    1        4.015   7.748  -2.016  0.00  0.00    -0.089 S 
ATOM     12  C   LIG    1        2.548   7.678  -1.079  0.00  0.00    +0.114 C 
ATOM     13  S   LIG    1        2.141   8.665   0.186  0.00  0.00    -0.028 S 
ATOM     14  N   LIG    1        1.759   6.665  -1.512  0.00  0.00    -0.273 N 
ATOM     15  H   LIG    1        0.936   6.394  -0.994  0.00  0.00    +0.156 HD
ENDBRANCH   7  10
ENDBRANCH   1   7
BRANCH   4  16
ATOM     16  O   LIG    1        7.826   7.689  -7.826  0.00  0.00    -0.490 OA
BRANCH  16  17
ATOM     17  C   LIG    1        8.700   6.553  -7.801  0.00  0.00    +0.248 C 
BRANCH  17  18
ATOM     18  C   LIG    1       10.140   6.792  -8.233  0.00  0.00    +0.147 C 
BRANCH  18  19
ATOM     19  N   LIG    1       10.467   6.354  -9.627  0.00  0.00    -0.315 N 
ATOM     20  C   LIG    1        9.883   5.041  -9.941  0.00  0.00    +0.131 C 
BRANCH  19  21
ATOM     21  C   LIG    1       10.345   7.238 -10.720  0.00  0.00    +0.121 A 
ATOM     22  C   LIG    1       10.335   6.774 -12.038  0.00  0.00    +0.043 A 
ATOM     23  C   LIG    1       10.195   7.649 -13.119  0.00  0.00    +0.005 A 
ATOM     24  C   LIG    1        9.977   8.988 -12.870  0.00  0.00    +0.020 A 
ATOM     25  C   LIG    1        9.923   9.384 -11.550  0.00  0.00    +0.113 A 
ATOM     26  N   LIG    1       10.114   8.552 -10.495  0.00  0.00    -0.240 NA
ENDBRANCH  19  21
ENDBRANCH  18  19
ENDBRANCH  17  18
ENDBRANCH  16  17
ENDBRANCH   4  16
TORSDOF 7
ENDMDL
MODEL 2
REMARK VINA RESULT:      -7.3      6.846     11.397
REMARK  Name = 
REMARK                            x       y       z     vdW  Elec       q    Type
REMARK                         _______ _______ _______ _____ _____    ______ ____
ROOT
ATOM      1  C   LIG    1       11.090   2.277  -3.332  0.00  0.00    -0.046 A 
ATOM      2  C   LIG    1       10.588   2.643  -2.087  0.00  0.00    +0.007 A 
ATOM      3  C   LIG    1        9.422   3.392  -1.982  0.00  0.00    +0.046 A 
ATOM      4  C   LIG    1        8.744   3.848  -3.118  0.00  0.00    +0.121 A 
ATOM      5  C   LIG    1        9.257   3.516  -4.371  0.00  0.00    +0.046 A 
ATOM      6  C   LIG    1       10.419   2.730  -4.479  0.00  0.00    +0.007 A 
ENDROOT
BRANCH   1   7
ATOM      7  C   LIG    1       12.336   1.424  -3.404  0.00  0.00    +0.059 C 
BRANCH   7  10
ATOM      8  O   LIG    1       14.782   0.483  -5.354  0.00  0.00    -0.274 OA
ATOM      9  C   LIG    1       14.704   1.199  -4.363  0.00  0.00    +0.232 C 
ATOM     10  C   LIG    1       13.549   2.133  -4.024  0.00  0.00    +0.143 C 
ATOM     11  S   LIG    1       14.278   3.253  -2.753  0.00  0.00    -0.089 S 
ATOM     12  C   LIG    1       15.698   2.265  -2.541  0.00  0.00    +0.114 C 
ATOM     13  S   LIG    1       16.915   2.515  -1.448  0.00  0.00    -0.028 S 
ATOM     14  N   LIG    1       15.697   1.242  -3.428  0.00  0.00    -0.273 N 
ATOM     15  H   LIG    1       16.511   0.654  -3.538  0.00  0.00    +0.156 HD
ENDBRANCH   7  10
ENDBRANCH   1   7
BRANCH   4  16
ATOM     16  O   LIG    1        7.593   4.617  -3.086  0.00  0.00    -0.490 OA
BRANCH  16  17
ATOM     17  C   LIG    1        7.252   5.006  -1.749  0.00  0.00    +0.248 C 
BRANCH  17  18
ATOM     18  C   LIG    1        5.786   4.886  -1.358  0.00  0.00    +0.147 C 
BRANCH  18  19
ATOM     19  N   LIG    1        4.966   6.120  -1.578  0.00  0.00    -0.315 N 
ATOM     20  C   LIG    1        4.826   6.440  -3.006  0.00  0.00    +0.131 C 
BRANCH  19  21
ATOM     21  C   LIG    1        3.750   6.323  -0.891  0.00  0.00    +0.121 A 
ATOM     22  C   LIG    1        3.507   7.491  -0.163  0.00  0.00    +0.043 A 
ATOM     23  C   LIG    1        2.295   7.698   0.501  0.00  0.00    +0.005 A 
ATOM     24  C   LIG    1        1.289   6.765   0.362  0.00  0.00    +0.020 A 
ATOM     25  C   LIG    1        1.554   5.665  -0.427  0.00  0.00    +0.113 A 
ATOM     26  N   LIG    1        2.746   5.427  -1.030  0.00  0.00    -0.240 NA
ENDBRANCH  19  21
ENDBRANCH  18  19
ENDBRANCH  17  18
ENDBRANCH  16  17
ENDBRANCH   4  16
TORSDOF 7
ENDMDL
MODEL 3
REMARK VINA RESULT:      -7.2      1.872      2.408
REMARK  Name = 
REMARK                            x       y       z     vdW  Elec       q    Type
REMARK                         _______ _______ _______ _____ _____    ______ ____
ROOT
ATOM      1  C   LIG    1        4.204   7.222  -5.369  0.00  0.00    -0.046 A 
ATOM      2  C   LIG    1        5.155   6.276  -5.742  0.00  0.00    +0.007 A 
ATOM      3  C   LIG    1        6.274   6.643  -6.480  0.00  0.00    +0.046 A 
ATOM      4  C   LIG    1        6.458   7.960  -6.918  0.00  0.00    +0.121 A 
ATOM      5  C   LIG    1        5.495   8.909  -6.579  0.00  0.00    +0.046 A 
ATOM      6  C   LIG    1        4.378   8.545  -5.804  0.00  0.00    +0.007 A 
ENDROOT
BRANCH   1   7
ATOM      7  C   LIG    1        3.024   6.791  -4.530  0.00  0.00    +0.059 C 
BRANCH   7  10
ATOM      8  O   LIG    1        5.110   8.620  -2.806  0.00  0.00    -0.274 OA
ATOM      9  C   LIG    1        4.461   7.609  -2.569  0.00  0.00    +0.232 C 
ATOM     10  C   LIG    1        3.058   7.307  -3.084  0.00  0.00    +0.143 C 
ATOM     11  S   LIG    1        2.490   5.950  -1.971  0.00  0.00    -0.089 S 
ATOM     12  C   LIG    1        4.077   5.688  -1.301  0.00  0.00    +0.114 C 
ATOM     13  S   LIG    1        4.505   4.513  -0.218  0.00  0.00    -0.028 S 
ATOM     14  N   LIG    1        4.947   6.613  -1.773  0.00  0.00    -0.273 N 
ATOM     15  H   LIG    1        5.875   6.695  -1.384  0.00  0.00    +0.156 HD
ENDBRANCH   7  10
ENDBRANCH   1   7
BRANCH   4  16
ATOM     16  O   LIG    1        7.535   8.389  -7.674  0.00  0.00    -0.490 OA
BRANCH  16  17
ATOM     17  C   LIG    1        8.451   7.320  -7.947  0.00  0.00    +0.248 C 
BRANCH  17  18
ATOM     18  C   LIG    1        9.756   7.700  -8.633  0.00  0.00    +0.147 C 
BRANCH  18  19
ATOM     19  N   LIG    1        9.681   8.906  -9.518  0.00  0.00    -0.315 N 
ATOM     20  C   LIG    1       10.265  10.094  -8.878  0.00  0.00    +0.131 C 
BRANCH  19  21
ATOM     21  C   LIG    1       10.040   8.837 -10.881  0.00  0.00    +0.121 A 
ATOM     22  C   LIG    1       10.194   9.990 -11.656  0.00  0.00    +0.043 A 
ATOM     23  C   LIG    1       10.567   9.920 -13.001  0.00  0.00    +0.005 A 
ATOM     24  C   LIG    1       10.871   8.690 -13.548  0.00  0.00    +0.020 A 
ATOM     25  C   LIG    1       10.774   7.591 -12.720  0.00  0.00    +0.113 A 
ATOM     26  N   LIG    1       10.358   7.641 -11.429  0.00  0.00    -0.240 NA
ENDBRANCH  19  21
ENDBRANCH  18  19
ENDBRANCH  17  18
ENDBRANCH  16  17
ENDBRANCH   4  16
TORSDOF 7
ENDMDL
MODEL 4
REMARK VINA RESULT:      -7.2      4.828      8.769
REMARK  Name = 
REMARK                            x       y       z     vdW  Elec       q    Type
REMARK                         _______ _______ _______ _____ _____    ______ ____
ROOT
ATOM      1  C   LIG    1        8.267   5.231  -6.310  0.00  0.00    -0.046 A 
ATOM      2  C   LIG    1        7.108   5.079  -5.554  0.00  0.00    +0.007 A 
ATOM      3  C   LIG    1        6.025   5.934  -5.729  0.00  0.00    +0.046 A 
ATOM      4  C   LIG    1        6.081   7.003  -6.630  0.00  0.00    +0.121 A 
ATOM      5  C   LIG    1        7.249   7.185  -7.369  0.00  0.00    +0.046 A 
ATOM      6  C   LIG    1        8.334   6.301  -7.215  0.00  0.00    +0.007 A 
ENDROOT
BRANCH   1   7
ATOM      7  C   LIG    1        9.405   4.255  -6.120  0.00  0.00    +0.059 C 
BRANCH   7  10
ATOM      8  O   LIG    1        9.453   5.016  -2.944  0.00  0.00    -0.274 OA
ATOM      9  C   LIG    1        9.966   4.132  -3.620  0.00  0.00    +0.232 C 
ATOM     10  C   LIG    1        9.327   3.442  -4.819  0.00  0.00    +0.143 C 
ATOM     11  S   LIG    1       10.355   1.924  -5.022  0.00  0.00    -0.089 S 
ATOM     12  C   LIG    1       11.584   2.478  -3.918  0.00  0.00    +0.114 C 
ATOM     13  S   LIG    1       13.005   1.709  -3.563  0.00  0.00    -0.028 S 
ATOM     14  N   LIG    1       11.210   3.647  -3.345  0.00  0.00    -0.273 N 
ATOM     15  H   LIG    1       11.739   4.038  -2.578  0.00  0.00    +0.156 HD
ENDBRANCH   7  10
ENDBRANCH   1   7
BRANCH   4  16
ATOM     16  O   LIG    1        5.051   7.905  -6.838  0.00  0.00    -0.490 OA
BRANCH  16  17
ATOM     17  C   LIG    1        5.012   8.910  -5.817  0.00  0.00    +0.248 C 
BRANCH  17  18
ATOM     18  C   LIG    1        3.803   8.895  -4.893  0.00  0.00    +0.147 C 
BRANCH  18  19
ATOM     19  N   LIG    1        4.112   8.666  -3.446  0.00  0.00    -0.315 N 
ATOM     20  C   LIG    1        3.888   9.874  -2.638  0.00  0.00    +0.131 C 
BRANCH  19  21
ATOM     21  C   LIG    1        3.652   7.514  -2.773  0.00  0.00    +0.121 A 
ATOM     22  C   LIG    1        3.093   6.436  -3.466  0.00  0.00    +0.043 A 
ATOM     23  C   LIG    1        2.656   5.288  -2.799  0.00  0.00    +0.005 A 
ATOM     24  C   LIG    1        2.859   5.187  -1.439  0.00  0.00    +0.020 A 
ATOM     25  C   LIG    1        3.481   6.247  -0.813  0.00  0.00    +0.113 A 
ATOM     26  N   LIG    1        3.859   7.389  -1.441  0.00  0.00    -0.240 NA
ENDBRANCH  19  21
ENDBRANCH  18  19
ENDBRANCH  17  18
ENDBRANCH  16  17
ENDBRANCH   4  16
TORSDOF 7
ENDMDL
MODEL 5
REMARK VINA RESULT:      -7.1      6.217      8.366
REMARK  Name = 
REMARK                            x       y       z     vdW  Elec       q    Type
REMARK                         _______ _______ _______ _____ _____    ______ ____
ROOT
ATOM      1  C   LIG    1       11.152   2.697  -3.952  0.00  0.00    -0.046 A 
ATOM      2  C   LIG    1       10.635   2.275  -5.174  0.00  0.00    +0.007 A 
ATOM      3  C   LIG    1        9.555   2.930  -5.754  0.00  0.00    +0.046 A 
ATOM      4  C   LIG    1        8.919   3.998  -5.109  0.00  0.00    +0.121 A 
ATOM      5  C   LIG    1        9.408   4.407  -3.870  0.00  0.00    +0.046 A 
ATOM      6  C   LIG    1       10.521   3.766  -3.296  0.00  0.00    +0.007 A 
ENDROOT
BRANCH   1   7
ATOM      7  C   LIG    1       12.355   1.986  -3.375  0.00  0.00    +0.059 C 
BRANCH   7  10
ATOM      8  O   LIG    1       14.563   0.485  -5.255  0.00  0.00    -0.274 OA
ATOM      9  C   LIG    1       14.630   1.237  -4.290  0.00  0.00    +0.232 C 
ATOM     10  C   LIG    1       13.693   2.404  -4.001  0.00  0.00    +0.143 C 
ATOM     11  S   LIG    1       14.631   3.392  -2.758  0.00  0.00    -0.089 S 
ATOM     12  C   LIG    1       15.812   2.139  -2.492  0.00  0.00    +0.114 C 
ATOM     13  S   LIG    1       17.046   2.169  -1.391  0.00  0.00    -0.028 S 
ATOM     14  N   LIG    1       15.603   1.106  -3.344  0.00  0.00    -0.273 N 
ATOM     15  H   LIG    1       16.277   0.358  -3.422  0.00  0.00    +0.156 HD
ENDBRANCH   7  10
ENDBRANCH   1   7
BRANCH   4  16
ATOM     16  O   LIG    1        7.826   4.679  -5.619  0.00  0.00    -0.490 OA
BRANCH  16  17
ATOM     17  C   LIG    1        8.039   5.085  -6.977  0.00  0.00    +0.248 C 
BRANCH  17  18
ATOM     18  C   LIG    1        9.007   6.238  -7.199  0.00  0.00    +0.147 C 
BRANCH  18  19
ATOM     19  N   LIG    1        9.787   6.177  -8.475  0.00  0.00    -0.315 N 
ATOM     20  C   LIG    1        9.557   4.918  -9.200  0.00  0.00    +0.131 C 
BRANCH  19  21
ATOM     21  C   LIG    1        9.826   7.273  -9.363  0.00  0.00    +0.121 A 
ATOM     22  C   LIG    1        9.489   8.564  -8.946  0.00  0.00    +0.043 A 
ATOM     23  C   LIG    1        9.545   9.652  -9.821  0.00  0.00    +0.005 A 
ATOM     24  C   LIG    1       10.024   9.457 -11.100  0.00  0.00    +0.020 A 
ATOM     25  C   LIG    1       10.412   8.177 -11.439  0.00  0.00    +0.113 A 
ATOM     26  N   LIG    1       10.309   7.104 -10.615  0.00  0.00    -0.240 NA
ENDBRANCH  19  21
ENDBRANCH  18  19
ENDBRANCH  17  18
ENDBRANCH  16  17
ENDBRANCH   4  16
TORSDOF 7
ENDMDL
MODEL 6
REMARK VINA RESULT:      -7.1      1.456      2.132
REMARK  Name = 
REMARK                            x       y       z     vdW  Elec       q    Type
REMARK                         _______ _______ _______ _____ _____    ______ ____
ROOT
ATOM      1  C   LIG    1        4.599   7.603  -4.845  0.00  0.00    -0.046 A 
ATOM      2  C   LIG    1        5.187   8.675  -5.511  0.00  0.00    +0.007 A 
ATOM      3  C   LIG    1        6.082   8.461  -6.553  0.00  0.00    +0.046 A 
ATOM      4  C   LIG    1        6.461   7.169  -6.934  0.00  0.00    +0.121 A 
ATOM      5  C   LIG    1        5.903   6.089  -6.252  0.00  0.00    +0.046 A 
ATOM      6  C   LIG    1        4.974   6.302  -5.218  0.00  0.00    +0.007 A 
ENDROOT
BRANCH   1   7
ATOM      7  C   LIG    1        3.598   7.876  -3.746  0.00  0.00    +0.059 C 
BRANCH   7  10
ATOM      8  O   LIG    1        5.420   5.851  -1.944  0.00  0.00    -0.274 OA
ATOM      9  C   LIG    1        4.467   6.583  -1.708  0.00  0.00    +0.232 C 
ATOM     10  C   LIG    1        4.211   7.947  -2.340  0.00  0.00    +0.143 C 
ATOM     11  S   LIG    1        2.971   8.705  -1.205  0.00  0.00    -0.089 S 
ATOM     12  C   LIG    1        2.666   7.210  -0.364  0.00  0.00    +0.114 C 
ATOM     13  S   LIG    1        1.547   6.964   0.830  0.00  0.00    -0.028 S 
ATOM     14  N   LIG    1        3.503   6.241  -0.806  0.00  0.00    -0.273 N 
ATOM     15  H   LIG    1        3.559   5.351  -0.331  0.00  0.00    +0.156 HD
ENDBRANCH   7  10
ENDBRANCH   1   7
BRANCH   4  16
ATOM     16  O   LIG    1        7.363   6.885  -7.946  0.00  0.00    -0.490 OA
BRANCH  16  17
ATOM     17  C   LIG    1        8.580   6.328  -7.432  0.00  0.00    +0.248 C 
BRANCH  17  18
ATOM     18  C   LIG    1        9.876   6.853  -8.033  0.00  0.00    +0.147 C 
BRANCH  18  19
ATOM     19  N   LIG    1        9.708   7.775  -9.200  0.00  0.00    -0.315 N 
ATOM     20  C   LIG    1       10.027   9.168  -8.850  0.00  0.00    +0.131 C 
BRANCH  19  21
ATOM     21  C   LIG    1       10.216   7.444 -10.474  0.00  0.00    +0.121 A 
ATOM     22  C   LIG    1       10.227   8.370 -11.521  0.00  0.00    +0.043 A 
ATOM     23  C   LIG    1       10.747   8.046 -12.777  0.00  0.00    +0.005 A 
ATOM     24  C   LIG    1       11.338   6.813 -12.957  0.00  0.00    +0.020 A 
ATOM     25  C   LIG    1       11.367   5.962 -11.872  0.00  0.00    +0.113 A 
ATOM     26  N   LIG    1       10.814   6.246 -10.665  0.00  0.00    -0.240 NA
ENDBRANCH  19  21
ENDBRANCH  18  19
ENDBRANCH  17  18
ENDBRANCH  16  17
ENDBRANCH   4  16
TORSDOF 7
ENDMDL
MODEL 7
REMARK VINA RESULT:      -6.9      4.315     10.383
REMARK  Name = 
REMARK                            x       y       z     vdW  Elec       q    Type
REMARK                         _______ _______ _______ _____ _____    ______ ____
ROOT
ATOM      1  C   LIG    1        9.453   7.245  -8.821  0.00  0.00    -0.046 A 
ATOM      2  C   LIG    1        9.473   5.921  -8.390  0.00  0.00    +0.007 A 
ATOM      3  C   LIG    1        8.495   5.439  -7.528  0.00  0.00    +0.046 A 
ATOM      4  C   LIG    1        7.492   6.275  -7.023  0.00  0.00    +0.121 A 
ATOM      5  C   LIG    1        7.483   7.610  -7.422  0.00  0.00    +0.046 A 
ATOM      6  C   LIG    1        8.453   8.093  -8.320  0.00  0.00    +0.007 A 
ENDROOT
BRANCH   1   7
ATOM      7  C   LIG    1       10.509   7.721  -9.793  0.00  0.00    +0.059 C 
BRANCH   7  10
ATOM      8  O   LIG    1       11.610   5.783 -12.181  0.00  0.00    -0.274 OA
ATOM      9  C   LIG    1       11.274   6.959 -12.119  0.00  0.00    +0.232 C 
ATOM     10  C   LIG    1       10.139   7.521 -11.270  0.00  0.00    +0.143 C 
ATOM     11  S   LIG    1        9.838   9.178 -12.021  0.00  0.00    -0.089 S 
ATOM     12  C   LIG    1       11.292   9.128 -12.980  0.00  0.00    +0.114 C 
ATOM     13  S   LIG    1       11.873  10.337 -13.949  0.00  0.00    -0.028 S 
ATOM     14  N   LIG    1       11.901   7.925 -12.850  0.00  0.00    -0.273 N 
ATOM     15  H   LIG    1       12.680   7.674 -13.443  0.00  0.00    +0.156 HD
ENDBRANCH   7  10
ENDBRANCH   1   7
BRANCH   4  16
ATOM     16  O   LIG    1        6.503   5.866  -6.144  0.00  0.00    -0.490 OA
BRANCH  16  17
ATOM     17  C   LIG    1        5.503   6.877  -5.964  0.00  0.00    +0.248 C 
BRANCH  17  18
ATOM     18  C   LIG    1        4.326   6.518  -5.069  0.00  0.00    +0.147 C 
BRANCH  18  19
ATOM     19  N   LIG    1        4.390   7.074  -3.680  0.00  0.00    -0.315 N 
ATOM     20  C   LIG    1        3.503   8.234  -3.511  0.00  0.00    +0.131 C 
BRANCH  19  21
ATOM     21  C   LIG    1        4.340   6.229  -2.551  0.00  0.00    +0.121 A 
ATOM     22  C   LIG    1        5.491   5.623  -2.039  0.00  0.00    +0.043 A 
ATOM     23  C   LIG    1        5.443   4.801  -0.910  0.00  0.00    +0.005 A 
ATOM     24  C   LIG    1        4.246   4.656  -0.239  0.00  0.00    +0.020 A 
ATOM     25  C   LIG    1        3.155   5.334  -0.743  0.00  0.00    +0.113 A 
ATOM     26  N   LIG    1        3.179   6.088  -1.871  0.00  0.00    -0.240 NA
ENDBRANCH  19  21
ENDBRANCH  18  19
ENDBRANCH  17  18
ENDBRANCH  16  17
ENDBRANCH   4  16
TORSDOF 7
ENDMDL
MODEL 8
REMARK VINA RESULT:      -6.9      6.240      8.592
REMARK  Name = 
REMARK                            x       y       z     vdW  Elec       q    Type
REMARK                         _______ _______ _______ _____ _____    ______ ____
ROOT
ATOM      1  C   LIG    1       11.044   2.587  -3.840  0.00  0.00    -0.046 A 
ATOM      2  C   LIG    1       10.431   2.104  -4.993  0.00  0.00    +0.007 A 
ATOM      3  C   LIG    1        9.297   2.722  -5.509  0.00  0.00    +0.046 A 
ATOM      4  C   LIG    1        8.705   3.813  -4.863  0.00  0.00    +0.121 A 
ATOM      5  C   LIG    1        9.291   4.284  -3.690  0.00  0.00    +0.046 A 
ATOM      6  C   LIG    1       10.457   3.680  -3.184  0.00  0.00    +0.007 A 
ENDROOT
BRANCH   1   7
ATOM      7  C   LIG    1       12.300   1.915  -3.335  0.00  0.00    +0.059 C 
BRANCH   7  10
ATOM      8  O   LIG    1       14.536   0.669  -5.364  0.00  0.00    -0.274 OA
ATOM      9  C   LIG    1       14.587   1.358  -4.352  0.00  0.00    +0.232 C 
ATOM     10  C   LIG    1       13.595   2.448  -3.963  0.00  0.00    +0.143 C 
ATOM     11  S   LIG    1       14.511   3.405  -2.679  0.00  0.00    -0.089 S 
ATOM     12  C   LIG    1       15.765   2.206  -2.525  0.00  0.00    +0.114 C 
ATOM     13  S   LIG    1       17.026   2.234  -1.453  0.00  0.00    -0.028 S 
ATOM     14  N   LIG    1       15.592   1.221  -3.439  0.00  0.00    -0.273 N 
ATOM     15  H   LIG    1       16.303   0.519  -3.583  0.00  0.00    +0.156 HD
ENDBRANCH   7  10
ENDBRANCH   1   7
BRANCH   4  16
ATOM     16  O   LIG    1        7.564   4.460  -5.308  0.00  0.00    -0.490 OA
BRANCH  16  17
ATOM     17  C   LIG    1        7.879   5.534  -6.204  0.00  0.00    +0.248 C 
BRANCH  17  18
ATOM     18  C   LIG    1        9.277   5.530  -6.807  0.00  0.00    +0.147 C 
BRANCH  18  19
ATOM     19  N   LIG    1        9.348   5.920  -8.250  0.00  0.00    -0.315 N 
ATOM     20  C   LIG    1       10.067   7.189  -8.442  0.00  0.00    +0.131 C 
BRANCH  19  21
ATOM     21  C   LIG    1        9.700   4.983  -9.245  0.00  0.00    +0.121 A 
ATOM     22  C   LIG    1        9.279   3.651  -9.177  0.00  0.00    +0.043 A 
ATOM     23  C   LIG    1        9.614   2.729 -10.173  0.00  0.00    +0.005 A 
ATOM     24  C   LIG    1       10.302   3.166 -11.285  0.00  0.00    +0.020 A 
ATOM     25  C   LIG    1       10.631   4.505 -11.338  0.00  0.00    +0.113 A 
ATOM     26  N   LIG    1       10.360   5.397 -10.351  0.00  0.00    -0.240 NA
ENDBRANCH  19  21
ENDBRANCH  18  19
ENDBRANCH  17  18
ENDBRANCH  16  17
ENDBRANCH   4  16
TORSDOF 7
ENDMDL
MODEL 9
REMARK VINA RESULT:      -6.9      4.584      9.613
REMARK  Name = 
REMARK                            x       y       z     vdW  Elec       q    Type
REMARK                         _______ _______ _______ _____ _____    ______ ____
ROOT
ATOM      1  C   LIG    1        6.878  10.812  -5.957  0.00  0.00    -0.046 A 
ATOM      2  C   LIG    1        5.936  11.473  -5.174  0.00  0.00    +0.007 A 
ATOM      3  C   LIG    1        4.664  10.944  -4.991  0.00  0.00    +0.046 A 
ATOM      4  C   LIG    1        4.269   9.761  -5.626  0.00  0.00    +0.121 A 
ATOM      5  C   LIG    1        5.193   9.108  -6.439  0.00  0.00    +0.046 A 
ATOM      6  C   LIG    1        6.492   9.625  -6.600  0.00  0.00    +0.007 A 
ENDROOT
BRANCH   1   7
ATOM      7  C   LIG    1        8.264  11.397  -6.097  0.00  0.00    +0.059 C 
BRANCH   7  10
ATOM      8  O   LIG    1        8.919   9.690  -8.803  0.00  0.00    -0.274 OA
ATOM      9  C   LIG    1        9.412  10.679  -8.275  0.00  0.00    +0.232 C 
ATOM     10  C   LIG    1        8.647  11.771  -7.536  0.00  0.00    +0.143 C 
ATOM     11  S   LIG    1        9.862  13.158  -7.471  0.00  0.00    -0.089 S 
ATOM     12  C   LIG    1       11.192  12.161  -7.994  0.00  0.00    +0.114 C 
ATOM     13  S   LIG    1       12.775  12.625  -8.129  0.00  0.00    -0.028 S 
ATOM     14  N   LIG    1       10.754  10.918  -8.310  0.00  0.00    -0.273 N 
ATOM     15  H   LIG    1       11.367  10.255  -8.763  0.00  0.00    +0.156 HD
ENDBRANCH   7  10
ENDBRANCH   1   7
BRANCH   4  16
ATOM     16  O   LIG    1        3.013   9.191  -5.506  0.00  0.00    -0.490 OA
BRANCH  16  17
ATOM     17  C   LIG    1        3.090   7.776  -5.288  0.00  0.00    +0.248 C 
BRANCH  17  18
ATOM     18  C   LIG    1        2.821   7.290  -3.871  0.00  0.00    +0.147 C 
BRANCH  18  19
ATOM     19  N   LIG    1        4.001   7.329  -2.951  0.00  0.00    -0.315 N 
ATOM     20  C   LIG    1        4.160   8.646  -2.316  0.00  0.00    +0.131 C 
BRANCH  19  21
ATOM     21  C   LIG    1        4.244   6.289  -2.028  0.00  0.00    +0.121 A 
ATOM     22  C   LIG    1        5.523   5.751  -1.853  0.00  0.00    +0.043 A 
ATOM     23  C   LIG    1        5.765   4.734  -0.926  0.00  0.00    +0.005 A 
ATOM     24  C   LIG    1        4.735   4.314  -0.109  0.00  0.00    +0.020 A 
ATOM     25  C   LIG    1        3.511   4.928  -0.273  0.00  0.00    +0.113 A 
ATOM     26  N   LIG    1        3.251   5.876  -1.208  0.00  0.00    -0.240 NA
ENDBRANCH  19  21
ENDBRANCH  18  19
ENDBRANCH  17  18
ENDBRANCH  16  17
ENDBRANCH   4  16
TORSDOF 7
ENDMDL
