MODEL 1
REMARK VINA RESULT:      -6.7      0.000      0.000
REMARK  Name = 
REMARK                            x       y       z     vdW  Elec       q    Type
REMARK                         _______ _______ _______ _____ _____    ______ ____
ROOT
ATOM      1  C   LIG    1        1.903  33.638   3.396  0.00  0.00    -0.046 A 
ATOM      2  C   LIG    1        2.335  32.424   2.867  0.00  0.00    +0.007 A 
ATOM      3  C   LIG    1        3.253  31.636   3.551  0.00  0.00    +0.046 A 
ATOM      4  C   LIG    1        3.811  32.054   4.765  0.00  0.00    +0.121 A 
ATOM      5  C   LIG    1        3.410  33.283   5.287  0.00  0.00    +0.046 A 
ATOM      6  C   LIG    1        2.458  34.068   4.612  0.00  0.00    +0.007 A 
ENDROOT
BRANCH   1   7
ATOM      7  C   LIG    1        0.872  34.446   2.642  0.00  0.00    +0.059 C 
BRANCH   7  10
ATOM      8  O   LIG    1       -1.164  36.619   3.984  0.00  0.00    -0.274 OA
ATOM      9  C   LIG    1       -0.849  35.465   4.247  0.00  0.00    +0.232 C 
ATOM     10  C   LIG    1       -0.543  34.369   3.233  0.00  0.00    +0.143 C 
ATOM     11  S   LIG    1       -0.668  32.827   4.237  0.00  0.00    -0.089 S 
ATOM     12  C   LIG    1       -0.711  33.687   5.752  0.00  0.00    +0.114 C 
ATOM     13  S   LIG    1       -0.732  33.014   7.264  0.00  0.00    -0.028 S 
ATOM     14  N   LIG    1       -0.750  35.023   5.534  0.00  0.00    -0.273 N 
ATOM     15  H   LIG    1       -0.917  35.665   6.296  0.00  0.00    +0.156 HD
ENDBRANCH   7  10
ENDBRANCH   1   7
BRANCH   4  16
ATOM     16  O   LIG    1        4.745  31.330   5.487  0.00  0.00    -0.490 OA
BRANCH  16  17
ATOM     17  C   LIG    1        5.247  30.216   4.737  0.00  0.00    +0.248 C 
BRANCH  17  18
ATOM     18  C   LIG    1        5.113  28.845   5.383  0.00  0.00    +0.147 C 
BRANCH  18  19
ATOM     19  N   LIG    1        3.884  28.079   5.000  0.00  0.00    -0.315 N 
ATOM     20  C   LIG    1        3.918  26.698   5.503  0.00  0.00    +0.131 C 
BRANCH  19  21
ATOM     21  C   LIG    1        2.597  28.640   5.145  0.00  0.00    +0.121 A 
ATOM     22  C   LIG    1        1.643  28.555   4.127  0.00  0.00    +0.043 A 
ATOM     23  C   LIG    1        0.364  29.095   4.280  0.00  0.00    +0.005 A 
ATOM     24  C   LIG    1        0.011  29.647   5.494  0.00  0.00    +0.020 A 
ATOM     25  C   LIG    1        0.965  29.640   6.490  0.00  0.00    +0.113 A 
ATOM     26  N   LIG    1        2.229  29.170   6.334  0.00  0.00    -0.240 NA
ENDBRANCH  19  21
ENDBRANCH  18  19
ENDBRANCH  17  18
ENDBRANCH  16  17
ENDBRANCH   4  16
TORSDOF 7
ENDMDL
MODEL 2
REMARK VINA RESULT:      -6.4      2.669      6.782
REMARK  Name = 
REMARK                            x       y       z     vdW  Elec       q    Type
REMARK                         _______ _______ _______ _____ _____    ______ ____
ROOT
ATOM      1  C   LIG    1       -0.175  31.168   6.195  0.00  0.00    -0.046 A 
ATOM      2  C   LIG    1        0.054  32.211   7.088  0.00  0.00    +0.007 A 
ATOM      3  C   LIG    1       -0.397  33.496   6.813  0.00  0.00    +0.046 A 
ATOM      4  C   LIG    1       -1.049  33.798   5.612  0.00  0.00    +0.121 A 
ATOM      5  C   LIG    1       -1.255  32.768   4.695  0.00  0.00    +0.046 A 
ATOM      6  C   LIG    1       -0.827  31.460   4.986  0.00  0.00    +0.007 A 
ENDROOT
BRANCH   1   7
ATOM      7  C   LIG    1        0.293  29.775   6.550  0.00  0.00    +0.059 C 
BRANCH   7  10
ATOM      8  O   LIG    1        0.292  26.577   5.886  0.00  0.00    -0.274 OA
ATOM      9  C   LIG    1        1.085  27.491   5.694  0.00  0.00    +0.232 C 
ATOM     10  C   LIG    1        0.722  28.929   5.342  0.00  0.00    +0.143 C 
ATOM     11  S   LIG    1        2.307  29.611   4.691  0.00  0.00    -0.089 S 
ATOM     12  C   LIG    1        3.245  28.249   5.242  0.00  0.00    +0.114 C 
ATOM     13  S   LIG    1        4.888  28.080   5.137  0.00  0.00    -0.028 S 
ATOM     14  N   LIG    1        2.434  27.299   5.765  0.00  0.00    -0.273 N 
ATOM     15  H   LIG    1        2.795  26.387   6.005  0.00  0.00    +0.156 HD
ENDBRANCH   7  10
ENDBRANCH   1   7
BRANCH   4  16
ATOM     16  O   LIG    1       -1.504  35.059   5.264  0.00  0.00    -0.490 OA
BRANCH  16  17
ATOM     17  C   LIG    1       -1.151  35.397   3.916  0.00  0.00    +0.248 C 
BRANCH  17  18
ATOM     18  C   LIG    1       -0.127  36.509   3.739  0.00  0.00    +0.147 C 
BRANCH  18  19
ATOM     19  N   LIG    1        1.248  36.192   4.238  0.00  0.00    -0.315 N 
ATOM     20  C   LIG    1        1.462  36.682   5.609  0.00  0.00    +0.131 C 
BRANCH  19  21
ATOM     21  C   LIG    1        1.813  34.911   4.065  0.00  0.00    +0.121 A 
ATOM     22  C   LIG    1        2.608  34.322   5.052  0.00  0.00    +0.043 A 
ATOM     23  C   LIG    1        3.151  33.045   4.886  0.00  0.00    +0.005 A 
ATOM     24  C   LIG    1        2.823  32.320   3.759  0.00  0.00    +0.020 A 
ATOM     25  C   LIG    1        1.976  32.918   2.850  0.00  0.00    +0.113 A 
ATOM     26  N   LIG    1        1.489  34.178   2.974  0.00  0.00    -0.240 NA
ENDBRANCH  19  21
ENDBRANCH  18  19
ENDBRANCH  17  18
ENDBRANCH  16  17
ENDBRANCH   4  16
TORSDOF 7
ENDMDL
MODEL 3
REMARK VINA RESULT:      -6.3      2.593      6.855
REMARK  Name = 
REMARK                            x       y       z     vdW  Elec       q    Type
REMARK                         _______ _______ _______ _____ _____    ______ ____
ROOT
ATOM      1  C   LIG    1        0.832  29.106   5.968  0.00  0.00    -0.046 A 
ATOM      2  C   LIG    1        1.280  29.832   7.068  0.00  0.00    +0.007 A 
ATOM      3  C   LIG    1        0.887  31.152   7.259  0.00  0.00    +0.046 A 
ATOM      4  C   LIG    1        0.073  31.811   6.330  0.00  0.00    +0.121 A 
ATOM      5  C   LIG    1       -0.354  31.104   5.208  0.00  0.00    +0.046 A 
ATOM      6  C   LIG    1        0.017  29.759   5.029  0.00  0.00    +0.007 A 
ENDROOT
BRANCH   1   7
ATOM      7  C   LIG    1        1.247  27.661   5.818  0.00  0.00    +0.059 C 
BRANCH   7  10
ATOM      8  O   LIG    1        3.831  25.665   5.720  0.00  0.00    -0.274 OA
ATOM      9  C   LIG    1        3.650  26.846   5.447  0.00  0.00    +0.232 C 
ATOM     10  C   LIG    1        2.392  27.435   4.820  0.00  0.00    +0.143 C 
ATOM     11  S   LIG    1        2.962  29.080   4.211  0.00  0.00    -0.089 S 
ATOM     12  C   LIG    1        4.474  28.997   5.073  0.00  0.00    +0.114 C 
ATOM     13  S   LIG    1        5.627  30.181   5.151  0.00  0.00    -0.028 S 
ATOM     14  N   LIG    1        4.607  27.791   5.675  0.00  0.00    -0.273 N 
ATOM     15  H   LIG    1        5.482  27.521   6.101  0.00  0.00    +0.156 HD
ENDBRANCH   7  10
ENDBRANCH   1   7
BRANCH   4  16
ATOM     16  O   LIG    1       -0.337  33.128   6.446  0.00  0.00    -0.490 OA
BRANCH  16  17
ATOM     17  C   LIG    1       -1.039  33.570   5.277  0.00  0.00    +0.248 C 
BRANCH  17  18
ATOM     18  C   LIG    1       -0.812  35.014   4.852  0.00  0.00    +0.147 C 
BRANCH  18  19
ATOM     19  N   LIG    1        0.580  35.334   4.402  0.00  0.00    -0.315 N 
ATOM     20  C   LIG    1        1.158  36.455   5.158  0.00  0.00    +0.131 C 
BRANCH  19  21
ATOM     21  C   LIG    1        1.534  34.315   4.198  0.00  0.00    +0.121 A 
ATOM     22  C   LIG    1        1.541  33.543   3.032  0.00  0.00    +0.043 A 
ATOM     23  C   LIG    1        2.499  32.547   2.823  0.00  0.00    +0.005 A 
ATOM     24  C   LIG    1        3.507  32.383   3.750  0.00  0.00    +0.020 A 
ATOM     25  C   LIG    1        3.497  33.220   4.847  0.00  0.00    +0.113 A 
ATOM     26  N   LIG    1        2.540  34.152   5.088  0.00  0.00    -0.240 NA
ENDBRANCH  19  21
ENDBRANCH  18  19
ENDBRANCH  17  18
ENDBRANCH  16  17
ENDBRANCH   4  16
TORSDOF 7
ENDMDL
MODEL 4
REMARK VINA RESULT:      -5.9      2.176      6.254
REMARK  Name = 
REMARK                            x       y       z     vdW  Elec       q    Type
REMARK                         _______ _______ _______ _____ _____    ______ ____
ROOT
ATOM      1  C   LIG    1        4.112  30.944   4.793  0.00  0.00    -0.046 A 
ATOM      2  C   LIG    1        3.265  30.849   3.692  0.00  0.00    +0.007 A 
ATOM      3  C   LIG    1        2.556  31.957   3.241  0.00  0.00    +0.046 A 
ATOM      4  C   LIG    1        2.627  33.187   3.905  0.00  0.00    +0.121 A 
ATOM      5  C   LIG    1        3.446  33.284   5.029  0.00  0.00    +0.046 A 
ATOM      6  C   LIG    1        4.189  32.173   5.467  0.00  0.00    +0.007 A 
ENDROOT
BRANCH   1   7
ATOM      7  C   LIG    1        4.899  29.729   5.225  0.00  0.00    +0.059 C 
BRANCH   7  10
ATOM      8  O   LIG    1        4.501  26.489   5.108  0.00  0.00    -0.274 OA
ATOM      9  C   LIG    1        3.748  27.438   5.291  0.00  0.00    +0.232 C 
ATOM     10  C   LIG    1        4.091  28.716   6.048  0.00  0.00    +0.143 C 
ATOM     11  S   LIG    1        2.435  29.447   6.401  0.00  0.00    -0.089 S 
ATOM     12  C   LIG    1        1.604  28.357   5.325  0.00  0.00    +0.114 C 
ATOM     13  S   LIG    1       -0.009  28.381   4.954  0.00  0.00    -0.028 S 
ATOM     14  N   LIG    1        2.466  27.438   4.827  0.00  0.00    -0.273 N 
ATOM     15  H   LIG    1        2.128  26.648   4.297  0.00  0.00    +0.156 HD
ENDBRANCH   7  10
ENDBRANCH   1   7
BRANCH   4  16
ATOM     16  O   LIG    1        1.931  34.322   3.525  0.00  0.00    -0.490 OA
BRANCH  16  17
ATOM     17  C   LIG    1        2.113  35.394   4.460  0.00  0.00    +0.248 C 
BRANCH  17  18
ATOM     18  C   LIG    1        0.915  36.303   4.694  0.00  0.00    +0.147 C 
BRANCH  18  19
ATOM     19  N   LIG    1       -0.380  35.595   4.947  0.00  0.00    -0.315 N 
ATOM     20  C   LIG    1       -1.371  35.869   3.895  0.00  0.00    +0.131 C 
BRANCH  19  21
ATOM     21  C   LIG    1       -0.410  34.237   5.330  0.00  0.00    +0.121 A 
ATOM     22  C   LIG    1        0.034  33.822   6.588  0.00  0.00    +0.043 A 
ATOM     23  C   LIG    1       -0.013  32.479   6.972  0.00  0.00    +0.005 A 
ATOM     24  C   LIG    1       -0.589  31.560   6.120  0.00  0.00    +0.020 A 
ATOM     25  C   LIG    1       -1.078  32.033   4.920  0.00  0.00    +0.113 A 
ATOM     26  N   LIG    1       -0.987  33.324   4.514  0.00  0.00    -0.240 NA
ENDBRANCH  19  21
ENDBRANCH  18  19
ENDBRANCH  17  18
ENDBRANCH  16  17
ENDBRANCH   4  16
TORSDOF 7
ENDMDL
MODEL 5
REMARK VINA RESULT:      -5.7      2.087      3.555
REMARK  Name = 
REMARK                            x       y       z     vdW  Elec       q    Type
REMARK                         _______ _______ _______ _____ _____    ______ ____
ROOT
ATOM      1  C   LIG    1       -0.489  31.882   4.552  0.00  0.00    -0.046 A 
ATOM      2  C   LIG    1        0.430  31.137   3.818  0.00  0.00    +0.007 A 
ATOM      3  C   LIG    1        0.936  29.942   4.314  0.00  0.00    +0.046 A 
ATOM      4  C   LIG    1        0.583  29.473   5.584  0.00  0.00    +0.121 A 
ATOM      5  C   LIG    1       -0.311  30.227   6.342  0.00  0.00    +0.046 A 
ATOM      6  C   LIG    1       -0.849  31.421   5.828  0.00  0.00    +0.007 A 
ENDROOT
BRANCH   1   7
ATOM      7  C   LIG    1       -1.050  33.154   3.960  0.00  0.00    +0.059 C 
BRANCH   7  10
ATOM      8  O   LIG    1       -2.458  36.101   3.906  0.00  0.00    -0.274 OA
ATOM      9  C   LIG    1       -1.370  35.679   4.280  0.00  0.00    +0.232 C 
ATOM     10  C   LIG    1       -1.116  34.331   4.944  0.00  0.00    +0.143 C 
ATOM     11  S   LIG    1        0.552  34.548   5.701  0.00  0.00    -0.089 S 
ATOM     12  C   LIG    1        0.864  36.035   4.848  0.00  0.00    +0.114 C 
ATOM     13  S   LIG    1        2.266  36.913   4.884  0.00  0.00    -0.028 S 
ATOM     14  N   LIG    1       -0.229  36.414   4.144  0.00  0.00    -0.273 N 
ATOM     15  H   LIG    1       -0.271  37.322   3.704  0.00  0.00    +0.156 HD
ENDBRANCH   7  10
ENDBRANCH   1   7
BRANCH   4  16
ATOM     16  O   LIG    1        1.067  28.304   6.149  0.00  0.00    -0.490 OA
BRANCH  16  17
ATOM     17  C   LIG    1        2.445  28.086   5.817  0.00  0.00    +0.248 C 
BRANCH  17  18
ATOM     18  C   LIG    1        3.475  28.758   6.714  0.00  0.00    +0.147 C 
BRANCH  18  19
ATOM     19  N   LIG    1        4.474  29.616   6.001  0.00  0.00    -0.315 N 
ATOM     20  C   LIG    1        5.343  28.828   5.115  0.00  0.00    +0.131 C 
BRANCH  19  21
ATOM     21  C   LIG    1        4.092  30.829   5.389  0.00  0.00    +0.121 A 
ATOM     22  C   LIG    1        3.472  31.851   6.115  0.00  0.00    +0.043 A 
ATOM     23  C   LIG    1        3.112  33.058   5.511  0.00  0.00    +0.005 A 
ATOM     24  C   LIG    1        3.453  33.275   4.192  0.00  0.00    +0.020 A 
ATOM     25  C   LIG    1        4.129  32.263   3.542  0.00  0.00    +0.113 A 
ATOM     26  N   LIG    1        4.434  31.066   4.102  0.00  0.00    -0.240 NA
ENDBRANCH  19  21
ENDBRANCH  18  19
ENDBRANCH  17  18
ENDBRANCH  16  17
ENDBRANCH   4  16
TORSDOF 7
ENDMDL
MODEL 6
REMARK VINA RESULT:      -5.6      1.892      2.591
REMARK  Name = 
REMARK                            x       y       z     vdW  Elec       q    Type
REMARK                         _______ _______ _______ _____ _____    ______ ____
ROOT
ATOM      1  C   LIG    1        3.036  32.831   5.550  0.00  0.00    -0.046 A 
ATOM      2  C   LIG    1        3.711  32.587   4.356  0.00  0.00    +0.007 A 
ATOM      3  C   LIG    1        4.337  31.367   4.129  0.00  0.00    +0.046 A 
ATOM      4  C   LIG    1        4.356  30.365   5.106  0.00  0.00    +0.121 A 
ATOM      5  C   LIG    1        3.713  30.611   6.318  0.00  0.00    +0.046 A 
ATOM      6  C   LIG    1        3.051  31.833   6.537  0.00  0.00    +0.007 A 
ENDROOT
BRANCH   1   7
ATOM      7  C   LIG    1        2.331  34.154   5.742  0.00  0.00    +0.059 C 
BRANCH   7  10
ATOM      8  O   LIG    1        2.628  37.272   4.815  0.00  0.00    -0.274 OA
ATOM      9  C   LIG    1        1.783  36.403   4.637  0.00  0.00    +0.232 C 
ATOM     10  C   LIG    1        2.059  34.917   4.437  0.00  0.00    +0.143 C 
ATOM     11  S   LIG    1        0.479  34.293   3.720  0.00  0.00    -0.089 S 
ATOM     12  C   LIG    1       -0.389  35.761   4.078  0.00  0.00    +0.114 C 
ATOM     13  S   LIG    1       -2.002  36.036   3.827  0.00  0.00    -0.028 S 
ATOM     14  N   LIG    1        0.452  36.695   4.584  0.00  0.00    -0.273 N 
ATOM     15  H   LIG    1        0.145  37.648   4.716  0.00  0.00    +0.156 HD
ENDBRANCH   7  10
ENDBRANCH   1   7
BRANCH   4  16
ATOM     16  O   LIG    1        4.980  29.138   4.955  0.00  0.00    -0.490 OA
BRANCH  16  17
ATOM     17  C   LIG    1        4.064  28.051   5.142  0.00  0.00    +0.248 C 
BRANCH  17  18
ATOM     18  C   LIG    1        2.902  27.964   4.162  0.00  0.00    +0.147 C 
BRANCH  18  19
ATOM     19  N   LIG    1        1.541  27.976   4.787  0.00  0.00    -0.315 N 
ATOM     20  C   LIG    1        1.440  27.023   5.902  0.00  0.00    +0.131 C 
BRANCH  19  21
ATOM     21  C   LIG    1        0.889  29.189   5.097  0.00  0.00    +0.121 A 
ATOM     22  C   LIG    1        0.672  30.171   4.126  0.00  0.00    +0.043 A 
ATOM     23  C   LIG    1        0.010  31.363   4.431  0.00  0.00    +0.005 A 
ATOM     24  C   LIG    1       -0.514  31.534   5.695  0.00  0.00    +0.020 A 
ATOM     25  C   LIG    1       -0.336  30.503   6.595  0.00  0.00    +0.113 A 
ATOM     26  N   LIG    1        0.354  29.366   6.327  0.00  0.00    -0.240 NA
ENDBRANCH  19  21
ENDBRANCH  18  19
ENDBRANCH  17  18
ENDBRANCH  16  17
ENDBRANCH   4  16
TORSDOF 7
ENDMDL
MODEL 7
REMARK VINA RESULT:      -5.6      2.119      3.382
REMARK  Name = 
REMARK                            x       y       z     vdW  Elec       q    Type
REMARK                         _______ _______ _______ _____ _____    ______ ____
ROOT
ATOM      1  C   LIG    1        1.312  32.461   5.384  0.00  0.00    -0.046 A 
ATOM      2  C   LIG    1        1.640  31.722   4.251  0.00  0.00    +0.007 A 
ATOM      3  C   LIG    1        1.144  30.436   4.071  0.00  0.00    +0.046 A 
ATOM      4  C   LIG    1        0.342  29.823   5.040  0.00  0.00    +0.121 A 
ATOM      5  C   LIG    1        0.033  30.542   6.194  0.00  0.00    +0.046 A 
ATOM      6  C   LIG    1        0.509  31.855   6.363  0.00  0.00    +0.007 A 
ENDROOT
BRANCH   1   7
ATOM      7  C   LIG    1        1.837  33.872   5.523  0.00  0.00    +0.059 C 
BRANCH   7  10
ATOM      8  O   LIG    1        2.299  37.037   4.863  0.00  0.00    -0.274 OA
ATOM      9  C   LIG    1        1.399  36.238   4.635  0.00  0.00    +0.232 C 
ATOM     10  C   LIG    1        1.580  34.762   4.298  0.00  0.00    +0.143 C 
ATOM     11  S   LIG    1       -0.053  34.297   3.576  0.00  0.00    -0.089 S 
ATOM     12  C   LIG    1       -0.821  35.776   4.086  0.00  0.00    +0.114 C 
ATOM     13  S   LIG    1       -2.420  36.165   3.908  0.00  0.00    -0.028 S 
ATOM     14  N   LIG    1        0.087  36.610   4.646  0.00  0.00    -0.273 N 
ATOM     15  H   LIG    1       -0.158  37.564   4.870  0.00  0.00    +0.156 HD
ENDBRANCH   7  10
ENDBRANCH   1   7
BRANCH   4  16
ATOM     16  O   LIG    1       -0.167  28.539   4.936  0.00  0.00    -0.490 OA
BRANCH  16  17
ATOM     17  C   LIG    1        0.876  27.564   4.803  0.00  0.00    +0.248 C 
BRANCH  17  18
ATOM     18  C   LIG    1        1.715  27.292   6.044  0.00  0.00    +0.147 C 
BRANCH  18  19
ATOM     19  N   LIG    1        3.190  27.480   5.868  0.00  0.00    -0.315 N 
ATOM     20  C   LIG    1        3.717  26.674   4.757  0.00  0.00    +0.131 C 
BRANCH  19  21
ATOM     21  C   LIG    1        3.770  28.766   5.882  0.00  0.00    +0.121 A 
ATOM     22  C   LIG    1        4.588  29.210   4.838  0.00  0.00    +0.043 A 
ATOM     23  C   LIG    1        5.147  30.491   4.845  0.00  0.00    +0.005 A 
ATOM     24  C   LIG    1        4.814  31.361   5.862  0.00  0.00    +0.020 A 
ATOM     25  C   LIG    1        3.946  30.897   6.829  0.00  0.00    +0.113 A 
ATOM     26  N   LIG    1        3.442  29.638   6.862  0.00  0.00    -0.240 NA
ENDBRANCH  19  21
ENDBRANCH  18  19
ENDBRANCH  17  18
ENDBRANCH  16  17
ENDBRANCH   4  16
TORSDOF 7
ENDMDL
MODEL 8
REMARK VINA RESULT:      -5.5      2.010      6.130
REMARK  Name = 
REMARK                            x       y       z     vdW  Elec       q    Type
REMARK                         _______ _______ _______ _____ _____    ______ ____
ROOT
ATOM      1  C   LIG    1        3.328  32.375   4.356  0.00  0.00    -0.046 A 
ATOM      2  C   LIG    1        2.596  32.832   3.263  0.00  0.00    +0.007 A 
ATOM      3  C   LIG    1        1.934  34.053   3.310  0.00  0.00    +0.046 A 
ATOM      4  C   LIG    1        1.936  34.839   4.469  0.00  0.00    +0.121 A 
ATOM      5  C   LIG    1        2.638  34.375   5.580  0.00  0.00    +0.046 A 
ATOM      6  C   LIG    1        3.335  33.155   5.524  0.00  0.00    +0.007 A 
ENDROOT
BRANCH   1   7
ATOM      7  C   LIG    1        4.070  31.063   4.251  0.00  0.00    +0.059 C 
BRANCH   7  10
ATOM      8  O   LIG    1        5.645  28.389   5.269  0.00  0.00    -0.274 OA
ATOM      9  C   LIG    1        4.482  28.770   5.325  0.00  0.00    +0.232 C 
ATOM     10  C   LIG    1        4.024  30.210   5.527  0.00  0.00    +0.143 C 
ATOM     11  S   LIG    1        2.260  30.018   6.032  0.00  0.00    -0.089 S 
ATOM     12  C   LIG    1        2.207  28.331   5.600  0.00  0.00    +0.114 C 
ATOM     13  S   LIG    1        0.881  27.343   5.656  0.00  0.00    -0.028 S 
ATOM     14  N   LIG    1        3.435  27.902   5.220  0.00  0.00    -0.273 N 
ATOM     15  H   LIG    1        3.616  26.920   5.070  0.00  0.00    +0.156 HD
ENDBRANCH   7  10
ENDBRANCH   1   7
BRANCH   4  16
ATOM     16  O   LIG    1        1.280  36.052   4.592  0.00  0.00    -0.490 OA
BRANCH  16  17
ATOM     17  C   LIG    1        0.309  36.238   3.553  0.00  0.00    +0.248 C 
BRANCH  17  18
ATOM     18  C   LIG    1       -1.152  36.089   3.951  0.00  0.00    +0.147 C 
BRANCH  18  19
ATOM     19  N   LIG    1       -1.661  34.682   3.986  0.00  0.00    -0.315 N 
ATOM     20  C   LIG    1       -1.652  34.060   2.653  0.00  0.00    +0.131 C 
BRANCH  19  21
ATOM     21  C   LIG    1       -1.228  33.771   4.973  0.00  0.00    +0.121 A 
ATOM     22  C   LIG    1       -0.952  32.435   4.665  0.00  0.00    +0.043 A 
ATOM     23  C   LIG    1       -0.505  31.539   5.640  0.00  0.00    +0.005 A 
ATOM     24  C   LIG    1       -0.251  32.007   6.912  0.00  0.00    +0.020 A 
ATOM     25  C   LIG    1       -0.470  33.349   7.146  0.00  0.00    +0.113 A 
ATOM     26  N   LIG    1       -0.957  34.215   6.222  0.00  0.00    -0.240 NA
ENDBRANCH  19  21
ENDBRANCH  18  19
ENDBRANCH  17  18
ENDBRANCH  16  17
ENDBRANCH   4  16
TORSDOF 7
ENDMDL
MODEL 9
REMARK VINA RESULT:      -5.4      1.686      2.099
REMARK  Name = 
REMARK                            x       y       z     vdW  Elec       q    Type
REMARK                         _______ _______ _______ _____ _____    ______ ____
ROOT
ATOM      1  C   LIG    1        0.877  32.282   4.746  0.00  0.00    -0.046 A 
ATOM      2  C   LIG    1        1.769  32.452   3.690  0.00  0.00    +0.007 A 
ATOM      3  C   LIG    1        3.106  32.095   3.823  0.00  0.00    +0.046 A 
ATOM      4  C   LIG    1        3.612  31.603   5.032  0.00  0.00    +0.121 A 
ATOM      5  C   LIG    1        2.734  31.460   6.106  0.00  0.00    +0.046 A 
ATOM      6  C   LIG    1        1.374  31.791   5.963  0.00  0.00    +0.007 A 
ENDROOT
BRANCH   1   7
ATOM      7  C   LIG    1       -0.577  32.642   4.548  0.00  0.00    +0.059 C 
BRANCH   7  10
ATOM      8  O   LIG    1       -2.134  35.227   3.300  0.00  0.00    -0.274 OA
ATOM      9  C   LIG    1       -1.142  35.083   4.004  0.00  0.00    +0.232 C 
ATOM     10  C   LIG    1       -0.962  34.027   5.088  0.00  0.00    +0.143 C 
ATOM     11  S   LIG    1        0.455  34.679   6.072  0.00  0.00    -0.089 S 
ATOM     12  C   LIG    1        0.859  35.893   4.890  0.00  0.00    +0.114 C 
ATOM     13  S   LIG    1        2.146  36.932   4.947  0.00  0.00    -0.028 S 
ATOM     14  N   LIG    1       -0.056  35.901   3.891  0.00  0.00    -0.273 N 
ATOM     15  H   LIG    1       -0.054  36.633   3.195  0.00  0.00    +0.156 HD
ENDBRANCH   7  10
ENDBRANCH   1   7
BRANCH   4  16
ATOM     16  O   LIG    1        4.934  31.250   5.240  0.00  0.00    -0.490 OA
BRANCH  16  17
ATOM     17  C   LIG    1        5.243  29.978   4.655  0.00  0.00    +0.248 C 
BRANCH  17  18
ATOM     18  C   LIG    1        4.978  28.751   5.516  0.00  0.00    +0.147 C 
BRANCH  18  19
ATOM     19  N   LIG    1        4.023  27.757   4.930  0.00  0.00    -0.315 N 
ATOM     20  C   LIG    1        4.232  26.407   5.475  0.00  0.00    +0.131 C 
BRANCH  19  21
ATOM     21  C   LIG    1        2.648  28.048   4.810  0.00  0.00    +0.121 A 
ATOM     22  C   LIG    1        1.774  27.916   5.893  0.00  0.00    +0.043 A 
ATOM     23  C   LIG    1        0.416  28.221   5.776  0.00  0.00    +0.005 A 
ATOM     24  C   LIG    1       -0.052  28.745   4.589  0.00  0.00    +0.020 A 
ATOM     25  C   LIG    1        0.865  28.924   3.574  0.00  0.00    +0.113 A 
ATOM     26  N   LIG    1        2.174  28.577   3.658  0.00  0.00    -0.240 NA
ENDBRANCH  19  21
ENDBRANCH  18  19
ENDBRANCH  17  18
ENDBRANCH  16  17
ENDBRANCH   4  16
TORSDOF 7
ENDMDL
