MODEL 1
REMARK VINA RESULT:      -7.8      0.000      0.000
REMARK  Name = 
REMARK                            x       y       z     vdW  Elec       q    Type
REMARK                         _______ _______ _______ _____ _____    ______ ____
ROOT
ATOM      1  C   LIG    1      -42.633  14.355 -44.238  0.00  0.00    -0.046 A 
ATOM      2  C   LIG    1      -42.650  13.262 -43.376  0.00  0.00    +0.007 A 
ATOM      3  C   LIG    1      -43.599  12.257 -43.519  0.00  0.00    +0.046 A 
ATOM      4  C   LIG    1      -44.599  12.332 -44.496  0.00  0.00    +0.121 A 
ATOM      5  C   LIG    1      -44.611  13.439 -45.344  0.00  0.00    +0.046 A 
ATOM      6  C   LIG    1      -43.632  14.441 -45.221  0.00  0.00    +0.007 A 
ENDROOT
BRANCH   1   7
ATOM      7  C   LIG    1      -41.558  15.405 -44.078  0.00  0.00    +0.059 C 
BRANCH   7  10
ATOM      8  O   LIG    1      -38.571  15.240 -45.389  0.00  0.00    -0.274 OA
ATOM      9  C   LIG    1      -39.433  16.108 -45.330  0.00  0.00    +0.232 C 
ATOM     10  C   LIG    1      -40.938  15.878 -45.401  0.00  0.00    +0.143 C 
ATOM     11  S   LIG    1      -41.598  17.557 -45.782  0.00  0.00    -0.089 S 
ATOM     12  C   LIG    1      -40.078  18.346 -45.461  0.00  0.00    +0.114 C 
ATOM     13  S   LIG    1      -39.793  19.976 -45.481  0.00  0.00    -0.028 S 
ATOM     14  N   LIG    1      -39.115  17.429 -45.204  0.00  0.00    -0.273 N 
ATOM     15  H   LIG    1      -38.146  17.704 -45.134  0.00  0.00    +0.156 HD
ENDBRANCH   7  10
ENDBRANCH   1   7
BRANCH   4  16
ATOM     16  O   LIG    1      -45.587  11.380 -44.678  0.00  0.00    -0.490 OA
BRANCH  16  17
ATOM     17  C   LIG    1      -46.691  11.899 -45.431  0.00  0.00    +0.248 C 
BRANCH  17  18
ATOM     18  C   LIG    1      -48.077  11.703 -44.831  0.00  0.00    +0.147 C 
BRANCH  18  19
ATOM     19  N   LIG    1      -48.237  12.198 -43.427  0.00  0.00    -0.315 N 
ATOM     20  C   LIG    1      -49.237  13.272 -43.334  0.00  0.00    +0.131 C 
BRANCH  19  21
ATOM     21  C   LIG    1      -48.355  11.301 -42.344  0.00  0.00    +0.121 A 
ATOM     22  C   LIG    1      -49.196  11.569 -41.260  0.00  0.00    +0.043 A 
ATOM     23  C   LIG    1      -49.325  10.671 -40.198  0.00  0.00    +0.005 A 
ATOM     24  C   LIG    1      -48.672   9.458 -40.264  0.00  0.00    +0.020 A 
ATOM     25  C   LIG    1      -47.913   9.212 -41.389  0.00  0.00    +0.113 A 
ATOM     26  N   LIG    1      -47.735  10.099 -42.400  0.00  0.00    -0.240 NA
ENDBRANCH  19  21
ENDBRANCH  18  19
ENDBRANCH  17  18
ENDBRANCH  16  17
ENDBRANCH   4  16
TORSDOF 7
ENDMDL
MODEL 2
REMARK VINA RESULT:      -7.7      1.834      2.252
REMARK  Name = 
REMARK                            x       y       z     vdW  Elec       q    Type
REMARK                         _______ _______ _______ _____ _____    ______ ____
ROOT
ATOM      1  C   LIG    1      -41.558  13.893 -43.931  0.00  0.00    -0.046 A 
ATOM      2  C   LIG    1      -41.076  12.850 -44.716  0.00  0.00    +0.007 A 
ATOM      3  C   LIG    1      -41.754  11.638 -44.786  0.00  0.00    +0.046 A 
ATOM      4  C   LIG    1      -42.911  11.407 -44.033  0.00  0.00    +0.121 A 
ATOM      5  C   LIG    1      -43.385  12.434 -43.218  0.00  0.00    +0.046 A 
ATOM      6  C   LIG    1      -42.717  13.671 -43.170  0.00  0.00    +0.007 A 
ENDROOT
BRANCH   1   7
ATOM      7  C   LIG    1      -40.816  15.210 -43.915  0.00  0.00    +0.059 C 
BRANCH   7  10
ATOM      8  O   LIG    1      -37.993  15.304 -45.554  0.00  0.00    -0.274 OA
ATOM      9  C   LIG    1      -38.923  16.087 -45.407  0.00  0.00    +0.232 C 
ATOM     10  C   LIG    1      -40.397  15.712 -45.304  0.00  0.00    +0.143 C 
ATOM     11  S   LIG    1      -41.256  17.313 -45.624  0.00  0.00    -0.089 S 
ATOM     12  C   LIG    1      -39.793  18.250 -45.484  0.00  0.00    +0.114 C 
ATOM     13  S   LIG    1      -39.672  19.899 -45.553  0.00  0.00    -0.028 S 
ATOM     14  N   LIG    1      -38.723  17.434 -45.330  0.00  0.00    -0.273 N 
ATOM     15  H   LIG    1      -37.784  17.801 -45.373  0.00  0.00    +0.156 HD
ENDBRANCH   7  10
ENDBRANCH   1   7
BRANCH   4  16
ATOM     16  O   LIG    1      -43.622  10.219 -44.037  0.00  0.00    -0.490 OA
BRANCH  16  17
ATOM     17  C   LIG    1      -44.760  10.278 -43.168  0.00  0.00    +0.248 C 
BRANCH  17  18
ATOM     18  C   LIG    1      -45.514   8.975 -42.943  0.00  0.00    +0.147 C 
BRANCH  18  19
ATOM     19  N   LIG    1      -46.985   9.124 -42.705  0.00  0.00    -0.315 N 
ATOM     20  C   LIG    1      -47.752   8.016 -43.294  0.00  0.00    +0.131 C 
BRANCH  19  21
ATOM     21  C   LIG    1      -47.489   9.470 -41.433  0.00  0.00    +0.121 A 
ATOM     22  C   LIG    1      -48.593  10.315 -41.290  0.00  0.00    +0.043 A 
ATOM     23  C   LIG    1      -49.102  10.642 -40.030  0.00  0.00    +0.005 A 
ATOM     24  C   LIG    1      -48.553  10.049 -38.912  0.00  0.00    +0.020 A 
ATOM     25  C   LIG    1      -47.513   9.166 -39.114  0.00  0.00    +0.113 A 
ATOM     26  N   LIG    1      -46.974   8.885 -40.327  0.00  0.00    -0.240 NA
ENDBRANCH  19  21
ENDBRANCH  18  19
ENDBRANCH  17  18
ENDBRANCH  16  17
ENDBRANCH   4  16
TORSDOF 7
ENDMDL
MODEL 3
REMARK VINA RESULT:      -7.6      2.517      3.975
REMARK  Name = 
REMARK                            x       y       z     vdW  Elec       q    Type
REMARK                         _______ _______ _______ _____ _____    ______ ____
ROOT
ATOM      1  C   LIG    1      -45.171  12.017 -45.841  0.00  0.00    -0.046 A 
ATOM      2  C   LIG    1      -44.446  10.868 -45.535  0.00  0.00    +0.007 A 
ATOM      3  C   LIG    1      -45.014   9.608 -45.682  0.00  0.00    +0.046 A 
ATOM      4  C   LIG    1      -46.344   9.451 -46.089  0.00  0.00    +0.121 A 
ATOM      5  C   LIG    1      -47.089  10.596 -46.366  0.00  0.00    +0.046 A 
ATOM      6  C   LIG    1      -46.506  11.871 -46.249  0.00  0.00    +0.007 A 
ENDROOT
BRANCH   1   7
ATOM      7  C   LIG    1      -44.504  13.367 -45.710  0.00  0.00    +0.059 C 
BRANCH   7  10
ATOM      8  O   LIG    1      -43.014  13.347 -42.803  0.00  0.00    -0.274 OA
ATOM      9  C   LIG    1      -42.795  13.901 -43.874  0.00  0.00    +0.232 C 
ATOM     10  C   LIG    1      -43.039  13.303 -45.255  0.00  0.00    +0.143 C 
ATOM     11  S   LIG    1      -42.042  14.392 -46.361  0.00  0.00    -0.089 S 
ATOM     12  C   LIG    1      -41.768  15.585 -45.120  0.00  0.00    +0.114 C 
ATOM     13  S   LIG    1      -40.984  17.030 -45.303  0.00  0.00    -0.028 S 
ATOM     14  N   LIG    1      -42.274  15.160 -43.938  0.00  0.00    -0.273 N 
ATOM     15  H   LIG    1      -42.082  15.664 -43.084  0.00  0.00    +0.156 HD
ENDBRANCH   7  10
ENDBRANCH   1   7
BRANCH   4  16
ATOM     16  O   LIG    1      -46.978   8.229 -46.233  0.00  0.00    -0.490 OA
BRANCH  16  17
ATOM     17  C   LIG    1      -46.607   7.312 -45.195  0.00  0.00    +0.248 C 
BRANCH  17  18
ATOM     18  C   LIG    1      -47.609   7.123 -44.065  0.00  0.00    +0.147 C 
BRANCH  18  19
ATOM     19  N   LIG    1      -47.181   7.670 -42.738  0.00  0.00    -0.315 N 
ATOM     20  C   LIG    1      -46.202   6.797 -42.074  0.00  0.00    +0.131 C 
BRANCH  19  21
ATOM     21  C   LIG    1      -46.835   9.029 -42.584  0.00  0.00    +0.121 A 
ATOM     22  C   LIG    1      -47.774  10.049 -42.768  0.00  0.00    +0.043 A 
ATOM     23  C   LIG    1      -47.434  11.393 -42.597  0.00  0.00    +0.005 A 
ATOM     24  C   LIG    1      -46.167  11.711 -42.155  0.00  0.00    +0.020 A 
ATOM     25  C   LIG    1      -45.301  10.665 -41.918  0.00  0.00    +0.113 A 
ATOM     26  N   LIG    1      -45.603   9.359 -42.134  0.00  0.00    -0.240 NA
ENDBRANCH  19  21
ENDBRANCH  18  19
ENDBRANCH  17  18
ENDBRANCH  16  17
ENDBRANCH   4  16
TORSDOF 7
ENDMDL
MODEL 4
REMARK VINA RESULT:      -7.5      4.005      8.488
REMARK  Name = 
REMARK                            x       y       z     vdW  Elec       q    Type
REMARK                         _______ _______ _______ _____ _____    ______ ____
ROOT
ATOM      1  C   LIG    1      -44.559  11.878 -44.061  0.00  0.00    -0.046 A 
ATOM      2  C   LIG    1      -43.894  10.766 -44.571  0.00  0.00    +0.007 A 
ATOM      3  C   LIG    1      -43.244  10.825 -45.798  0.00  0.00    +0.046 A 
ATOM      4  C   LIG    1      -43.279  11.981 -46.586  0.00  0.00    +0.121 A 
ATOM      5  C   LIG    1      -43.970  13.091 -46.101  0.00  0.00    +0.046 A 
ATOM      6  C   LIG    1      -44.601  13.043 -44.844  0.00  0.00    +0.007 A 
ENDROOT
BRANCH   1   7
ATOM      7  C   LIG    1      -45.216  11.788 -42.703  0.00  0.00    +0.059 C 
BRANCH   7  10
ATOM      8  O   LIG    1      -48.287  12.798 -42.235  0.00  0.00    -0.274 OA
ATOM      9  C   LIG    1      -47.646  11.814 -41.884  0.00  0.00    +0.232 C 
ATOM     10  C   LIG    1      -46.587  11.096 -42.713  0.00  0.00    +0.143 C 
ATOM     11  S   LIG    1      -46.421   9.470 -41.858  0.00  0.00    -0.089 S 
ATOM     12  C   LIG    1      -47.339   9.985 -40.469  0.00  0.00    +0.114 C 
ATOM     13  S   LIG    1      -47.617   9.106 -39.094  0.00  0.00    -0.028 S 
ATOM     14  N   LIG    1      -47.837  11.229 -40.667  0.00  0.00    -0.273 N 
ATOM     15  H   LIG    1      -48.506  11.625 -40.023  0.00  0.00    +0.156 HD
ENDBRANCH   7  10
ENDBRANCH   1   7
BRANCH   4  16
ATOM     16  O   LIG    1      -42.675  12.101 -47.826  0.00  0.00    -0.490 OA
BRANCH  16  17
ATOM     17  C   LIG    1      -41.513  12.939 -47.771  0.00  0.00    +0.248 C 
BRANCH  17  18
ATOM     18  C   LIG    1      -40.213  12.272 -47.343  0.00  0.00    +0.147 C 
BRANCH  18  19
ATOM     19  N   LIG    1      -39.495  12.945 -46.214  0.00  0.00    -0.315 N 
ATOM     20  C   LIG    1      -38.323  13.701 -46.681  0.00  0.00    +0.131 C 
BRANCH  19  21
ATOM     21  C   LIG    1      -40.199  13.661 -45.223  0.00  0.00    +0.121 A 
ATOM     22  C   LIG    1      -40.781  13.016 -44.128  0.00  0.00    +0.043 A 
ATOM     23  C   LIG    1      -41.462  13.729 -43.138  0.00  0.00    +0.005 A 
ATOM     24  C   LIG    1      -41.484  15.107 -43.202  0.00  0.00    +0.020 A 
ATOM     25  C   LIG    1      -40.832  15.699 -44.264  0.00  0.00    +0.113 A 
ATOM     26  N   LIG    1      -40.217  15.014 -45.260  0.00  0.00    -0.240 NA
ENDBRANCH  19  21
ENDBRANCH  18  19
ENDBRANCH  17  18
ENDBRANCH  16  17
ENDBRANCH   4  16
TORSDOF 7
ENDMDL
MODEL 5
REMARK VINA RESULT:      -7.4      1.313      1.772
REMARK  Name = 
REMARK                            x       y       z     vdW  Elec       q    Type
REMARK                         _______ _______ _______ _____ _____    ______ ____
ROOT
ATOM      1  C   LIG    1      -40.784  14.617 -44.492  0.00  0.00    -0.046 A 
ATOM      2  C   LIG    1      -41.211  13.710 -45.458  0.00  0.00    +0.007 A 
ATOM      3  C   LIG    1      -42.277  12.853 -45.209  0.00  0.00    +0.046 A 
ATOM      4  C   LIG    1      -42.922  12.836 -43.966  0.00  0.00    +0.121 A 
ATOM      5  C   LIG    1      -42.481  13.717 -42.981  0.00  0.00    +0.046 A 
ATOM      6  C   LIG    1      -41.423  14.607 -43.242  0.00  0.00    +0.007 A 
ENDROOT
BRANCH   1   7
ATOM      7  C   LIG    1      -39.650  15.562 -44.816  0.00  0.00    +0.059 C 
BRANCH   7  10
ATOM      8  O   LIG    1      -37.816  17.435 -46.765  0.00  0.00    -0.274 OA
ATOM      9  C   LIG    1      -38.876  17.597 -46.172  0.00  0.00    +0.232 C 
ATOM     10  C   LIG    1      -39.952  16.538 -45.963  0.00  0.00    +0.143 C 
ATOM     11  S   LIG    1      -41.433  17.535 -45.500  0.00  0.00    -0.089 S 
ATOM     12  C   LIG    1      -40.512  18.997 -45.275  0.00  0.00    +0.114 C 
ATOM     13  S   LIG    1      -41.092  20.450 -44.736  0.00  0.00    -0.028 S 
ATOM     14  N   LIG    1      -39.220  18.800 -45.629  0.00  0.00    -0.273 N 
ATOM     15  H   LIG    1      -38.578  19.577 -45.694  0.00  0.00    +0.156 HD
ENDBRANCH   7  10
ENDBRANCH   1   7
BRANCH   4  16
ATOM     16  O   LIG    1      -43.973  11.994 -43.643  0.00  0.00    -0.490 OA
BRANCH  16  17
ATOM     17  C   LIG    1      -45.191  12.396 -44.284  0.00  0.00    +0.248 C 
BRANCH  17  18
ATOM     18  C   LIG    1      -46.405  11.507 -44.057  0.00  0.00    +0.147 C 
BRANCH  18  19
ATOM     19  N   LIG    1      -47.429  12.058 -43.114  0.00  0.00    -0.315 N 
ATOM     20  C   LIG    1      -48.645  12.494 -43.817  0.00  0.00    +0.131 C 
BRANCH  19  21
ATOM     21  C   LIG    1      -47.750  11.392 -41.912  0.00  0.00    +0.121 A 
ATOM     22  C   LIG    1      -49.037  11.442 -41.369  0.00  0.00    +0.043 A 
ATOM     23  C   LIG    1      -49.358  10.767 -40.188  0.00  0.00    +0.005 A 
ATOM     24  C   LIG    1      -48.403   9.968 -39.595  0.00  0.00    +0.020 A 
ATOM     25  C   LIG    1      -47.170   9.895 -40.210  0.00  0.00    +0.113 A 
ATOM     26  N   LIG    1      -46.831  10.590 -41.325  0.00  0.00    -0.240 NA
ENDBRANCH  19  21
ENDBRANCH  18  19
ENDBRANCH  17  18
ENDBRANCH  16  17
ENDBRANCH   4  16
TORSDOF 7
ENDMDL
MODEL 6
REMARK VINA RESULT:      -7.2      2.180      3.704
REMARK  Name = 
REMARK                            x       y       z     vdW  Elec       q    Type
REMARK                         _______ _______ _______ _____ _____    ______ ____
ROOT
ATOM      1  C   LIG    1      -42.934  12.251 -44.304  0.00  0.00    -0.046 A 
ATOM      2  C   LIG    1      -43.086  10.890 -44.552  0.00  0.00    +0.007 A 
ATOM      3  C   LIG    1      -43.905  10.106 -43.747  0.00  0.00    +0.046 A 
ATOM      4  C   LIG    1      -44.560  10.644 -42.633  0.00  0.00    +0.121 A 
ATOM      5  C   LIG    1      -44.388  11.999 -42.355  0.00  0.00    +0.046 A 
ATOM      6  C   LIG    1      -43.586  12.800 -43.188  0.00  0.00    +0.007 A 
ENDROOT
BRANCH   1   7
ATOM      7  C   LIG    1      -42.069  13.078 -45.227  0.00  0.00    +0.059 C 
BRANCH   7  10
ATOM      8  O   LIG    1      -41.187  15.441 -43.153  0.00  0.00    -0.274 OA
ATOM      9  C   LIG    1      -40.709  14.985 -44.185  0.00  0.00    +0.232 C 
ATOM     10  C   LIG    1      -40.735  13.522 -44.611  0.00  0.00    +0.143 C 
ATOM     11  S   LIG    1      -39.438  13.447 -45.920  0.00  0.00    -0.089 S 
ATOM     12  C   LIG    1      -39.297  15.180 -46.032  0.00  0.00    +0.114 C 
ATOM     13  S   LIG    1      -38.354  16.023 -47.099  0.00  0.00    -0.028 S 
ATOM     14  N   LIG    1      -40.064  15.778 -45.089  0.00  0.00    -0.273 N 
ATOM     15  H   LIG    1      -39.995  16.771 -44.920  0.00  0.00    +0.156 HD
ENDBRANCH   7  10
ENDBRANCH   1   7
BRANCH   4  16
ATOM     16  O   LIG    1      -45.371   9.917 -41.776  0.00  0.00    -0.490 OA
BRANCH  16  17
ATOM     17  C   LIG    1      -46.567  10.634 -41.442  0.00  0.00    +0.248 C 
BRANCH  17  18
ATOM     18  C   LIG    1      -47.820  10.268 -42.225  0.00  0.00    +0.147 C 
BRANCH  18  19
ATOM     19  N   LIG    1      -48.188  11.222 -43.318  0.00  0.00    -0.315 N 
ATOM     20  C   LIG    1      -48.277  12.608 -42.832  0.00  0.00    +0.131 C 
BRANCH  19  21
ATOM     21  C   LIG    1      -47.558  11.168 -44.580  0.00  0.00    +0.121 A 
ATOM     22  C   LIG    1      -47.858  10.163 -45.505  0.00  0.00    +0.043 A 
ATOM     23  C   LIG    1      -47.246  10.122 -46.760  0.00  0.00    +0.005 A 
ATOM     24  C   LIG    1      -46.392  11.143 -47.123  0.00  0.00    +0.020 A 
ATOM     25  C   LIG    1      -46.186  12.149 -46.202  0.00  0.00    +0.113 A 
ATOM     26  N   LIG    1      -46.731  12.170 -44.959  0.00  0.00    -0.240 NA
ENDBRANCH  19  21
ENDBRANCH  18  19
ENDBRANCH  17  18
ENDBRANCH  16  17
ENDBRANCH   4  16
TORSDOF 7
ENDMDL
MODEL 7
REMARK VINA RESULT:      -7.2      3.835      9.447
REMARK  Name = 
REMARK                            x       y       z     vdW  Elec       q    Type
REMARK                         _______ _______ _______ _____ _____    ______ ____
ROOT
ATOM      1  C   LIG    1      -43.489  13.049 -43.541  0.00  0.00    -0.046 A 
ATOM      2  C   LIG    1      -42.385  13.761 -43.082  0.00  0.00    +0.007 A 
ATOM      3  C   LIG    1      -41.895  14.851 -43.792  0.00  0.00    +0.046 A 
ATOM      4  C   LIG    1      -42.459  15.237 -45.013  0.00  0.00    +0.121 A 
ATOM      5  C   LIG    1      -43.544  14.511 -45.499  0.00  0.00    +0.046 A 
ATOM      6  C   LIG    1      -44.062  13.427 -44.766  0.00  0.00    +0.007 A 
ENDROOT
BRANCH   1   7
ATOM      7  C   LIG    1      -44.019  11.896 -42.719  0.00  0.00    +0.059 C 
BRANCH   7  10
ATOM      8  O   LIG    1      -47.017  12.132 -41.446  0.00  0.00    -0.274 OA
ATOM      9  C   LIG    1      -46.387  11.234 -41.990  0.00  0.00    +0.232 C 
ATOM     10  C   LIG    1      -45.409  11.404 -43.147  0.00  0.00    +0.143 C 
ATOM     11  S   LIG    1      -45.239   9.689 -43.804  0.00  0.00    -0.089 S 
ATOM     12  C   LIG    1      -46.045   8.969 -42.437  0.00  0.00    +0.114 C 
ATOM     13  S   LIG    1      -46.259   7.352 -42.161  0.00  0.00    -0.028 S 
ATOM     14  N   LIG    1      -46.515   9.931 -41.606  0.00  0.00    -0.273 N 
ATOM     15  H   LIG    1      -47.127   9.696 -40.838  0.00  0.00    +0.156 HD
ENDBRANCH   7  10
ENDBRANCH   1   7
BRANCH   4  16
ATOM     16  O   LIG    1      -42.007  16.297 -45.782  0.00  0.00    -0.490 OA
BRANCH  16  17
ATOM     17  C   LIG    1      -40.967  17.027 -45.120  0.00  0.00    +0.248 C 
BRANCH  17  18
ATOM     18  C   LIG    1      -40.037  17.844 -46.008  0.00  0.00    +0.147 C 
BRANCH  18  19
ATOM     19  N   LIG    1      -40.627  19.107 -46.554  0.00  0.00    -0.315 N 
ATOM     20  C   LIG    1      -41.114  18.935 -47.931  0.00  0.00    +0.131 C 
BRANCH  19  21
ATOM     21  C   LIG    1      -41.524  19.885 -45.792  0.00  0.00    +0.121 A 
ATOM     22  C   LIG    1      -41.069  20.813 -44.850  0.00  0.00    +0.043 A 
ATOM     23  C   LIG    1      -41.959  21.596 -44.110  0.00  0.00    +0.005 A 
ATOM     24  C   LIG    1      -43.309  21.509 -44.377  0.00  0.00    +0.020 A 
ATOM     25  C   LIG    1      -43.700  20.631 -45.367  0.00  0.00    +0.113 A 
ATOM     26  N   LIG    1      -42.850  19.825 -46.052  0.00  0.00    -0.240 NA
ENDBRANCH  19  21
ENDBRANCH  18  19
ENDBRANCH  17  18
ENDBRANCH  16  17
ENDBRANCH   4  16
TORSDOF 7
ENDMDL
MODEL 8
REMARK VINA RESULT:      -7.1      1.969      3.052
REMARK  Name = 
REMARK                            x       y       z     vdW  Elec       q    Type
REMARK                         _______ _______ _______ _____ _____    ______ ____
ROOT
ATOM      1  C   LIG    1      -41.562  12.732 -44.630  0.00  0.00    -0.046 A 
ATOM      2  C   LIG    1      -42.400  13.292 -43.670  0.00  0.00    +0.007 A 
ATOM      3  C   LIG    1      -43.422  12.546 -43.094  0.00  0.00    +0.046 A 
ATOM      4  C   LIG    1      -43.677  11.229 -43.495  0.00  0.00    +0.121 A 
ATOM      5  C   LIG    1      -42.865  10.670 -44.480  0.00  0.00    +0.046 A 
ATOM      6  C   LIG    1      -41.810  11.412 -45.040  0.00  0.00    +0.007 A 
ENDROOT
BRANCH   1   7
ATOM      7  C   LIG    1      -40.435  13.562 -45.201  0.00  0.00    +0.059 C 
BRANCH   7  10
ATOM      8  O   LIG    1      -42.809  15.586 -46.168  0.00  0.00    -0.274 OA
ATOM      9  C   LIG    1      -41.585  15.635 -46.180  0.00  0.00    +0.232 C 
ATOM     10  C   LIG    1      -40.659  15.078 -45.104  0.00  0.00    +0.143 C 
ATOM     11  S   LIG    1      -39.058  15.923 -45.456  0.00  0.00    -0.089 S 
ATOM     12  C   LIG    1      -39.592  16.529 -47.000  0.00  0.00    +0.114 C 
ATOM     13  S   LIG    1      -38.681  17.376 -48.092  0.00  0.00    -0.028 S 
ATOM     14  N   LIG    1      -40.899  16.232 -47.196  0.00  0.00    -0.273 N 
ATOM     15  H   LIG    1      -41.406  16.628 -47.975  0.00  0.00    +0.156 HD
ENDBRANCH   7  10
ENDBRANCH   1   7
BRANCH   4  16
ATOM     16  O   LIG    1      -44.691  10.438 -42.981  0.00  0.00    -0.490 OA
BRANCH  16  17
ATOM     17  C   LIG    1      -45.181  10.948 -41.734  0.00  0.00    +0.248 C 
BRANCH  17  18
ATOM     18  C   LIG    1      -46.179  10.074 -40.987  0.00  0.00    +0.147 C 
BRANCH  18  19
ATOM     19  N   LIG    1      -47.505   9.904 -41.662  0.00  0.00    -0.315 N 
ATOM     20  C   LIG    1      -48.470   9.198 -40.806  0.00  0.00    +0.131 C 
BRANCH  19  21
ATOM     21  C   LIG    1      -48.121  10.975 -42.344  0.00  0.00    +0.121 A 
ATOM     22  C   LIG    1      -48.818  11.975 -41.659  0.00  0.00    +0.043 A 
ATOM     23  C   LIG    1      -49.412  13.043 -42.336  0.00  0.00    +0.005 A 
ATOM     24  C   LIG    1      -49.232  13.155 -43.699  0.00  0.00    +0.020 A 
ATOM     25  C   LIG    1      -48.475  12.182 -44.317  0.00  0.00    +0.113 A 
ATOM     26  N   LIG    1      -47.942  11.110 -43.679  0.00  0.00    -0.240 NA
ENDBRANCH  19  21
ENDBRANCH  18  19
ENDBRANCH  17  18
ENDBRANCH  16  17
ENDBRANCH   4  16
TORSDOF 7
ENDMDL
MODEL 9
REMARK VINA RESULT:      -7.1      1.414      2.428
REMARK  Name = 
REMARK                            x       y       z     vdW  Elec       q    Type
REMARK                         _______ _______ _______ _____ _____    ______ ____
ROOT
ATOM      1  C   LIG    1      -41.704  14.893 -44.430  0.00  0.00    -0.046 A 
ATOM      2  C   LIG    1      -42.615  15.035 -45.474  0.00  0.00    +0.007 A 
ATOM      3  C   LIG    1      -43.788  14.290 -45.502  0.00  0.00    +0.046 A 
ATOM      4  C   LIG    1      -44.071  13.340 -44.514  0.00  0.00    +0.121 A 
ATOM      5  C   LIG    1      -43.150  13.166 -43.481  0.00  0.00    +0.046 A 
ATOM      6  C   LIG    1      -41.978  13.942 -43.435  0.00  0.00    +0.007 A 
ENDROOT
BRANCH   1   7
ATOM      7  C   LIG    1      -40.461  15.752 -44.414  0.00  0.00    +0.059 C 
BRANCH   7  10
ATOM      8  O   LIG    1      -37.508  14.981 -45.577  0.00  0.00    -0.274 OA
ATOM      9  C   LIG    1      -38.253  15.944 -45.705  0.00  0.00    +0.232 C 
ATOM     10  C   LIG    1      -39.775  15.892 -45.780  0.00  0.00    +0.143 C 
ATOM     11  S   LIG    1      -40.213  17.541 -46.482  0.00  0.00    -0.089 S 
ATOM     12  C   LIG    1      -38.609  18.182 -46.262  0.00  0.00    +0.114 C 
ATOM     13  S   LIG    1      -38.119  19.733 -46.570  0.00  0.00    -0.028 S 
ATOM     14  N   LIG    1      -37.772  17.216 -45.812  0.00  0.00    -0.273 N 
ATOM     15  H   LIG    1      -36.776  17.378 -45.763  0.00  0.00    +0.156 HD
ENDBRANCH   7  10
ENDBRANCH   1   7
BRANCH   4  16
ATOM     16  O   LIG    1      -45.207  12.549 -44.492  0.00  0.00    -0.490 OA
BRANCH  16  17
ATOM     17  C   LIG    1      -45.020  11.372 -43.696  0.00  0.00    +0.248 C 
BRANCH  17  18
ATOM     18  C   LIG    1      -45.655  10.090 -44.215  0.00  0.00    +0.147 C 
BRANCH  18  19
ATOM     19  N   LIG    1      -47.152  10.080 -44.222  0.00  0.00    -0.315 N 
ATOM     20  C   LIG    1      -47.694   8.739 -43.956  0.00  0.00    +0.131 C 
BRANCH  19  21
ATOM     21  C   LIG    1      -47.894  11.070 -43.544  0.00  0.00    +0.121 A 
ATOM     22  C   LIG    1      -48.490  12.134 -44.227  0.00  0.00    +0.043 A 
ATOM     23  C   LIG    1      -49.240  13.103 -43.556  0.00  0.00    +0.005 A 
ATOM     24  C   LIG    1      -49.464  12.957 -42.203  0.00  0.00    +0.020 A 
ATOM     25  C   LIG    1      -48.915  11.851 -41.589  0.00  0.00    +0.113 A 
ATOM     26  N   LIG    1      -48.138  10.934 -42.220  0.00  0.00    -0.240 NA
ENDBRANCH  19  21
ENDBRANCH  18  19
ENDBRANCH  17  18
ENDBRANCH  16  17
ENDBRANCH   4  16
TORSDOF 7
ENDMDL
