MODEL 1
REMARK VINA RESULT:      -6.8      0.000      0.000
REMARK  Name = 
REMARK                            x       y       z     vdW  Elec       q    Type
REMARK                         _______ _______ _______ _____ _____    ______ ____
ROOT
ATOM      1  C   LIG    1       26.581 -27.255 -10.634  0.00  0.00    -0.046 A 
ATOM      2  C   LIG    1       27.233 -28.016 -11.600  0.00  0.00    +0.007 A 
ATOM      3  C   LIG    1       27.383 -29.389 -11.444  0.00  0.00    +0.046 A 
ATOM      4  C   LIG    1       26.932 -30.044 -10.292  0.00  0.00    +0.121 A 
ATOM      5  C   LIG    1       26.308 -29.286  -9.302  0.00  0.00    +0.046 A 
ATOM      6  C   LIG    1       26.127 -27.902  -9.473  0.00  0.00    +0.007 A 
ENDROOT
BRANCH   1   7
ATOM      7  C   LIG    1       26.400 -25.772 -10.861  0.00  0.00    +0.059 C 
BRANCH   7  10
ATOM      8  O   LIG    1       27.619 -25.404 -13.869  0.00  0.00    -0.274 OA
ATOM      9  C   LIG    1       26.796 -24.793 -13.198  0.00  0.00    +0.232 C 
ATOM     10  C   LIG    1       25.798 -25.413 -12.227  0.00  0.00    +0.143 C 
ATOM     11  S   LIG    1       24.564 -24.065 -11.980  0.00  0.00    -0.089 S 
ATOM     12  C   LIG    1       25.561 -22.864 -12.755  0.00  0.00    +0.114 C 
ATOM     13  S   LIG    1       25.224 -21.249 -12.897  0.00  0.00    -0.028 S 
ATOM     14  N   LIG    1       26.676 -23.436 -13.269  0.00  0.00    -0.273 N 
ATOM     15  H   LIG    1       27.295 -22.912 -13.871  0.00  0.00    +0.156 HD
ENDBRANCH   7  10
ENDBRANCH   1   7
BRANCH   4  16
ATOM     16  O   LIG    1       27.069 -31.403 -10.061  0.00  0.00    -0.490 OA
BRANCH  16  17
ATOM     17  C   LIG    1       25.801 -32.072 -10.064  0.00  0.00    +0.248 C 
BRANCH  17  18
ATOM     18  C   LIG    1       24.901 -31.818 -11.265  0.00  0.00    +0.147 C 
BRANCH  18  19
ATOM     19  N   LIG    1       23.568 -31.217 -10.944  0.00  0.00    -0.315 N 
ATOM     20  C   LIG    1       23.095 -31.609  -9.608  0.00  0.00    +0.131 C 
BRANCH  19  21
ATOM     21  C   LIG    1       23.299 -29.855 -11.198  0.00  0.00    +0.121 A 
ATOM     22  C   LIG    1       23.495 -29.294 -12.463  0.00  0.00    +0.043 A 
ATOM     23  C   LIG    1       23.210 -27.950 -12.717  0.00  0.00    +0.005 A 
ATOM     24  C   LIG    1       22.645 -27.186 -11.717  0.00  0.00    +0.020 A 
ATOM     25  C   LIG    1       22.404 -27.806 -10.509  0.00  0.00    +0.113 A 
ATOM     26  N   LIG    1       22.728 -29.095 -10.235  0.00  0.00    -0.240 NA
ENDBRANCH  19  21
ENDBRANCH  18  19
ENDBRANCH  17  18
ENDBRANCH  16  17
ENDBRANCH   4  16
TORSDOF 7
ENDMDL
MODEL 2
REMARK VINA RESULT:      -6.2      2.236      4.073
REMARK  Name = 
REMARK                            x       y       z     vdW  Elec       q    Type
REMARK                         _______ _______ _______ _____ _____    ______ ____
ROOT
ATOM      1  C   LIG    1       22.817 -27.036 -11.485  0.00  0.00    -0.046 A 
ATOM      2  C   LIG    1       22.733 -28.091 -12.389  0.00  0.00    +0.007 A 
ATOM      3  C   LIG    1       22.594 -29.401 -11.945  0.00  0.00    +0.046 A 
ATOM      4  C   LIG    1       22.586 -29.710 -10.580  0.00  0.00    +0.121 A 
ATOM      5  C   LIG    1       22.703 -28.664  -9.665  0.00  0.00    +0.046 A 
ATOM      6  C   LIG    1       22.812 -27.335 -10.113  0.00  0.00    +0.007 A 
ENDROOT
BRANCH   1   7
ATOM      7  C   LIG    1       22.924 -25.622 -12.008  0.00  0.00    +0.059 C 
BRANCH   7  10
ATOM      8  O   LIG    1       24.005 -22.561 -12.364  0.00  0.00    -0.274 OA
ATOM      9  C   LIG    1       24.546 -23.658 -12.310  0.00  0.00    +0.232 C 
ATOM     10  C   LIG    1       24.107 -24.828 -11.436  0.00  0.00    +0.143 C 
ATOM     11  S   LIG    1       25.591 -25.922 -11.430  0.00  0.00    -0.089 S 
ATOM     12  C   LIG    1       26.377 -25.047 -12.715  0.00  0.00    +0.114 C 
ATOM     13  S   LIG    1       27.813 -25.439 -13.437  0.00  0.00    -0.028 S 
ATOM     14  N   LIG    1       25.654 -23.951 -13.050  0.00  0.00    -0.273 N 
ATOM     15  H   LIG    1       26.030 -23.256 -13.679  0.00  0.00    +0.156 HD
ENDBRANCH   7  10
ENDBRANCH   1   7
BRANCH   4  16
ATOM     16  O   LIG    1       22.474 -30.992 -10.069  0.00  0.00    -0.490 OA
BRANCH  16  17
ATOM     17  C   LIG    1       23.590 -31.811 -10.443  0.00  0.00    +0.248 C 
BRANCH  17  18
ATOM     18  C   LIG    1       24.887 -31.585  -9.678  0.00  0.00    +0.147 C 
BRANCH  18  19
ATOM     19  N   LIG    1       26.048 -31.141 -10.513  0.00  0.00    -0.315 N 
ATOM     20  C   LIG    1       25.700 -31.062 -11.940  0.00  0.00    +0.131 C 
BRANCH  19  21
ATOM     21  C   LIG    1       26.852 -30.049 -10.126  0.00  0.00    +0.121 A 
ATOM     22  C   LIG    1       26.427 -29.135  -9.157  0.00  0.00    +0.043 A 
ATOM     23  C   LIG    1       27.233 -28.064  -8.761  0.00  0.00    +0.005 A 
ATOM     24  C   LIG    1       28.507 -27.959  -9.279  0.00  0.00    +0.020 A 
ATOM     25  C   LIG    1       28.905 -28.928 -10.176  0.00  0.00    +0.113 A 
ATOM     26  N   LIG    1       28.111 -29.939 -10.610  0.00  0.00    -0.240 NA
ENDBRANCH  19  21
ENDBRANCH  18  19
ENDBRANCH  17  18
ENDBRANCH  16  17
ENDBRANCH   4  16
TORSDOF 7
ENDMDL
MODEL 3
REMARK VINA RESULT:      -5.4      1.683      2.133
REMARK  Name = 
REMARK                            x       y       z     vdW  Elec       q    Type
REMARK                         _______ _______ _______ _____ _____    ______ ____
ROOT
ATOM      1  C   LIG    1       26.671 -28.118 -12.166  0.00  0.00    -0.046 A 
ATOM      2  C   LIG    1       27.333 -28.474 -10.994  0.00  0.00    +0.007 A 
ATOM      3  C   LIG    1       27.125 -29.717 -10.408  0.00  0.00    +0.046 A 
ATOM      4  C   LIG    1       26.209 -30.630 -10.942  0.00  0.00    +0.121 A 
ATOM      5  C   LIG    1       25.515 -30.271 -12.097  0.00  0.00    +0.046 A 
ATOM      6  C   LIG    1       25.748 -29.026 -12.709  0.00  0.00    +0.007 A 
ENDROOT
BRANCH   1   7
ATOM      7  C   LIG    1       26.956 -26.775 -12.796  0.00  0.00    +0.059 C 
BRANCH   7  10
ATOM      8  O   LIG    1       25.256 -25.926 -10.140  0.00  0.00    -0.274 OA
ATOM      9  C   LIG    1       25.720 -25.310 -11.092  0.00  0.00    +0.232 C 
ATOM     10  C   LIG    1       27.038 -25.614 -11.794  0.00  0.00    +0.143 C 
ATOM     11  S   LIG    1       27.377 -24.062 -12.732  0.00  0.00    -0.089 S 
ATOM     12  C   LIG    1       25.780 -23.420 -12.458  0.00  0.00    +0.114 C 
ATOM     13  S   LIG    1       25.170 -22.008 -13.070  0.00  0.00    -0.028 S 
ATOM     14  N   LIG    1       25.079 -24.234 -11.633  0.00  0.00    -0.273 N 
ATOM     15  H   LIG    1       24.187 -23.945 -11.259  0.00  0.00    +0.156 HD
ENDBRANCH   7  10
ENDBRANCH   1   7
BRANCH   4  16
ATOM     16  O   LIG    1       25.936 -31.874 -10.398  0.00  0.00    -0.490 OA
BRANCH  16  17
ATOM     17  C   LIG    1       24.901 -31.804  -9.407  0.00  0.00    +0.248 C 
BRANCH  17  18
ATOM     18  C   LIG    1       23.493 -31.526  -9.913  0.00  0.00    +0.147 C 
BRANCH  18  19
ATOM     19  N   LIG    1       23.015 -30.120  -9.725  0.00  0.00    -0.315 N 
ATOM     20  C   LIG    1       23.852 -29.379  -8.769  0.00  0.00    +0.131 C 
BRANCH  19  21
ATOM     21  C   LIG    1       22.668 -29.311 -10.827  0.00  0.00    +0.121 A 
ATOM     22  C   LIG    1       22.859 -27.926 -10.808  0.00  0.00    +0.043 A 
ATOM     23  C   LIG    1       22.532 -27.129 -11.907  0.00  0.00    +0.005 A 
ATOM     24  C   LIG    1       22.090 -27.735 -13.065  0.00  0.00    +0.020 A 
ATOM     25  C   LIG    1       21.988 -29.111 -13.057  0.00  0.00    +0.113 A 
ATOM     26  N   LIG    1       22.250 -29.889 -11.977  0.00  0.00    -0.240 NA
ENDBRANCH  19  21
ENDBRANCH  18  19
ENDBRANCH  17  18
ENDBRANCH  16  17
ENDBRANCH   4  16
TORSDOF 7
ENDMDL
MODEL 4
REMARK VINA RESULT:      -5.4      2.788      6.267
REMARK  Name = 
REMARK                            x       y       z     vdW  Elec       q    Type
REMARK                         _______ _______ _______ _____ _____    ______ ____
ROOT
ATOM      1  C   LIG    1       24.792 -30.161 -12.196  0.00  0.00    -0.046 A 
ATOM      2  C   LIG    1       23.452 -30.269 -11.834  0.00  0.00    +0.007 A 
ATOM      3  C   LIG    1       22.580 -29.200 -12.004  0.00  0.00    +0.046 A 
ATOM      4  C   LIG    1       23.026 -27.967 -12.494  0.00  0.00    +0.121 A 
ATOM      5  C   LIG    1       24.373 -27.837 -12.829  0.00  0.00    +0.046 A 
ATOM      6  C   LIG    1       25.250 -28.928 -12.687  0.00  0.00    +0.007 A 
ENDROOT
BRANCH   1   7
ATOM      7  C   LIG    1       25.699 -31.359 -12.036  0.00  0.00    +0.059 C 
BRANCH   7  10
ATOM      8  O   LIG    1       24.676 -31.757  -8.960  0.00  0.00    -0.274 OA
ATOM      9  C   LIG    1       25.515 -31.044  -9.497  0.00  0.00    +0.232 C 
ATOM     10  C   LIG    1       26.401 -31.440 -10.673  0.00  0.00    +0.143 C 
ATOM     11  S   LIG    1       27.736 -30.168 -10.633  0.00  0.00    -0.089 S 
ATOM     12  C   LIG    1       26.893 -29.162  -9.487  0.00  0.00    +0.114 C 
ATOM     13  S   LIG    1       27.380 -27.680  -8.936  0.00  0.00    -0.028 S 
ATOM     14  N   LIG    1       25.759 -29.773  -9.068  0.00  0.00    -0.273 N 
ATOM     15  H   LIG    1       25.222 -29.394  -8.301  0.00  0.00    +0.156 HD
ENDBRANCH   7  10
ENDBRANCH   1   7
BRANCH   4  16
ATOM     16  O   LIG    1       22.218 -26.856 -12.666  0.00  0.00    -0.490 OA
BRANCH  16  17
ATOM     17  C   LIG    1       22.146 -26.062 -11.474  0.00  0.00    +0.248 C 
BRANCH  17  18
ATOM     18  C   LIG    1       22.738 -24.662 -11.552  0.00  0.00    +0.147 C 
BRANCH  18  19
ATOM     19  N   LIG    1       24.114 -24.521 -10.980  0.00  0.00    -0.315 N 
ATOM     20  C   LIG    1       24.349 -25.461  -9.874  0.00  0.00    +0.131 C 
BRANCH  19  21
ATOM     21  C   LIG    1       25.248 -24.429 -11.815  0.00  0.00    +0.121 A 
ATOM     22  C   LIG    1       26.319 -25.320 -11.696  0.00  0.00    +0.043 A 
ATOM     23  C   LIG    1       27.432 -25.238 -12.536  0.00  0.00    +0.005 A 
ATOM     24  C   LIG    1       27.433 -24.312 -13.558  0.00  0.00    +0.020 A 
ATOM     25  C   LIG    1       26.320 -23.505 -13.678  0.00  0.00    +0.113 A 
ATOM     26  N   LIG    1       25.259 -23.538 -12.833  0.00  0.00    -0.240 NA
ENDBRANCH  19  21
ENDBRANCH  18  19
ENDBRANCH  17  18
ENDBRANCH  16  17
ENDBRANCH   4  16
TORSDOF 7
ENDMDL
MODEL 5
REMARK VINA RESULT:      -5.3      2.130      3.584
REMARK  Name = 
REMARK                            x       y       z     vdW  Elec       q    Type
REMARK                         _______ _______ _______ _____ _____    ______ ____
ROOT
ATOM      1  C   LIG    1       24.619 -27.589 -11.978  0.00  0.00    -0.046 A 
ATOM      2  C   LIG    1       24.125 -27.633 -10.678  0.00  0.00    +0.007 A 
ATOM      3  C   LIG    1       23.328 -28.690 -10.254  0.00  0.00    +0.046 A 
ATOM      4  C   LIG    1       22.953 -29.716 -11.130  0.00  0.00    +0.121 A 
ATOM      5  C   LIG    1       23.415 -29.664 -12.444  0.00  0.00    +0.046 A 
ATOM      6  C   LIG    1       24.248 -28.612 -12.865  0.00  0.00    +0.007 A 
ENDROOT
BRANCH   1   7
ATOM      7  C   LIG    1       25.518 -26.445 -12.388  0.00  0.00    +0.059 C 
BRANCH   7  10
ATOM      8  O   LIG    1       23.194 -24.904 -10.687  0.00  0.00    -0.274 OA
ATOM      9  C   LIG    1       24.168 -24.536 -11.333  0.00  0.00    +0.232 C 
ATOM     10  C   LIG    1       25.508 -25.257 -11.414  0.00  0.00    +0.143 C 
ATOM     11  S   LIG    1       26.640 -23.959 -12.074  0.00  0.00    -0.089 S 
ATOM     12  C   LIG    1       25.336 -22.880 -12.489  0.00  0.00    +0.114 C 
ATOM     13  S   LIG    1       25.473 -21.423 -13.262  0.00  0.00    -0.028 S 
ATOM     14  N   LIG    1       24.153 -23.385 -12.065  0.00  0.00    -0.273 N 
ATOM     15  H   LIG    1       23.312 -22.827 -12.098  0.00  0.00    +0.156 HD
ENDBRANCH   7  10
ENDBRANCH   1   7
BRANCH   4  16
ATOM     16  O   LIG    1       22.144 -30.784 -10.781  0.00  0.00    -0.490 OA
BRANCH  16  17
ATOM     17  C   LIG    1       22.910 -31.886 -10.274  0.00  0.00    +0.248 C 
BRANCH  17  18
ATOM     18  C   LIG    1       24.086 -31.540  -9.373  0.00  0.00    +0.147 C 
BRANCH  18  19
ATOM     19  N   LIG    1       25.436 -31.683 -10.006  0.00  0.00    -0.315 N 
ATOM     20  C   LIG    1       25.363 -32.368 -11.305  0.00  0.00    +0.131 C 
BRANCH  19  21
ATOM     21  C   LIG    1       26.341 -30.601 -10.053  0.00  0.00    +0.121 A 
ATOM     22  C   LIG    1       27.078 -30.314 -11.206  0.00  0.00    +0.043 A 
ATOM     23  C   LIG    1       27.959 -29.231 -11.257  0.00  0.00    +0.005 A 
ATOM     24  C   LIG    1       28.037 -28.381 -10.173  0.00  0.00    +0.020 A 
ATOM     25  C   LIG    1       27.235 -28.667  -9.089  0.00  0.00    +0.113 A 
ATOM     26  N   LIG    1       26.418 -29.747  -9.007  0.00  0.00    -0.240 NA
ENDBRANCH  19  21
ENDBRANCH  18  19
ENDBRANCH  17  18
ENDBRANCH  16  17
ENDBRANCH   4  16
TORSDOF 7
ENDMDL
MODEL 6
REMARK VINA RESULT:      -5.1      2.838      6.406
REMARK  Name = 
REMARK                            x       y       z     vdW  Elec       q    Type
REMARK                         _______ _______ _______ _____ _____    ______ ____
ROOT
ATOM      1  C   LIG    1       23.120 -29.655 -11.019  0.00  0.00    -0.046 A 
ATOM      2  C   LIG    1       22.905 -28.772  -9.965  0.00  0.00    +0.007 A 
ATOM      3  C   LIG    1       22.596 -27.438 -10.204  0.00  0.00    +0.046 A 
ATOM      4  C   LIG    1       22.541 -26.925 -11.505  0.00  0.00    +0.121 A 
ATOM      5  C   LIG    1       22.787 -27.793 -12.568  0.00  0.00    +0.046 A 
ATOM      6  C   LIG    1       23.068 -29.151 -12.329  0.00  0.00    +0.007 A 
ENDROOT
BRANCH   1   7
ATOM      7  C   LIG    1       23.410 -31.107 -10.719  0.00  0.00    +0.059 C 
BRANCH   7  10
ATOM      8  O   LIG    1       25.743 -33.021  -9.468  0.00  0.00    -0.274 OA
ATOM      9  C   LIG    1       25.744 -31.965 -10.090  0.00  0.00    +0.232 C 
ATOM     10  C   LIG    1       24.783 -31.589 -11.211  0.00  0.00    +0.143 C 
ATOM     11  S   LIG    1       25.634 -30.173 -12.031  0.00  0.00    -0.089 S 
ATOM     12  C   LIG    1       26.804 -29.995 -10.752  0.00  0.00    +0.114 C 
ATOM     13  S   LIG    1       27.967 -28.823 -10.640  0.00  0.00    -0.028 S 
ATOM     14  N   LIG    1       26.657 -30.983  -9.838  0.00  0.00    -0.273 N 
ATOM     15  H   LIG    1       27.339 -31.114  -9.105  0.00  0.00    +0.156 HD
ENDBRANCH   7  10
ENDBRANCH   1   7
BRANCH   4  16
ATOM     16  O   LIG    1       22.262 -25.605 -11.814  0.00  0.00    -0.490 OA
BRANCH  16  17
ATOM     17  C   LIG    1       23.414 -24.767 -11.650  0.00  0.00    +0.248 C 
BRANCH  17  18
ATOM     18  C   LIG    1       24.093 -24.802 -10.288  0.00  0.00    +0.147 C 
BRANCH  18  19
ATOM     19  N   LIG    1       25.528 -25.228 -10.304  0.00  0.00    -0.315 N 
ATOM     20  C   LIG    1       25.763 -26.395  -9.440  0.00  0.00    +0.131 C 
BRANCH  19  21
ATOM     21  C   LIG    1       26.245 -25.341 -11.514  0.00  0.00    +0.121 A 
ATOM     22  C   LIG    1       26.120 -26.464 -12.337  0.00  0.00    +0.043 A 
ATOM     23  C   LIG    1       26.817 -26.565 -13.544  0.00  0.00    +0.005 A 
ATOM     24  C   LIG    1       27.577 -25.495 -13.969  0.00  0.00    +0.020 A 
ATOM     25  C   LIG    1       27.609 -24.382 -13.155  0.00  0.00    +0.113 A 
ATOM     26  N   LIG    1       26.982 -24.295 -11.955  0.00  0.00    -0.240 NA
ENDBRANCH  19  21
ENDBRANCH  18  19
ENDBRANCH  17  18
ENDBRANCH  16  17
ENDBRANCH   4  16
TORSDOF 7
ENDMDL
MODEL 7
REMARK VINA RESULT:      -4.9      3.030      6.584
REMARK  Name = 
REMARK                            x       y       z     vdW  Elec       q    Type
REMARK                         _______ _______ _______ _____ _____    ______ ____
ROOT
ATOM      1  C   LIG    1       22.801 -29.821 -10.763  0.00  0.00    -0.046 A 
ATOM      2  C   LIG    1       22.990 -29.740 -12.140  0.00  0.00    +0.007 A 
ATOM      3  C   LIG    1       22.984 -28.511 -12.789  0.00  0.00    +0.046 A 
ATOM      4  C   LIG    1       22.738 -27.321 -12.093  0.00  0.00    +0.121 A 
ATOM      5  C   LIG    1       22.515 -27.394 -10.719  0.00  0.00    +0.046 A 
ATOM      6  C   LIG    1       22.552 -28.634 -10.056  0.00  0.00    +0.007 A 
ENDROOT
BRANCH   1   7
ATOM      7  C   LIG    1       22.856 -31.172 -10.089  0.00  0.00    +0.059 C 
BRANCH   7  10
ATOM      8  O   LIG    1       25.066 -29.845  -8.083  0.00  0.00    -0.274 OA
ATOM      9  C   LIG    1       25.126 -30.409  -9.168  0.00  0.00    +0.232 C 
ATOM     10  C   LIG    1       24.259 -31.581  -9.614  0.00  0.00    +0.143 C 
ATOM     11  S   LIG    1       25.185 -32.258 -11.058  0.00  0.00    -0.089 S 
ATOM     12  C   LIG    1       26.252 -30.885 -11.155  0.00  0.00    +0.114 C 
ATOM     13  S   LIG    1       27.414 -30.622 -12.304  0.00  0.00    -0.028 S 
ATOM     14  N   LIG    1       26.025 -30.037 -10.124  0.00  0.00    -0.273 N 
ATOM     15  H   LIG    1       26.646 -29.260  -9.947  0.00  0.00    +0.156 HD
ENDBRANCH   7  10
ENDBRANCH   1   7
BRANCH   4  16
ATOM     16  O   LIG    1       22.696 -26.067 -12.679  0.00  0.00    -0.490 OA
BRANCH  16  17
ATOM     17  C   LIG    1       22.451 -25.038 -11.712  0.00  0.00    +0.248 C 
BRANCH  17  18
ATOM     18  C   LIG    1       23.444 -23.884 -11.679  0.00  0.00    +0.147 C 
BRANCH  18  19
ATOM     19  N   LIG    1       24.748 -24.148 -12.365  0.00  0.00    -0.315 N 
ATOM     20  C   LIG    1       25.484 -22.906 -12.643  0.00  0.00    +0.131 C 
BRANCH  19  21
ATOM     21  C   LIG    1       25.619 -25.163 -11.916  0.00  0.00    +0.121 A 
ATOM     22  C   LIG    1       25.692 -25.521 -10.566  0.00  0.00    +0.043 A 
ATOM     23  C   LIG    1       26.541 -26.539 -10.126  0.00  0.00    +0.005 A 
ATOM     24  C   LIG    1       27.259 -27.260 -11.058  0.00  0.00    +0.020 A 
ATOM     25  C   LIG    1       27.097 -26.916 -12.383  0.00  0.00    +0.113 A 
ATOM     26  N   LIG    1       26.318 -25.893 -12.816  0.00  0.00    -0.240 NA
ENDBRANCH  19  21
ENDBRANCH  18  19
ENDBRANCH  17  18
ENDBRANCH  16  17
ENDBRANCH   4  16
TORSDOF 7
ENDMDL
MODEL 8
REMARK VINA RESULT:      -4.2      4.896      9.921
REMARK  Name = 
REMARK                            x       y       z     vdW  Elec       q    Type
REMARK                         _______ _______ _______ _____ _____    ______ ____
ROOT
ATOM      1  C   LIG    1       25.801 -24.830 -12.178  0.00  0.00    -0.046 A 
ATOM      2  C   LIG    1       26.857 -23.940 -11.996  0.00  0.00    +0.007 A 
ATOM      3  C   LIG    1       26.675 -22.574 -12.173  0.00  0.00    +0.046 A 
ATOM      4  C   LIG    1       25.445 -22.051 -12.590  0.00  0.00    +0.121 A 
ATOM      5  C   LIG    1       24.391 -22.935 -12.807  0.00  0.00    +0.046 A 
ATOM      6  C   LIG    1       24.564 -24.316 -12.597  0.00  0.00    +0.007 A 
ENDROOT
BRANCH   1   7
ATOM      7  C   LIG    1       26.028 -26.304 -11.933  0.00  0.00    +0.059 C 
BRANCH   7  10
ATOM      8  O   LIG    1       27.451 -27.980  -9.519  0.00  0.00    -0.274 OA
ATOM      9  C   LIG    1       26.341 -28.001 -10.037  0.00  0.00    +0.232 C 
ATOM     10  C   LIG    1       25.573 -26.789 -10.549  0.00  0.00    +0.143 C 
ATOM     11  S   LIG    1       23.847 -27.423 -10.697  0.00  0.00    -0.089 S 
ATOM     12  C   LIG    1       24.323 -29.085 -10.480  0.00  0.00    +0.114 C 
ATOM     13  S   LIG    1       23.335 -30.410 -10.565  0.00  0.00    -0.028 S 
ATOM     14  N   LIG    1       25.646 -29.164 -10.200  0.00  0.00    -0.273 N 
ATOM     15  H   LIG    1       26.061 -30.037  -9.909  0.00  0.00    +0.156 HD
ENDBRANCH   7  10
ENDBRANCH   1   7
BRANCH   4  16
ATOM     16  O   LIG    1       25.202 -20.705 -12.807  0.00  0.00    -0.490 OA
BRANCH  16  17
ATOM     17  C   LIG    1       25.932 -19.879 -11.891  0.00  0.00    +0.248 C 
BRANCH  17  18
ATOM     18  C   LIG    1       25.361 -18.494 -11.619  0.00  0.00    +0.147 C 
BRANCH  18  19
ATOM     19  N   LIG    1       26.334 -17.365 -11.764  0.00  0.00    -0.315 N 
ATOM     20  C   LIG    1       25.854 -16.343 -12.706  0.00  0.00    +0.131 C 
BRANCH  19  21
ATOM     21  C   LIG    1       26.937 -16.770 -10.636  0.00  0.00    +0.121 A 
ATOM     22  C   LIG    1       26.203 -15.986  -9.741  0.00  0.00    +0.043 A 
ATOM     23  C   LIG    1       26.799 -15.413  -8.615  0.00  0.00    +0.005 A 
ATOM     24  C   LIG    1       28.120 -15.700  -8.338  0.00  0.00    +0.020 A 
ATOM     25  C   LIG    1       28.779 -16.538  -9.212  0.00  0.00    +0.113 A 
ATOM     26  N   LIG    1       28.227 -17.054 -10.339  0.00  0.00    -0.240 NA
ENDBRANCH  19  21
ENDBRANCH  18  19
ENDBRANCH  17  18
ENDBRANCH  16  17
ENDBRANCH   4  16
TORSDOF 7
ENDMDL
MODEL 9
REMARK VINA RESULT:      -4.2      2.290      5.244
REMARK  Name = 
REMARK                            x       y       z     vdW  Elec       q    Type
REMARK                         _______ _______ _______ _____ _____    ______ ____
ROOT
ATOM      1  C   LIG    1       24.364 -30.847 -10.082  0.00  0.00    -0.046 A 
ATOM      2  C   LIG    1       25.151 -31.082 -11.206  0.00  0.00    +0.007 A 
ATOM      3  C   LIG    1       26.481 -30.682 -11.241  0.00  0.00    +0.046 A 
ATOM      4  C   LIG    1       27.060 -29.986 -10.173  0.00  0.00    +0.121 A 
ATOM      5  C   LIG    1       26.272 -29.716  -9.055  0.00  0.00    +0.046 A 
ATOM      6  C   LIG    1       24.935 -30.149  -9.006  0.00  0.00    +0.007 A 
ENDROOT
BRANCH   1   7
ATOM      7  C   LIG    1       22.934 -31.336 -10.066  0.00  0.00    +0.059 C 
BRANCH   7  10
ATOM      8  O   LIG    1       21.729 -30.070 -12.825  0.00  0.00    -0.274 OA
ATOM      9  C   LIG    1       22.083 -29.600 -11.751  0.00  0.00    +0.232 C 
ATOM     10  C   LIG    1       21.895 -30.252 -10.386  0.00  0.00    +0.143 C 
ATOM     11  S   LIG    1       22.144 -28.848  -9.216  0.00  0.00    -0.089 S 
ATOM     12  C   LIG    1       22.772 -27.790 -10.450  0.00  0.00    +0.114 C 
ATOM     13  S   LIG    1       23.361 -26.259 -10.226  0.00  0.00    -0.028 S 
ATOM     14  N   LIG    1       22.695 -28.384 -11.665  0.00  0.00    -0.273 N 
ATOM     15  H   LIG    1       22.886 -27.861 -12.508  0.00  0.00    +0.156 HD
ENDBRANCH   7  10
ENDBRANCH   1   7
BRANCH   4  16
ATOM     16  O   LIG    1       28.371 -29.539 -10.150  0.00  0.00    -0.490 OA
BRANCH  16  17
ATOM     17  C   LIG    1       28.523 -28.307 -10.868  0.00  0.00    +0.248 C 
BRANCH  17  18
ATOM     18  C   LIG    1       27.353 -27.336 -10.810  0.00  0.00    +0.147 C 
BRANCH  18  19
ATOM     19  N   LIG    1       26.889 -26.820 -12.137  0.00  0.00    -0.315 N 
ATOM     20  C   LIG    1       25.977 -27.761 -12.805  0.00  0.00    +0.131 C 
BRANCH  19  21
ATOM     21  C   LIG    1       26.444 -25.489 -12.290  0.00  0.00    +0.121 A 
ATOM     22  C   LIG    1       25.129 -25.196 -12.661  0.00  0.00    +0.043 A 
ATOM     23  C   LIG    1       24.686 -23.877 -12.793  0.00  0.00    +0.005 A 
ATOM     24  C   LIG    1       25.544 -22.847 -12.468  0.00  0.00    +0.020 A 
ATOM     25  C   LIG    1       26.808 -23.192 -12.037  0.00  0.00    +0.113 A 
ATOM     26  N   LIG    1       27.267 -24.467 -11.959  0.00  0.00    -0.240 NA
ENDBRANCH  19  21
ENDBRANCH  18  19
ENDBRANCH  17  18
ENDBRANCH  16  17
ENDBRANCH   4  16
TORSDOF 7
ENDMDL
