MODEL 1
REMARK VINA RESULT:      -7.5      0.000      0.000
REMARK  Name = 
REMARK                            x       y       z     vdW  Elec       q    Type
REMARK                         _______ _______ _______ _____ _____    ______ ____
ROOT
ATOM      1  C   LIG    1       20.207  49.066  16.924  0.00  0.00    -0.046 A 
ATOM      2  C   LIG    1       20.214  48.276  18.071  0.00  0.00    +0.007 A 
ATOM      3  C   LIG    1       19.198  48.380  19.014  0.00  0.00    +0.046 A 
ATOM      4  C   LIG    1       18.165  49.313  18.871  0.00  0.00    +0.121 A 
ATOM      5  C   LIG    1       18.166  50.132  17.743  0.00  0.00    +0.046 A 
ATOM      6  C   LIG    1       19.175  50.006  16.772  0.00  0.00    +0.007 A 
ENDROOT
BRANCH   1   7
ATOM      7  C   LIG    1       21.306  48.893  15.901  0.00  0.00    +0.059 C 
BRANCH   7  10
ATOM      8  O   LIG    1       21.746  46.975  13.294  0.00  0.00    -0.274 OA
ATOM      9  C   LIG    1       21.728  48.187  13.472  0.00  0.00    +0.232 C 
ATOM     10  C   LIG    1       20.822  48.933  14.444  0.00  0.00    +0.143 C 
ATOM     11  S   LIG    1       20.919  50.677  13.850  0.00  0.00    -0.089 S 
ATOM     12  C   LIG    1       22.260  50.353  12.785  0.00  0.00    +0.114 C 
ATOM     13  S   LIG    1       23.081  51.463  11.873  0.00  0.00    -0.028 S 
ATOM     14  N   LIG    1       22.544  49.028  12.775  0.00  0.00    -0.273 N 
ATOM     15  H   LIG    1       23.200  48.647  12.108  0.00  0.00    +0.156 HD
ENDBRANCH   7  10
ENDBRANCH   1   7
BRANCH   4  16
ATOM     16  O   LIG    1       17.136  49.486  19.782  0.00  0.00    -0.490 OA
BRANCH  16  17
ATOM     17  C   LIG    1       16.307  48.320  19.872  0.00  0.00    +0.248 C 
BRANCH  17  18
ATOM     18  C   LIG    1       15.689  47.822  18.572  0.00  0.00    +0.147 C 
BRANCH  18  19
ATOM     19  N   LIG    1       16.638  47.139  17.638  0.00  0.00    -0.315 N 
ATOM     20  C   LIG    1       17.216  45.925  18.233  0.00  0.00    +0.131 C 
BRANCH  19  21
ATOM     21  C   LIG    1       16.307  46.931  16.282  0.00  0.00    +0.121 A 
ATOM     22  C   LIG    1       16.455  47.944  15.329  0.00  0.00    +0.043 A 
ATOM     23  C   LIG    1       16.145  47.730  13.984  0.00  0.00    +0.005 A 
ATOM     24  C   LIG    1       15.766  46.468  13.577  0.00  0.00    +0.020 A 
ATOM     25  C   LIG    1       15.706  45.486  14.543  0.00  0.00    +0.113 A 
ATOM     26  N   LIG    1       15.951  45.695  15.862  0.00  0.00    -0.240 NA
ENDBRANCH  19  21
ENDBRANCH  18  19
ENDBRANCH  17  18
ENDBRANCH  16  17
ENDBRANCH   4  16
TORSDOF 7
ENDMDL
MODEL 2
REMARK VINA RESULT:      -6.6      1.932      3.811
REMARK  Name = 
REMARK                            x       y       z     vdW  Elec       q    Type
REMARK                         _______ _______ _______ _____ _____    ______ ____
ROOT
ATOM      1  C   LIG    1       18.719  48.356  14.570  0.00  0.00    -0.046 A 
ATOM      2  C   LIG    1       17.350  48.606  14.550  0.00  0.00    +0.007 A 
ATOM      3  C   LIG    1       16.447  47.667  15.035  0.00  0.00    +0.046 A 
ATOM      4  C   LIG    1       16.876  46.422  15.510  0.00  0.00    +0.121 A 
ATOM      5  C   LIG    1       18.243  46.148  15.503  0.00  0.00    +0.046 A 
ATOM      6  C   LIG    1       19.160  47.109  15.043  0.00  0.00    +0.007 A 
ENDROOT
BRANCH   1   7
ATOM      7  C   LIG    1       19.672  49.419  14.074  0.00  0.00    +0.059 C 
BRANCH   7  10
ATOM      8  O   LIG    1       22.343  48.753  15.831  0.00  0.00    -0.274 OA
ATOM      9  C   LIG    1       22.142  49.296  14.752  0.00  0.00    +0.232 C 
ATOM     10  C   LIG    1       21.077  48.899  13.737  0.00  0.00    +0.143 C 
ATOM     11  S   LIG    1       21.646  49.727  12.190  0.00  0.00    -0.089 S 
ATOM     12  C   LIG    1       22.836  50.694  13.017  0.00  0.00    +0.114 C 
ATOM     13  S   LIG    1       23.799  51.857  12.341  0.00  0.00    -0.028 S 
ATOM     14  N   LIG    1       22.897  50.350  14.326  0.00  0.00    -0.273 N 
ATOM     15  H   LIG    1       23.628  50.712  14.921  0.00  0.00    +0.156 HD
ENDBRANCH   7  10
ENDBRANCH   1   7
BRANCH   4  16
ATOM     16  O   LIG    1       16.031  45.433  15.985  0.00  0.00    -0.490 OA
BRANCH  16  17
ATOM     17  C   LIG    1       15.295  45.871  17.134  0.00  0.00    +0.248 C 
BRANCH  17  18
ATOM     18  C   LIG    1       16.113  46.283  18.350  0.00  0.00    +0.147 C 
BRANCH  18  19
ATOM     19  N   LIG    1       16.208  47.759  18.583  0.00  0.00    -0.315 N 
ATOM     20  C   LIG    1       15.576  48.158  19.850  0.00  0.00    +0.131 C 
BRANCH  19  21
ATOM     21  C   LIG    1       17.418  48.456  18.378  0.00  0.00    +0.121 A 
ATOM     22  C   LIG    1       18.658  47.843  18.579  0.00  0.00    +0.043 A 
ATOM     23  C   LIG    1       19.855  48.530  18.359  0.00  0.00    +0.005 A 
ATOM     24  C   LIG    1       19.807  49.812  17.851  0.00  0.00    +0.020 A 
ATOM     25  C   LIG    1       18.560  50.345  17.601  0.00  0.00    +0.113 A 
ATOM     26  N   LIG    1       17.390  49.708  17.865  0.00  0.00    -0.240 NA
ENDBRANCH  19  21
ENDBRANCH  18  19
ENDBRANCH  17  18
ENDBRANCH  16  17
ENDBRANCH   4  16
TORSDOF 7
ENDMDL
MODEL 3
REMARK VINA RESULT:      -6.6      1.527      2.138
REMARK  Name = 
REMARK                            x       y       z     vdW  Elec       q    Type
REMARK                         _______ _______ _______ _____ _____    ______ ____
ROOT
ATOM      1  C   LIG    1       19.612  48.992  16.292  0.00  0.00    -0.046 A 
ATOM      2  C   LIG    1       18.318  49.180  15.813  0.00  0.00    +0.007 A 
ATOM      3  C   LIG    1       17.389  49.915  16.541  0.00  0.00    +0.046 A 
ATOM      4  C   LIG    1       17.704  50.446  17.797  0.00  0.00    +0.121 A 
ATOM      5  C   LIG    1       18.986  50.236  18.301  0.00  0.00    +0.046 A 
ATOM      6  C   LIG    1       19.938  49.520  17.552  0.00  0.00    +0.007 A 
ENDROOT
BRANCH   1   7
ATOM      7  C   LIG    1       20.606  48.224  15.452  0.00  0.00    +0.059 C 
BRANCH   7  10
ATOM      8  O   LIG    1       21.804  46.793  12.771  0.00  0.00    -0.274 OA
ATOM      9  C   LIG    1       21.680  47.955  13.138  0.00  0.00    +0.232 C 
ATOM     10  C   LIG    1       20.517  48.517  13.947  0.00  0.00    +0.143 C 
ATOM     11  S   LIG    1       20.680  50.337  13.700  0.00  0.00    -0.089 S 
ATOM     12  C   LIG    1       22.266  50.208  12.990  0.00  0.00    +0.114 C 
ATOM     13  S   LIG    1       23.242  51.463  12.529  0.00  0.00    -0.028 S 
ATOM     14  N   LIG    1       22.608  48.907  12.834  0.00  0.00    -0.273 N 
ATOM     15  H   LIG    1       23.433  48.649  12.311  0.00  0.00    +0.156 HD
ENDBRANCH   7  10
ENDBRANCH   1   7
BRANCH   4  16
ATOM     16  O   LIG    1       16.821  51.167  18.584  0.00  0.00    -0.490 OA
BRANCH  16  17
ATOM     17  C   LIG    1       16.446  50.441  19.762  0.00  0.00    +0.248 C 
BRANCH  17  18
ATOM     18  C   LIG    1       17.146  49.109  19.992  0.00  0.00    +0.147 C 
BRANCH  18  19
ATOM     19  N   LIG    1       16.338  47.898  19.642  0.00  0.00    -0.315 N 
ATOM     20  C   LIG    1       14.893  48.152  19.746  0.00  0.00    +0.131 C 
BRANCH  19  21
ATOM     21  C   LIG    1       16.635  47.126  18.498  0.00  0.00    +0.121 A 
ATOM     22  C   LIG    1       15.731  47.011  17.438  0.00  0.00    +0.043 A 
ATOM     23  C   LIG    1       16.035  46.261  16.299  0.00  0.00    +0.005 A 
ATOM     24  C   LIG    1       17.287  45.695  16.186  0.00  0.00    +0.020 A 
ATOM     25  C   LIG    1       18.168  45.899  17.227  0.00  0.00    +0.113 A 
ATOM     26  N   LIG    1       17.864  46.578  18.362  0.00  0.00    -0.240 NA
ENDBRANCH  19  21
ENDBRANCH  18  19
ENDBRANCH  17  18
ENDBRANCH  16  17
ENDBRANCH   4  16
TORSDOF 7
ENDMDL
MODEL 4
REMARK VINA RESULT:      -6.4      1.582      2.005
REMARK  Name = 
REMARK                            x       y       z     vdW  Elec       q    Type
REMARK                         _______ _______ _______ _____ _____    ______ ____
ROOT
ATOM      1  C   LIG    1       19.772  50.022  16.472  0.00  0.00    -0.046 A 
ATOM      2  C   LIG    1       18.452  50.461  16.538  0.00  0.00    +0.007 A 
ATOM      3  C   LIG    1       17.661  50.177  17.645  0.00  0.00    +0.046 A 
ATOM      4  C   LIG    1       18.143  49.398  18.703  0.00  0.00    +0.121 A 
ATOM      5  C   LIG    1       19.453  48.925  18.633  0.00  0.00    +0.046 A 
ATOM      6  C   LIG    1       20.265  49.239  17.528  0.00  0.00    +0.007 A 
ENDROOT
BRANCH   1   7
ATOM      7  C   LIG    1       20.613  50.389  15.271  0.00  0.00    +0.059 C 
BRANCH   7  10
ATOM      8  O   LIG    1       23.267  50.544  13.374  0.00  0.00    -0.274 OA
ATOM      9  C   LIG    1       22.497  49.648  13.697  0.00  0.00    +0.232 C 
ATOM     10  C   LIG    1       21.837  49.486  15.061  0.00  0.00    +0.143 C 
ATOM     11  S   LIG    1       21.267  47.732  15.042  0.00  0.00    -0.089 S 
ATOM     12  C   LIG    1       21.561  47.542  13.335  0.00  0.00    +0.114 C 
ATOM     13  S   LIG    1       21.215  46.206  12.421  0.00  0.00    -0.028 S 
ATOM     14  N   LIG    1       22.149  48.653  12.831  0.00  0.00    -0.273 N 
ATOM     15  H   LIG    1       22.515  48.661  11.889  0.00  0.00    +0.156 HD
ENDBRANCH   7  10
ENDBRANCH   1   7
BRANCH   4  16
ATOM     16  O   LIG    1       17.404  49.058  19.824  0.00  0.00    -0.490 OA
BRANCH  16  17
ATOM     17  C   LIG    1       16.062  48.688  19.481  0.00  0.00    +0.248 C 
BRANCH  17  18
ATOM     18  C   LIG    1       15.870  47.302  18.883  0.00  0.00    +0.147 C 
BRANCH  18  19
ATOM     19  N   LIG    1       16.853  46.927  17.818  0.00  0.00    -0.315 N 
ATOM     20  C   LIG    1       17.756  45.852  18.257  0.00  0.00    +0.131 C 
BRANCH  19  21
ATOM     21  C   LIG    1       16.445  46.732  16.481  0.00  0.00    +0.121 A 
ATOM     22  C   LIG    1       16.547  47.751  15.529  0.00  0.00    +0.043 A 
ATOM     23  C   LIG    1       16.160  47.550  14.202  0.00  0.00    +0.005 A 
ATOM     24  C   LIG    1       15.749  46.293  13.807  0.00  0.00    +0.020 A 
ATOM     25  C   LIG    1       15.736  45.304  14.769  0.00  0.00    +0.113 A 
ATOM     26  N   LIG    1       16.056  45.502  16.073  0.00  0.00    -0.240 NA
ENDBRANCH  19  21
ENDBRANCH  18  19
ENDBRANCH  17  18
ENDBRANCH  16  17
ENDBRANCH   4  16
TORSDOF 7
ENDMDL
MODEL 5
REMARK VINA RESULT:      -5.6      1.934      2.447
REMARK  Name = 
REMARK                            x       y       z     vdW  Elec       q    Type
REMARK                         _______ _______ _______ _____ _____    ______ ____
ROOT
ATOM      1  C   LIG    1       20.602  49.456  17.373  0.00  0.00    -0.046 A 
ATOM      2  C   LIG    1       20.487  48.276  18.102  0.00  0.00    +0.007 A 
ATOM      3  C   LIG    1       19.332  47.993  18.822  0.00  0.00    +0.046 A 
ATOM      4  C   LIG    1       18.270  48.904  18.882  0.00  0.00    +0.121 A 
ATOM      5  C   LIG    1       18.389  50.104  18.183  0.00  0.00    +0.046 A 
ATOM      6  C   LIG    1       19.543  50.377  17.428  0.00  0.00    +0.007 A 
ENDROOT
BRANCH   1   7
ATOM      7  C   LIG    1       21.856  49.707  16.568  0.00  0.00    +0.059 C 
BRANCH   7  10
ATOM      8  O   LIG    1       19.941  50.911  14.211  0.00  0.00    -0.274 OA
ATOM      9  C   LIG    1       20.328  49.787  14.509  0.00  0.00    +0.232 C 
ATOM     10  C   LIG    1       21.703  49.435  15.064  0.00  0.00    +0.143 C 
ATOM     11  S   LIG    1       21.808  47.614  14.792  0.00  0.00    -0.089 S 
ATOM     12  C   LIG    1       20.117  47.466  14.398  0.00  0.00    +0.114 C 
ATOM     13  S   LIG    1       19.299  46.062  14.087  0.00  0.00    -0.028 S 
ATOM     14  N   LIG    1       19.535  48.689  14.353  0.00  0.00    -0.273 N 
ATOM     15  H   LIG    1       18.593  48.799  14.004  0.00  0.00    +0.156 HD
ENDBRANCH   7  10
ENDBRANCH   1   7
BRANCH   4  16
ATOM     16  O   LIG    1       17.103  48.697  19.598  0.00  0.00    -0.490 OA
BRANCH  16  17
ATOM     17  C   LIG    1       16.373  47.564  19.107  0.00  0.00    +0.248 C 
BRANCH  17  18
ATOM     18  C   LIG    1       15.835  47.665  17.687  0.00  0.00    +0.147 C 
BRANCH  18  19
ATOM     19  N   LIG    1       16.666  46.988  16.642  0.00  0.00    -0.315 N 
ATOM     20  C   LIG    1       17.219  45.712  17.122  0.00  0.00    +0.131 C 
BRANCH  19  21
ATOM     21  C   LIG    1       16.217  46.876  15.309  0.00  0.00    +0.121 A 
ATOM     22  C   LIG    1       15.645  45.696  14.826  0.00  0.00    +0.043 A 
ATOM     23  C   LIG    1       15.185  45.594  13.510  0.00  0.00    +0.005 A 
ATOM     24  C   LIG    1       15.220  46.710  12.701  0.00  0.00    +0.020 A 
ATOM     25  C   LIG    1       15.727  47.870  13.248  0.00  0.00    +0.113 A 
ATOM     26  N   LIG    1       16.228  47.965  14.506  0.00  0.00    -0.240 NA
ENDBRANCH  19  21
ENDBRANCH  18  19
ENDBRANCH  17  18
ENDBRANCH  16  17
ENDBRANCH   4  16
TORSDOF 7
ENDMDL
MODEL 6
REMARK VINA RESULT:      -5.5      3.027      6.946
REMARK  Name = 
REMARK                            x       y       z     vdW  Elec       q    Type
REMARK                         _______ _______ _______ _____ _____    ______ ____
ROOT
ATOM      1  C   LIG    1       16.671  46.727  16.948  0.00  0.00    -0.046 A 
ATOM      2  C   LIG    1       16.377  47.614  15.917  0.00  0.00    +0.007 A 
ATOM      3  C   LIG    1       17.183  47.685  14.787  0.00  0.00    +0.046 A 
ATOM      4  C   LIG    1       18.341  46.909  14.669  0.00  0.00    +0.121 A 
ATOM      5  C   LIG    1       18.664  46.040  15.710  0.00  0.00    +0.046 A 
ATOM      6  C   LIG    1       17.832  45.944  16.841  0.00  0.00    +0.007 A 
ENDROOT
BRANCH   1   7
ATOM      7  C   LIG    1       15.746  46.648  18.141  0.00  0.00    +0.059 C 
BRANCH   7  10
ATOM      8  O   LIG    1       14.364  47.915  20.816  0.00  0.00    -0.274 OA
ATOM      9  C   LIG    1       15.274  48.266  20.074  0.00  0.00    +0.232 C 
ATOM     10  C   LIG    1       16.283  47.344  19.400  0.00  0.00    +0.143 C 
ATOM     11  S   LIG    1       17.629  48.499  18.895  0.00  0.00    -0.089 S 
ATOM     12  C   LIG    1       16.678  49.922  19.220  0.00  0.00    +0.114 C 
ATOM     13  S   LIG    1       17.126  51.490  18.938  0.00  0.00    -0.028 S 
ATOM     14  N   LIG    1       15.491  49.579  19.776  0.00  0.00    -0.273 N 
ATOM     15  H   LIG    1       14.876  50.285  20.155  0.00  0.00    +0.156 HD
ENDBRANCH   7  10
ENDBRANCH   1   7
BRANCH   4  16
ATOM     16  O   LIG    1       19.200  46.946  13.583  0.00  0.00    -0.490 OA
BRANCH  16  17
ATOM     17  C   LIG    1       20.522  46.519  13.937  0.00  0.00    +0.248 C 
BRANCH  17  18
ATOM     18  C   LIG    1       21.675  47.204  13.217  0.00  0.00    +0.147 C 
BRANCH  18  19
ATOM     19  N   LIG    1       22.023  48.568  13.727  0.00  0.00    -0.315 N 
ATOM     20  C   LIG    1       22.063  49.565  12.647  0.00  0.00    +0.131 C 
BRANCH  19  21
ATOM     21  C   LIG    1       21.409  49.096  14.882  0.00  0.00    +0.121 A 
ATOM     22  C   LIG    1       20.286  49.925  14.799  0.00  0.00    +0.043 A 
ATOM     23  C   LIG    1       19.668  50.432  15.945  0.00  0.00    +0.005 A 
ATOM     24  C   LIG    1       20.127  50.035  17.184  0.00  0.00    +0.020 A 
ATOM     25  C   LIG    1       21.191  49.158  17.211  0.00  0.00    +0.113 A 
ATOM     26  N   LIG    1       21.834  48.704  16.105  0.00  0.00    -0.240 NA
ENDBRANCH  19  21
ENDBRANCH  18  19
ENDBRANCH  17  18
ENDBRANCH  16  17
ENDBRANCH   4  16
TORSDOF 7
ENDMDL
MODEL 7
REMARK VINA RESULT:      -5.3      2.630      6.373
REMARK  Name = 
REMARK                            x       y       z     vdW  Elec       q    Type
REMARK                         _______ _______ _______ _____ _____    ______ ____
ROOT
ATOM      1  C   LIG    1       16.397  47.751  17.634  0.00  0.00    -0.046 A 
ATOM      2  C   LIG    1       16.775  46.411  17.618  0.00  0.00    +0.007 A 
ATOM      3  C   LIG    1       17.251  45.819  16.454  0.00  0.00    +0.046 A 
ATOM      4  C   LIG    1       17.318  46.530  15.250  0.00  0.00    +0.121 A 
ATOM      5  C   LIG    1       16.911  47.863  15.247  0.00  0.00    +0.046 A 
ATOM      6  C   LIG    1       16.459  48.473  16.432  0.00  0.00    +0.007 A 
ENDROOT
BRANCH   1   7
ATOM      7  C   LIG    1       15.926  48.369  18.930  0.00  0.00    +0.059 C 
BRANCH   7  10
ATOM      8  O   LIG    1       16.432  51.596  18.884  0.00  0.00    -0.274 OA
ATOM      9  C   LIG    1       17.163  50.614  18.838  0.00  0.00    +0.232 C 
ATOM     10  C   LIG    1       16.949  49.305  19.590  0.00  0.00    +0.143 C 
ATOM     11  S   LIG    1       18.607  48.502  19.506  0.00  0.00    -0.089 S 
ATOM     12  C   LIG    1       19.212  49.626  18.320  0.00  0.00    +0.114 C 
ATOM     13  S   LIG    1       20.691  49.572  17.580  0.00  0.00    -0.028 S 
ATOM     14  N   LIG    1       18.301  50.600  18.085  0.00  0.00    -0.273 N 
ATOM     15  H   LIG    1       18.541  51.409  17.531  0.00  0.00    +0.156 HD
ENDBRANCH   7  10
ENDBRANCH   1   7
BRANCH   4  16
ATOM     16  O   LIG    1       17.759  45.997  14.051  0.00  0.00    -0.490 OA
BRANCH  16  17
ATOM     17  C   LIG    1       19.187  46.061  13.935  0.00  0.00    +0.248 C 
BRANCH  17  18
ATOM     18  C   LIG    1       19.862  47.296  14.516  0.00  0.00    +0.147 C 
BRANCH  18  19
ATOM     19  N   LIG    1       21.234  47.578  13.987  0.00  0.00    -0.315 N 
ATOM     20  C   LIG    1       21.639  46.604  12.962  0.00  0.00    +0.131 C 
BRANCH  19  21
ATOM     21  C   LIG    1       21.625  48.885  13.626  0.00  0.00    +0.121 A 
ATOM     22  C   LIG    1       22.726  49.116  12.796  0.00  0.00    +0.043 A 
ATOM     23  C   LIG    1       23.100  50.410  12.425  0.00  0.00    +0.005 A 
ATOM     24  C   LIG    1       22.315  51.473  12.820  0.00  0.00    +0.020 A 
ATOM     25  C   LIG    1       21.199  51.185  13.578  0.00  0.00    +0.113 A 
ATOM     26  N   LIG    1       20.857  49.938  13.991  0.00  0.00    -0.240 NA
ENDBRANCH  19  21
ENDBRANCH  18  19
ENDBRANCH  17  18
ENDBRANCH  16  17
ENDBRANCH   4  16
TORSDOF 7
ENDMDL
MODEL 8
REMARK VINA RESULT:      -5.2      2.887      6.053
REMARK  Name = 
REMARK                            x       y       z     vdW  Elec       q    Type
REMARK                         _______ _______ _______ _____ _____    ______ ____
ROOT
ATOM      1  C   LIG    1       17.419  47.786  17.623  0.00  0.00    -0.046 A 
ATOM      2  C   LIG    1       17.556  48.929  16.841  0.00  0.00    +0.007 A 
ATOM      3  C   LIG    1       18.728  49.675  16.870  0.00  0.00    +0.046 A 
ATOM      4  C   LIG    1       19.787  49.336  17.721  0.00  0.00    +0.121 A 
ATOM      5  C   LIG    1       19.647  48.212  18.533  0.00  0.00    +0.046 A 
ATOM      6  C   LIG    1       18.474  47.437  18.482  0.00  0.00    +0.007 A 
ENDROOT
BRANCH   1   7
ATOM      7  C   LIG    1       16.145  46.977  17.532  0.00  0.00    +0.059 C 
BRANCH   7  10
ATOM      8  O   LIG    1       18.454  45.532  15.729  0.00  0.00    -0.274 OA
ATOM      9  C   LIG    1       17.358  46.020  15.484  0.00  0.00    +0.232 C 
ATOM     10  C   LIG    1       16.130  45.955  16.385  0.00  0.00    +0.143 C 
ATOM     11  S   LIG    1       14.751  46.390  15.241  0.00  0.00    -0.089 S 
ATOM     12  C   LIG    1       15.824  46.923  13.976  0.00  0.00    +0.114 C 
ATOM     13  S   LIG    1       15.381  47.597  12.530  0.00  0.00    -0.028 S 
ATOM     14  N   LIG    1       17.112  46.689  14.321  0.00  0.00    -0.273 N 
ATOM     15  H   LIG    1       17.856  46.808  13.648  0.00  0.00    +0.156 HD
ENDBRANCH   7  10
ENDBRANCH   1   7
BRANCH   4  16
ATOM     16  O   LIG    1       20.971  50.047  17.817  0.00  0.00    -0.490 OA
BRANCH  16  17
ATOM     17  C   LIG    1       21.990  49.496  16.972  0.00  0.00    +0.248 C 
BRANCH  17  18
ATOM     18  C   LIG    1       21.653  48.195  16.257  0.00  0.00    +0.147 C 
BRANCH  18  19
ATOM     19  N   LIG    1       21.782  48.237  14.766  0.00  0.00    -0.315 N 
ATOM     20  C   LIG    1       20.696  47.501  14.101  0.00  0.00    +0.131 C 
BRANCH  19  21
ATOM     21  C   LIG    1       22.067  49.441  14.089  0.00  0.00    +0.121 A 
ATOM     22  C   LIG    1       23.314  49.671  13.500  0.00  0.00    +0.043 A 
ATOM     23  C   LIG    1       23.588  50.857  12.814  0.00  0.00    +0.005 A 
ATOM     24  C   LIG    1       22.578  51.782  12.645  0.00  0.00    +0.020 A 
ATOM     25  C   LIG    1       21.346  51.474  13.183  0.00  0.00    +0.113 A 
ATOM     26  N   LIG    1       21.084  50.351  13.899  0.00  0.00    -0.240 NA
ENDBRANCH  19  21
ENDBRANCH  18  19
ENDBRANCH  17  18
ENDBRANCH  16  17
ENDBRANCH   4  16
TORSDOF 7
ENDMDL
MODEL 9
REMARK VINA RESULT:      -4.7      2.297      3.975
REMARK  Name = 
REMARK                            x       y       z     vdW  Elec       q    Type
REMARK                         _______ _______ _______ _____ _____    ______ ____
ROOT
ATOM      1  C   LIG    1       19.105  49.276  15.131  0.00  0.00    -0.046 A 
ATOM      2  C   LIG    1       17.809  49.537  14.693  0.00  0.00    +0.007 A 
ATOM      3  C   LIG    1       16.842  48.538  14.695  0.00  0.00    +0.046 A 
ATOM      4  C   LIG    1       17.148  47.229  15.084  0.00  0.00    +0.121 A 
ATOM      5  C   LIG    1       18.451  46.949  15.492  0.00  0.00    +0.046 A 
ATOM      6  C   LIG    1       19.423  47.965  15.522  0.00  0.00    +0.007 A 
ENDROOT
BRANCH   1   7
ATOM      7  C   LIG    1       20.116  50.399  15.155  0.00  0.00    +0.059 C 
BRANCH   7  10
ATOM      8  O   LIG    1       21.954  51.217  12.581  0.00  0.00    -0.274 OA
ATOM      9  C   LIG    1       21.711  50.165  13.160  0.00  0.00    +0.232 C 
ATOM     10  C   LIG    1       21.514  49.997  14.662  0.00  0.00    +0.143 C 
ATOM     11  S   LIG    1       21.715  48.180  14.908  0.00  0.00    -0.089 S 
ATOM     12  C   LIG    1       21.651  47.833  13.202  0.00  0.00    +0.114 C 
ATOM     13  S   LIG    1       21.671  46.333  12.502  0.00  0.00    -0.028 S 
ATOM     14  N   LIG    1       21.603  48.983  12.488  0.00  0.00    -0.273 N 
ATOM     15  H   LIG    1       21.702  48.971  11.483  0.00  0.00    +0.156 HD
ENDBRANCH   7  10
ENDBRANCH   1   7
BRANCH   4  16
ATOM     16  O   LIG    1       16.241  46.183  15.088  0.00  0.00    -0.490 OA
BRANCH  16  17
ATOM     17  C   LIG    1       16.242  45.484  16.340  0.00  0.00    +0.248 C 
BRANCH  17  18
ATOM     18  C   LIG    1       15.556  46.179  17.508  0.00  0.00    +0.147 C 
BRANCH  18  19
ATOM     19  N   LIG    1       16.474  46.666  18.586  0.00  0.00    -0.315 N 
ATOM     20  C   LIG    1       17.799  46.033  18.507  0.00  0.00    +0.131 C 
BRANCH  19  21
ATOM     21  C   LIG    1       16.585  48.040  18.886  0.00  0.00    +0.121 A 
ATOM     22  C   LIG    1       17.676  48.798  18.449  0.00  0.00    +0.043 A 
ATOM     23  C   LIG    1       17.776  50.163  18.731  0.00  0.00    +0.005 A 
ATOM     24  C   LIG    1       16.733  50.789  19.382  0.00  0.00    +0.020 A 
ATOM     25  C   LIG    1       15.647  50.012  19.726  0.00  0.00    +0.113 A 
ATOM     26  N   LIG    1       15.565  48.675  19.507  0.00  0.00    -0.240 NA
ENDBRANCH  19  21
ENDBRANCH  18  19
ENDBRANCH  17  18
ENDBRANCH  16  17
ENDBRANCH   4  16
TORSDOF 7
ENDMDL
