REMARK  Name = 
REMARK                            x       y       z     vdW  Elec       q    Type
REMARK                         _______ _______ _______ _____ _____    ______ ____
ROOT
ATOM      1  C   LIG    1        1.392  -2.918  -0.497  0.00  0.00    -0.046 A 
ATOM      2  C   LIG    1        0.268  -2.107  -0.367  0.00  0.00    +0.007 A 
ATOM      3  C   LIG    1       -0.934  -2.625   0.101  0.00  0.00    +0.046 A 
ATOM      4  C   LIG    1       -1.071  -3.984   0.407  0.00  0.00    +0.121 A 
ATOM      5  C   LIG    1        0.039  -4.812   0.249  0.00  0.00    +0.046 A 
ATOM      6  C   LIG    1        1.265  -4.283  -0.194  0.00  0.00    +0.007 A 
ENDROOT
BRANCH   1   7
ATOM      7  C   LIG    1        2.692  -2.308  -0.968  0.00  0.00    +0.059 C 
BRANCH   7  10
ATOM      8  O   LIG    1        1.779   0.110   1.029  0.00  0.00    -0.274 OA
ATOM      9  C   LIG    1        2.768  -0.102   0.338  0.00  0.00    +0.232 C 
ATOM     10  C   LIG    1        3.411  -1.462   0.093  0.00  0.00    +0.143 C 
ATOM     11  S   LIG    1        5.082  -1.022  -0.552  0.00  0.00    -0.089 S 
ATOM     12  C   LIG    1        4.673   0.657  -0.775  0.00  0.00    +0.114 C 
ATOM     13  S   LIG    1        5.639   1.824  -1.441  0.00  0.00    -0.028 S 
ATOM     14  N   LIG    1        3.430   0.907  -0.298  0.00  0.00    -0.273 N 
ATOM     15  H   LIG    1        3.088   1.854  -0.220  0.00  0.00    +0.156 HD
ENDBRANCH   7  10
ENDBRANCH   1   7
BRANCH   4  16
ATOM     16  O   LIG    1       -2.243  -4.570   0.855  0.00  0.00    -0.490 OA
BRANCH  16  17
ATOM     17  C   LIG    1       -3.351  -3.663   0.783  0.00  0.00    +0.248 C 
BRANCH  17  18
ATOM     18  C   LIG    1       -4.704  -4.205   1.222  0.00  0.00    +0.147 C 
BRANCH  18  19
ATOM     19  N   LIG    1       -5.869  -3.306   0.946  0.00  0.00    -0.315 N 
ATOM     20  C   LIG    1       -7.125  -3.855   1.479  0.00  0.00    +0.131 C 
BRANCH  19  21
ATOM     21  C   LIG    1       -5.789  -1.915   1.169  0.00  0.00    +0.121 A 
ATOM     22  C   LIG    1       -4.878  -1.114   0.474  0.00  0.00    +0.043 A 
ATOM     23  C   LIG    1       -4.813   0.266   0.683  0.00  0.00    +0.005 A 
ATOM     24  C   LIG    1       -5.726   0.858   1.531  0.00  0.00    +0.020 A 
ATOM     25  C   LIG    1       -6.651   0.033   2.136  0.00  0.00    +0.113 A 
ATOM     26  N   LIG    1       -6.687  -1.315   1.984  0.00  0.00    -0.240 NA
ENDBRANCH  19  21
ENDBRANCH  18  19
ENDBRANCH  17  18
ENDBRANCH  16  17
ENDBRANCH   4  16
TORSDOF 7
