MODEL 1
REMARK VINA RESULT:      -8.1      0.000      0.000
REMARK  Name = 
REMARK                            x       y       z     vdW  Elec       q    Type
REMARK                         _______ _______ _______ _____ _____    ______ ____
ROOT
ATOM      1  C   LIG    1       -6.328  -4.221  13.083  0.00  0.00    +0.008 C 
ATOM      2  C   LIG    1       -7.191  -4.950  12.355  0.00  0.00    +0.009 C 
ENDROOT
BRANCH   1   6
ATOM      3  C   LIG    1       -5.284  -5.050  17.157  0.00  0.00    +0.117 A 
ATOM      4  C   LIG    1       -4.294  -5.115  16.186  0.00  0.00    +0.046 A 
ATOM      5  C   LIG    1       -4.607  -4.836  14.852  0.00  0.00    +0.011 A 
ATOM      6  C   LIG    1       -5.913  -4.490  14.477  0.00  0.00    -0.025 A 
ATOM      7  C   LIG    1       -6.892  -4.417  15.483  0.00  0.00    +0.011 A 
ATOM      8  C   LIG    1       -6.583  -4.697  16.819  0.00  0.00    +0.046 A 
BRANCH   3   9
ATOM      9  O   LIG    1       -4.938  -5.347  18.441  0.00  0.00    -0.507 OA
ATOM     10  H   LIG    1       -4.928  -6.312  18.544  0.00  0.00    +0.292 HD
ENDBRANCH   3   9
ENDBRANCH   1   6
BRANCH   2  11
ATOM     11  C   LIG    1       -7.646  -4.652  10.978  0.00  0.00    -0.018 A 
ATOM     12  C   LIG    1       -8.095  -5.722  10.187  0.00  0.00    +0.053 A 
ATOM     13  C   LIG    1       -8.559  -5.502   8.890  0.00  0.00    +0.121 A 
ATOM     14  C   LIG    1       -8.587  -4.225   8.350  0.00  0.00    +0.090 A 
ATOM     15  C   LIG    1       -8.139  -3.164   9.125  0.00  0.00    +0.121 A 
ATOM     16  C   LIG    1       -7.670  -3.362  10.426  0.00  0.00    +0.053 A 
BRANCH  13  17
ATOM     17  O   LIG    1       -8.989  -6.584   8.178  0.00  0.00    -0.507 OA
ATOM     18  H   LIG    1       -9.682  -7.033   8.690  0.00  0.00    +0.292 HD
ENDBRANCH  13  17
BRANCH  15  19
ATOM     19  O   LIG    1       -8.179  -1.917   8.569  0.00  0.00    -0.507 OA
ATOM     20  H   LIG    1       -8.901  -1.888   7.918  0.00  0.00    +0.292 HD
ENDBRANCH  15  19
ENDBRANCH   2  11
TORSDOF 5
ENDMDL
MODEL 2
REMARK VINA RESULT:      -8.1      0.227      2.010
REMARK  Name = 
REMARK                            x       y       z     vdW  Elec       q    Type
REMARK                         _______ _______ _______ _____ _____    ______ ____
ROOT
ATOM      1  C   LIG    1       -6.512  -4.288  13.053  0.00  0.00    +0.008 C 
ATOM      2  C   LIG    1       -7.069  -5.198  12.236  0.00  0.00    +0.009 C 
ENDROOT
BRANCH   1   6
ATOM      3  C   LIG    1       -5.344  -5.014  17.113  0.00  0.00    +0.117 A 
ATOM      4  C   LIG    1       -4.376  -5.063  16.119  0.00  0.00    +0.046 A 
ATOM      5  C   LIG    1       -4.729  -4.817  14.789  0.00  0.00    +0.011 A 
ATOM      6  C   LIG    1       -6.055  -4.520  14.441  0.00  0.00    -0.025 A 
ATOM      7  C   LIG    1       -7.011  -4.463  15.469  0.00  0.00    +0.011 A 
ATOM      8  C   LIG    1       -6.661  -4.710  16.801  0.00  0.00    +0.046 A 
BRANCH   3   9
ATOM      9  O   LIG    1       -4.957  -5.278  18.393  0.00  0.00    -0.507 OA
ATOM     10  H   LIG    1       -4.076  -5.687  18.372  0.00  0.00    +0.292 HD
ENDBRANCH   3   9
ENDBRANCH   1   6
BRANCH   2  11
ATOM     11  C   LIG    1       -7.573  -4.954  10.866  0.00  0.00    -0.018 A 
ATOM     12  C   LIG    1       -7.635  -3.627  10.413  0.00  0.00    +0.053 A 
ATOM     13  C   LIG    1       -8.079  -3.334   9.124  0.00  0.00    +0.121 A 
ATOM     14  C   LIG    1       -8.471  -4.345   8.259  0.00  0.00    +0.090 A 
ATOM     15  C   LIG    1       -8.418  -5.659   8.702  0.00  0.00    +0.121 A 
ATOM     16  C   LIG    1       -7.977  -5.973   9.990  0.00  0.00    +0.053 A 
BRANCH  13  17
ATOM     17  O   LIG    1       -8.107  -2.024   8.745  0.00  0.00    -0.507 OA
ATOM     18  H   LIG    1       -7.899  -1.973   7.797  0.00  0.00    +0.292 HD
ENDBRANCH  13  17
BRANCH  15  19
ATOM     19  O   LIG    1       -8.808  -6.635   7.829  0.00  0.00    -0.507 OA
ATOM     20  H   LIG    1       -8.216  -7.399   7.929  0.00  0.00    +0.292 HD
ENDBRANCH  15  19
ENDBRANCH   2  11
TORSDOF 5
ENDMDL
MODEL 3
REMARK VINA RESULT:      -7.2      1.281      7.488
REMARK  Name = 
REMARK                            x       y       z     vdW  Elec       q    Type
REMARK                         _______ _______ _______ _____ _____    ______ ____
ROOT
ATOM      1  C   LIG    1       -7.353  -4.461  12.290  0.00  0.00    +0.008 C 
ATOM      2  C   LIG    1       -6.105  -4.497  12.785  0.00  0.00    +0.009 C 
ENDROOT
BRANCH   1   6
ATOM      3  C   LIG    1       -8.494  -4.604   8.160  0.00  0.00    +0.117 A 
ATOM      4  C   LIG    1       -8.481  -3.377   8.809  0.00  0.00    +0.046 A 
ATOM      5  C   LIG    1       -8.100  -3.302  10.152  0.00  0.00    +0.011 A 
ATOM      6  C   LIG    1       -7.729  -4.455  10.859  0.00  0.00    -0.025 A 
ATOM      7  C   LIG    1       -7.737  -5.682  10.174  0.00  0.00    +0.011 A 
ATOM      8  C   LIG    1       -8.120  -5.760   8.830  0.00  0.00    +0.046 A 
BRANCH   3   9
ATOM      9  O   LIG    1       -8.890  -4.631   6.856  0.00  0.00    -0.507 OA
ATOM     10  H   LIG    1       -9.853  -4.747   6.827  0.00  0.00    +0.292 HD
ENDBRANCH   3   9
ENDBRANCH   1   6
BRANCH   2  11
ATOM     11  C   LIG    1       -5.727  -4.450  14.215  0.00  0.00    -0.018 A 
ATOM     12  C   LIG    1       -6.749  -4.269  15.161  0.00  0.00    +0.053 A 
ATOM     13  C   LIG    1       -6.460  -4.240  16.525  0.00  0.00    +0.121 A 
ATOM     14  C   LIG    1       -5.159  -4.388  16.981  0.00  0.00    +0.090 A 
ATOM     15  C   LIG    1       -4.143  -4.562  16.051  0.00  0.00    +0.121 A 
ATOM     16  C   LIG    1       -4.411  -4.593  14.681  0.00  0.00    +0.053 A 
BRANCH  13  17
ATOM     17  O   LIG    1       -7.501  -4.068  17.391  0.00  0.00    -0.507 OA
ATOM     18  H   LIG    1       -7.300  -4.547  18.212  0.00  0.00    +0.292 HD
ENDBRANCH  13  17
BRANCH  15  19
ATOM     19  O   LIG    1       -2.871  -4.707  16.528  0.00  0.00    -0.507 OA
ATOM     20  H   LIG    1       -2.317  -5.092  15.829  0.00  0.00    +0.292 HD
ENDBRANCH  15  19
ENDBRANCH   2  11
TORSDOF 5
ENDMDL
MODEL 4
REMARK VINA RESULT:      -6.9      1.695      2.149
REMARK  Name = 
REMARK                            x       y       z     vdW  Elec       q    Type
REMARK                         _______ _______ _______ _____ _____    ______ ____
ROOT
ATOM      1  C   LIG    1       -7.070  -4.858  13.606  0.00  0.00    +0.008 C 
ATOM      2  C   LIG    1       -7.022  -4.551  12.299  0.00  0.00    +0.009 C 
ENDROOT
BRANCH   1   6
ATOM      3  C   LIG    1       -3.812  -4.283  16.331  0.00  0.00    +0.117 A 
ATOM      4  C   LIG    1       -5.108  -4.100  16.791  0.00  0.00    +0.046 A 
ATOM      5  C   LIG    1       -6.189  -4.294  15.925  0.00  0.00    +0.011 A 
ATOM      6  C   LIG    1       -5.981  -4.673  14.590  0.00  0.00    -0.025 A 
ATOM      7  C   LIG    1       -4.659  -4.866  14.156  0.00  0.00    +0.011 A 
ATOM      8  C   LIG    1       -3.575  -4.670  15.020  0.00  0.00    +0.046 A 
BRANCH   3   9
ATOM      9  O   LIG    1       -2.789  -4.065  17.205  0.00  0.00    -0.507 OA
ATOM     10  H   LIG    1       -2.872  -3.166  17.563  0.00  0.00    +0.292 HD
ENDBRANCH   3   9
ENDBRANCH   1   6
BRANCH   2  11
ATOM     11  C   LIG    1       -8.092  -4.784  11.303  0.00  0.00    -0.018 A 
ATOM     12  C   LIG    1       -9.207  -5.539  11.699  0.00  0.00    +0.053 A 
ATOM     13  C   LIG    1      -10.260  -5.772  10.814  0.00  0.00    +0.121 A 
ATOM     14  C   LIG    1      -10.231  -5.267   9.523  0.00  0.00    +0.090 A 
ATOM     15  C   LIG    1       -9.128  -4.523   9.124  0.00  0.00    +0.121 A 
ATOM     16  C   LIG    1       -8.064  -4.279   9.994  0.00  0.00    +0.053 A 
BRANCH  13  17
ATOM     17  O   LIG    1      -11.317  -6.508  11.265  0.00  0.00    -0.507 OA
ATOM     18  H   LIG    1      -11.005  -7.089  11.979  0.00  0.00    +0.292 HD
ENDBRANCH  13  17
BRANCH  15  19
ATOM     19  O   LIG    1       -9.127  -4.036   7.847  0.00  0.00    -0.507 OA
ATOM     20  H   LIG    1      -10.027  -3.747   7.622  0.00  0.00    +0.292 HD
ENDBRANCH  15  19
ENDBRANCH   2  11
TORSDOF 5
ENDMDL
MODEL 5
REMARK VINA RESULT:      -6.7      1.459      7.438
REMARK  Name = 
REMARK                            x       y       z     vdW  Elec       q    Type
REMARK                         _______ _______ _______ _____ _____    ______ ____
ROOT
ATOM      1  C   LIG    1       -7.494  -4.663  12.238  0.00  0.00    +0.008 C 
ATOM      2  C   LIG    1       -6.279  -4.777  12.801  0.00  0.00    +0.009 C 
ENDROOT
BRANCH   1   6
ATOM      3  C   LIG    1       -8.492  -4.768   8.071  0.00  0.00    +0.117 A 
ATOM      4  C   LIG    1       -7.239  -5.212   8.470  0.00  0.00    +0.046 A 
ATOM      5  C   LIG    1       -6.894  -5.199   9.825  0.00  0.00    +0.011 A 
ATOM      6  C   LIG    1       -7.801  -4.744  10.793  0.00  0.00    -0.025 A 
ATOM      7  C   LIG    1       -9.068  -4.314  10.362  0.00  0.00    +0.011 A 
ATOM      8  C   LIG    1       -9.415  -4.324   9.007  0.00  0.00    +0.046 A 
BRANCH   3   9
ATOM      9  O   LIG    1       -8.779  -4.781   6.738  0.00  0.00    -0.507 OA
ATOM     10  H   LIG    1       -9.740  -4.708   6.627  0.00  0.00    +0.292 HD
ENDBRANCH   3   9
ENDBRANCH   1   6
BRANCH   2  11
ATOM     11  C   LIG    1       -5.965  -4.645  14.242  0.00  0.00    -0.018 A 
ATOM     12  C   LIG    1       -4.623  -4.769  14.638  0.00  0.00    +0.053 A 
ATOM     13  C   LIG    1       -4.261  -4.630  15.977  0.00  0.00    +0.121 A 
ATOM     14  C   LIG    1       -5.213  -4.368  16.950  0.00  0.00    +0.090 A 
ATOM     15  C   LIG    1       -6.542  -4.249  16.566  0.00  0.00    +0.121 A 
ATOM     16  C   LIG    1       -6.927  -4.385  15.230  0.00  0.00    +0.053 A 
BRANCH  13  17
ATOM     17  O   LIG    1       -2.939  -4.756  16.293  0.00  0.00    -0.507 OA
ATOM     18  H   LIG    1       -2.478  -5.151  15.534  0.00  0.00    +0.292 HD
ENDBRANCH  13  17
BRANCH  15  19
ATOM     19  O   LIG    1       -7.460  -3.989  17.544  0.00  0.00    -0.507 OA
ATOM     20  H   LIG    1       -6.988  -3.795  18.372  0.00  0.00    +0.292 HD
ENDBRANCH  15  19
ENDBRANCH   2  11
TORSDOF 5
ENDMDL
MODEL 6
REMARK VINA RESULT:      -6.5      5.713      7.358
REMARK  Name = 
REMARK                            x       y       z     vdW  Elec       q    Type
REMARK                         _______ _______ _______ _____ _____    ______ ____
ROOT
ATOM      1  C   LIG    1      -10.420   0.013  13.015  0.00  0.00    +0.008 C 
ATOM      2  C   LIG    1       -9.546  -0.722  12.306  0.00  0.00    +0.009 C 
ENDROOT
BRANCH   1   6
ATOM      3  C   LIG    1      -10.336   4.283  13.376  0.00  0.00    +0.117 A 
ATOM      4  C   LIG    1      -11.131   3.710  12.394  0.00  0.00    +0.046 A 
ATOM      5  C   LIG    1      -11.185   2.319  12.264  0.00  0.00    +0.011 A 
ATOM      6  C   LIG    1      -10.445   1.488  13.117  0.00  0.00    -0.025 A 
ATOM      7  C   LIG    1       -9.660   2.094  14.113  0.00  0.00    +0.011 A 
ATOM      8  C   LIG    1       -9.602   3.486  14.244  0.00  0.00    +0.046 A 
BRANCH   3   9
ATOM      9  O   LIG    1      -10.300   5.643  13.454  0.00  0.00    -0.507 OA
ATOM     10  H   LIG    1      -10.340   5.901  14.389  0.00  0.00    +0.292 HD
ENDBRANCH   3   9
ENDBRANCH   1   6
BRANCH   2  11
ATOM     11  C   LIG    1       -9.489  -2.200  12.245  0.00  0.00    -0.018 A 
ATOM     12  C   LIG    1      -10.666  -2.917  12.514  0.00  0.00    +0.053 A 
ATOM     13  C   LIG    1      -10.682  -4.309  12.449  0.00  0.00    +0.121 A 
ATOM     14  C   LIG    1       -9.538  -5.021  12.120  0.00  0.00    +0.090 A 
ATOM     15  C   LIG    1       -8.369  -4.318  11.859  0.00  0.00    +0.121 A 
ATOM     16  C   LIG    1       -8.332  -2.923  11.919  0.00  0.00    +0.053 A 
BRANCH  13  17
ATOM     17  O   LIG    1      -11.861  -4.944  12.714  0.00  0.00    -0.507 OA
ATOM     18  H   LIG    1      -12.474  -4.301  13.108  0.00  0.00    +0.292 HD
ENDBRANCH  13  17
BRANCH  15  19
ATOM     19  O   LIG    1       -7.257  -5.044  11.535  0.00  0.00    -0.507 OA
ATOM     20  H   LIG    1       -6.574  -4.884  12.207  0.00  0.00    +0.292 HD
ENDBRANCH  15  19
ENDBRANCH   2  11
TORSDOF 5
ENDMDL
MODEL 7
REMARK VINA RESULT:      -6.3      5.804      7.494
REMARK  Name = 
REMARK                            x       y       z     vdW  Elec       q    Type
REMARK                         _______ _______ _______ _____ _____    ______ ____
ROOT
ATOM      1  C   LIG    1      -10.490   0.135  13.063  0.00  0.00    +0.008 C 
ATOM      2  C   LIG    1       -9.634  -0.650  12.387  0.00  0.00    +0.009 C 
ENDROOT
BRANCH   1   6
ATOM      3  C   LIG    1      -10.234   4.404  13.341  0.00  0.00    +0.117 A 
ATOM      4  C   LIG    1      -11.050   3.845  12.368  0.00  0.00    +0.046 A 
ATOM      5  C   LIG    1      -11.161   2.455  12.265  0.00  0.00    +0.011 A 
ATOM      6  C   LIG    1      -10.456   1.612  13.136  0.00  0.00    -0.025 A 
ATOM      7  C   LIG    1       -9.648   2.205  14.121  0.00  0.00    +0.011 A 
ATOM      8  C   LIG    1       -9.534   3.596  14.225  0.00  0.00    +0.046 A 
BRANCH   3   9
ATOM      9  O   LIG    1      -10.142   5.763  13.392  0.00  0.00    -0.507 OA
ATOM     10  H   LIG    1       -9.521   6.006  14.097  0.00  0.00    +0.292 HD
ENDBRANCH   3   9
ENDBRANCH   1   6
BRANCH   2  11
ATOM     11  C   LIG    1       -9.637  -2.129  12.356  0.00  0.00    -0.018 A 
ATOM     12  C   LIG    1       -8.416  -2.787  12.137  0.00  0.00    +0.053 A 
ATOM     13  C   LIG    1       -8.350  -4.180  12.121  0.00  0.00    +0.121 A 
ATOM     14  C   LIG    1       -9.487  -4.949  12.319  0.00  0.00    +0.090 A 
ATOM     15  C   LIG    1      -10.699  -4.305  12.531  0.00  0.00    +0.121 A 
ATOM     16  C   LIG    1      -10.786  -2.911  12.550  0.00  0.00    +0.053 A 
BRANCH  13  17
ATOM     17  O   LIG    1       -7.131  -4.755  11.910  0.00  0.00    -0.507 OA
ATOM     18  H   LIG    1       -6.922  -5.319  12.673  0.00  0.00    +0.292 HD
ENDBRANCH  13  17
BRANCH  15  19
ATOM     19  O   LIG    1      -11.802  -5.088  12.725  0.00  0.00    -0.507 OA
ATOM     20  H   LIG    1      -11.584  -5.781  13.369  0.00  0.00    +0.292 HD
ENDBRANCH  15  19
ENDBRANCH   2  11
TORSDOF 5
ENDMDL
MODEL 8
REMARK VINA RESULT:      -6.1      4.626      6.722
REMARK  Name = 
REMARK                            x       y       z     vdW  Elec       q    Type
REMARK                         _______ _______ _______ _____ _____    ______ ____
ROOT
ATOM      1  C   LIG    1       -9.687  -1.464  12.588  0.00  0.00    +0.008 C 
ATOM      2  C   LIG    1       -8.779  -1.677  11.620  0.00  0.00    +0.009 C 
ENDROOT
BRANCH   1   6
ATOM      3  C   LIG    1      -12.031   2.102  12.984  0.00  0.00    +0.117 A 
ATOM      4  C   LIG    1      -12.674   0.909  12.684  0.00  0.00    +0.046 A 
ATOM      5  C   LIG    1      -11.932  -0.270  12.562  0.00  0.00    +0.011 A 
ATOM      6  C   LIG    1      -10.541  -0.267  12.741  0.00  0.00    -0.025 A 
ATOM      7  C   LIG    1       -9.919   0.953  13.059  0.00  0.00    +0.011 A 
ATOM      8  C   LIG    1      -10.658   2.135  13.179  0.00  0.00    +0.046 A 
BRANCH   3   9
ATOM      9  O   LIG    1      -12.792   3.230  13.076  0.00  0.00    -0.507 OA
ATOM     10  H   LIG    1      -13.539   3.052  13.669  0.00  0.00    +0.292 HD
ENDBRANCH   3   9
ENDBRANCH   1   6
BRANCH   2  11
ATOM     11  C   LIG    1       -7.887  -2.851  11.497  0.00  0.00    -0.018 A 
ATOM     12  C   LIG    1       -7.728  -3.428  10.227  0.00  0.00    +0.053 A 
ATOM     13  C   LIG    1       -6.882  -4.521  10.042  0.00  0.00    +0.121 A 
ATOM     14  C   LIG    1       -6.180  -5.067  11.106  0.00  0.00    +0.090 A 
ATOM     15  C   LIG    1       -6.337  -4.505  12.366  0.00  0.00    +0.121 A 
ATOM     16  C   LIG    1       -7.180  -3.410  12.573  0.00  0.00    +0.053 A 
BRANCH  13  17
ATOM     17  O   LIG    1       -6.767  -5.029   8.781  0.00  0.00    -0.507 OA
ATOM     18  H   LIG    1       -7.082  -5.948   8.789  0.00  0.00    +0.292 HD
ENDBRANCH  13  17
BRANCH  15  19
ATOM     19  O   LIG    1       -5.632  -5.061  13.396  0.00  0.00    -0.507 OA
ATOM     20  H   LIG    1       -6.245  -5.257  14.125  0.00  0.00    +0.292 HD
ENDBRANCH  15  19
ENDBRANCH   2  11
TORSDOF 5
ENDMDL
MODEL 9
REMARK VINA RESULT:      -6.1      4.607      6.822
REMARK  Name = 
REMARK                            x       y       z     vdW  Elec       q    Type
REMARK                         _______ _______ _______ _____ _____    ______ ____
ROOT
ATOM      1  C   LIG    1       -9.672  -1.450  12.608  0.00  0.00    +0.008 C 
ATOM      2  C   LIG    1       -8.778  -1.669  11.629  0.00  0.00    +0.009 C 
ENDROOT
BRANCH   1   6
ATOM      3  C   LIG    1      -12.049   2.096  12.989  0.00  0.00    +0.117 A 
ATOM      4  C   LIG    1      -12.678   0.899  12.676  0.00  0.00    +0.046 A 
ATOM      5  C   LIG    1      -11.926  -0.274  12.559  0.00  0.00    +0.011 A 
ATOM      6  C   LIG    1      -10.538  -0.260  12.754  0.00  0.00    -0.025 A 
ATOM      7  C   LIG    1       -9.929   0.963  13.085  0.00  0.00    +0.011 A 
ATOM      8  C   LIG    1      -10.678   2.138  13.201  0.00  0.00    +0.046 A 
BRANCH   3   9
ATOM      9  O   LIG    1      -12.819   3.217  13.075  0.00  0.00    -0.507 OA
ATOM     10  H   LIG    1      -12.869   3.627  12.197  0.00  0.00    +0.292 HD
ENDBRANCH   3   9
ENDBRANCH   1   6
BRANCH   2  11
ATOM     11  C   LIG    1       -7.874  -2.835  11.511  0.00  0.00    -0.018 A 
ATOM     12  C   LIG    1       -7.186  -3.255  12.660  0.00  0.00    +0.053 A 
ATOM     13  C   LIG    1       -6.339  -4.362  12.619  0.00  0.00    +0.121 A 
ATOM     14  C   LIG    1       -6.154  -5.074  11.443  0.00  0.00    +0.090 A 
ATOM     15  C   LIG    1       -6.827  -4.661  10.301  0.00  0.00    +0.121 A 
ATOM     16  C   LIG    1       -7.679  -3.555  10.321  0.00  0.00    +0.053 A 
BRANCH  13  17
ATOM     17  O   LIG    1       -5.707  -4.721  13.774  0.00  0.00    -0.507 OA
ATOM     18  H   LIG    1       -5.677  -3.948  14.361  0.00  0.00    +0.292 HD
ENDBRANCH  13  17
BRANCH  15  19
ATOM     19  O   LIG    1       -6.628  -5.382   9.158  0.00  0.00    -0.507 OA
ATOM     20  H   LIG    1       -7.363  -6.007   9.050  0.00  0.00    +0.292 HD
ENDBRANCH  15  19
ENDBRANCH   2  11
TORSDOF 5
ENDMDL
