MODEL 1
REMARK VINA RESULT:      -9.2      0.000      0.000
REMARK  Name = 
REMARK                            x       y       z     vdW  Elec       q    Type
REMARK                         _______ _______ _______ _____ _____    ______ ____
ROOT
ATOM      1  C   LIG    1       59.569  46.930  28.512  0.00  0.00    +0.008 C 
ATOM      2  C   LIG    1       58.874  45.899  29.021  0.00  0.00    +0.009 C 
ENDROOT
BRANCH   1   6
ATOM      3  C   LIG    1       63.774  46.871  27.681  0.00  0.00    +0.117 A 
ATOM      4  C   LIG    1       63.133  48.096  27.801  0.00  0.00    +0.046 A 
ATOM      5  C   LIG    1       61.764  48.142  28.084  0.00  0.00    +0.011 A 
ATOM      6  C   LIG    1       61.025  46.962  28.251  0.00  0.00    -0.025 A 
ATOM      7  C   LIG    1       61.702  45.736  28.139  0.00  0.00    +0.011 A 
ATOM      8  C   LIG    1       63.071  45.687  27.853  0.00  0.00    +0.046 A 
BRANCH   3   9
ATOM      9  O   LIG    1       65.104  46.874  27.387  0.00  0.00    -0.507 OA
ATOM     10  H   LIG    1       65.209  46.940  26.424  0.00  0.00    +0.292 HD
ENDBRANCH   3   9
ENDBRANCH   1   6
BRANCH   2  11
ATOM     11  C   LIG    1       57.426  45.885  29.330  0.00  0.00    -0.018 A 
ATOM     12  C   LIG    1       56.625  46.899  28.781  0.00  0.00    +0.053 A 
ATOM     13  C   LIG    1       55.251  46.926  29.016  0.00  0.00    +0.121 A 
ATOM     14  C   LIG    1       54.642  45.956  29.798  0.00  0.00    +0.090 A 
ATOM     15  C   LIG    1       55.430  44.954  30.349  0.00  0.00    +0.121 A 
ATOM     16  C   LIG    1       56.808  44.909  30.126  0.00  0.00    +0.053 A 
BRANCH  13  17
ATOM     17  O   LIG    1       54.529  47.934  28.446  0.00  0.00    -0.507 OA
ATOM     18  H   LIG    1       53.597  47.662  28.408  0.00  0.00    +0.292 HD
ENDBRANCH  13  17
BRANCH  15  19
ATOM     19  O   LIG    1       54.804  44.010  31.114  0.00  0.00    -0.507 OA
ATOM     20  H   LIG    1       55.478  43.491  31.584  0.00  0.00    +0.292 HD
ENDBRANCH  15  19
ENDBRANCH   2  11
TORSDOF 5
ENDMDL
MODEL 2
REMARK VINA RESULT:      -9.0      0.350      2.015
REMARK  Name = 
REMARK                            x       y       z     vdW  Elec       q    Type
REMARK                         _______ _______ _______ _____ _____    ______ ____
ROOT
ATOM      1  C   LIG    1       59.360  47.027  28.675  0.00  0.00    +0.008 C 
ATOM      2  C   LIG    1       58.589  45.953  28.919  0.00  0.00    +0.009 C 
ENDROOT
BRANCH   1   6
ATOM      3  C   LIG    1       63.560  46.841  27.839  0.00  0.00    +0.117 A 
ATOM      4  C   LIG    1       62.919  48.070  27.773  0.00  0.00    +0.046 A 
ATOM      5  C   LIG    1       61.552  48.158  28.054  0.00  0.00    +0.011 A 
ATOM      6  C   LIG    1       60.814  47.018  28.404  0.00  0.00    -0.025 A 
ATOM      7  C   LIG    1       61.493  45.790  28.479  0.00  0.00    +0.011 A 
ATOM      8  C   LIG    1       62.860  45.697  28.196  0.00  0.00    +0.046 A 
BRANCH   3   9
ATOM      9  O   LIG    1       64.889  46.799  27.540  0.00  0.00    -0.507 OA
ATOM     10  H   LIG    1       65.131  47.621  27.085  0.00  0.00    +0.292 HD
ENDBRANCH   3   9
ENDBRANCH   1   6
BRANCH   2  11
ATOM     11  C   LIG    1       57.145  45.966  29.241  0.00  0.00    -0.018 A 
ATOM     12  C   LIG    1       56.611  44.858  29.918  0.00  0.00    +0.053 A 
ATOM     13  C   LIG    1       55.263  44.821  30.272  0.00  0.00    +0.121 A 
ATOM     14  C   LIG    1       54.416  45.875  29.963  0.00  0.00    +0.090 A 
ATOM     15  C   LIG    1       54.936  46.972  29.289  0.00  0.00    +0.121 A 
ATOM     16  C   LIG    1       56.284  47.028  28.925  0.00  0.00    +0.053 A 
BRANCH  13  17
ATOM     17  O   LIG    1       54.810  43.718  30.935  0.00  0.00    -0.507 OA
ATOM     18  H   LIG    1       55.572  43.158  31.156  0.00  0.00    +0.292 HD
ENDBRANCH  13  17
BRANCH  15  19
ATOM     19  O   LIG    1       54.081  47.997  28.999  0.00  0.00    -0.507 OA
ATOM     20  H   LIG    1       53.543  47.747  28.229  0.00  0.00    +0.292 HD
ENDBRANCH  15  19
ENDBRANCH   2  11
TORSDOF 5
ENDMDL
MODEL 3
REMARK VINA RESULT:      -8.7      1.327      7.694
REMARK  Name = 
REMARK                            x       y       z     vdW  Elec       q    Type
REMARK                         _______ _______ _______ _____ _____    ______ ____
ROOT
ATOM      1  C   LIG    1       59.411  45.615  29.581  0.00  0.00    +0.008 C 
ATOM      2  C   LIG    1       60.108  46.343  28.692  0.00  0.00    +0.009 C 
ENDROOT
BRANCH   1   6
ATOM      3  C   LIG    1       55.149  45.748  30.011  0.00  0.00    +0.117 A 
ATOM      4  C   LIG    1       55.884  44.957  30.882  0.00  0.00    +0.046 A 
ATOM      5  C   LIG    1       57.278  44.907  30.770  0.00  0.00    +0.011 A 
ATOM      6  C   LIG    1       57.947  45.648  29.786  0.00  0.00    -0.025 A 
ATOM      7  C   LIG    1       57.178  46.452  28.927  0.00  0.00    +0.011 A 
ATOM      8  C   LIG    1       55.784  46.503  29.035  0.00  0.00    +0.046 A 
BRANCH   3   9
ATOM      9  O   LIG    1       53.792  45.752  30.145  0.00  0.00    -0.507 OA
ATOM     10  H   LIG    1       53.544  46.464  30.756  0.00  0.00    +0.292 HD
ENDBRANCH   3   9
ENDBRANCH   1   6
BRANCH   2  11
ATOM     11  C   LIG    1       61.578  46.348  28.522  0.00  0.00    -0.018 A 
ATOM     12  C   LIG    1       62.302  45.251  29.015  0.00  0.00    +0.053 A 
ATOM     13  C   LIG    1       63.687  45.186  28.864  0.00  0.00    +0.121 A 
ATOM     14  C   LIG    1       64.383  46.203  28.227  0.00  0.00    +0.090 A 
ATOM     15  C   LIG    1       63.674  47.293  27.742  0.00  0.00    +0.121 A 
ATOM     16  C   LIG    1       62.287  47.378  27.884  0.00  0.00    +0.053 A 
BRANCH  13  17
ATOM     17  O   LIG    1       64.329  44.088  29.359  0.00  0.00    -0.507 OA
ATOM     18  H   LIG    1       64.045  43.311  28.850  0.00  0.00    +0.292 HD
ENDBRANCH  13  17
BRANCH  15  19
ATOM     19  O   LIG    1       64.384  48.279  27.118  0.00  0.00    -0.507 OA
ATOM     20  H   LIG    1       63.761  48.928  26.750  0.00  0.00    +0.292 HD
ENDBRANCH  15  19
ENDBRANCH   2  11
TORSDOF 5
ENDMDL
MODEL 4
REMARK VINA RESULT:      -8.6      1.296      7.641
REMARK  Name = 
REMARK                            x       y       z     vdW  Elec       q    Type
REMARK                         _______ _______ _______ _____ _____    ______ ____
ROOT
ATOM      1  C   LIG    1       59.396  45.598  29.401  0.00  0.00    +0.008 C 
ATOM      2  C   LIG    1       60.126  46.357  28.565  0.00  0.00    +0.009 C 
ENDROOT
BRANCH   1   6
ATOM      3  C   LIG    1       55.156  45.646  30.026  0.00  0.00    +0.117 A 
ATOM      4  C   LIG    1       55.713  46.562  29.144  0.00  0.00    +0.046 A 
ATOM      5  C   LIG    1       57.092  46.558  28.914  0.00  0.00    +0.011 A 
ATOM      6  C   LIG    1       57.927  45.637  29.563  0.00  0.00    -0.025 A 
ATOM      7  C   LIG    1       57.334  44.711  30.439  0.00  0.00    +0.011 A 
ATOM      8  C   LIG    1       55.955  44.714  30.674  0.00  0.00    +0.046 A 
BRANCH   3   9
ATOM      9  O   LIG    1       53.810  45.698  30.234  0.00  0.00    -0.507 OA
ATOM     10  H   LIG    1       53.638  45.579  31.182  0.00  0.00    +0.292 HD
ENDBRANCH   3   9
ENDBRANCH   1   6
BRANCH   2  11
ATOM     11  C   LIG    1       61.600  46.355  28.440  0.00  0.00    -0.018 A 
ATOM     12  C   LIG    1       62.304  45.253  28.953  0.00  0.00    +0.053 A 
ATOM     13  C   LIG    1       63.692  45.182  28.844  0.00  0.00    +0.121 A 
ATOM     14  C   LIG    1       64.412  46.195  28.230  0.00  0.00    +0.090 A 
ATOM     15  C   LIG    1       63.724  47.290  27.725  0.00  0.00    +0.121 A 
ATOM     16  C   LIG    1       62.333  47.381  27.824  0.00  0.00    +0.053 A 
BRANCH  13  17
ATOM     17  O   LIG    1       64.313  44.080  29.357  0.00  0.00    -0.507 OA
ATOM     18  H   LIG    1       64.142  43.328  28.766  0.00  0.00    +0.292 HD
ENDBRANCH  13  17
BRANCH  15  19
ATOM     19  O   LIG    1       64.457  48.273  27.123  0.00  0.00    -0.507 OA
ATOM     20  H   LIG    1       64.844  48.840  27.812  0.00  0.00    +0.292 HD
ENDBRANCH  15  19
ENDBRANCH   2  11
TORSDOF 5
ENDMDL
MODEL 5
REMARK VINA RESULT:      -8.6      1.435      7.448
REMARK  Name = 
REMARK                            x       y       z     vdW  Elec       q    Type
REMARK                         _______ _______ _______ _____ _____    ______ ____
ROOT
ATOM      1  C   LIG    1       59.451  45.521  29.652  0.00  0.00    +0.008 C 
ATOM      2  C   LIG    1       60.227  46.197  28.787  0.00  0.00    +0.009 C 
ENDROOT
BRANCH   1   6
ATOM      3  C   LIG    1       55.194  45.942  29.922  0.00  0.00    +0.117 A 
ATOM      4  C   LIG    1       55.841  45.105  30.820  0.00  0.00    +0.046 A 
ATOM      5  C   LIG    1       57.231  44.961  30.760  0.00  0.00    +0.011 A 
ATOM      6  C   LIG    1       57.985  45.653  29.802  0.00  0.00    -0.025 A 
ATOM      7  C   LIG    1       57.305  46.506  28.915  0.00  0.00    +0.011 A 
ATOM      8  C   LIG    1       55.914  46.650  28.971  0.00  0.00    +0.046 A 
BRANCH   3   9
ATOM      9  O   LIG    1       53.837  46.038  30.006  0.00  0.00    -0.507 OA
ATOM     10  H   LIG    1       53.442  45.376  29.416  0.00  0.00    +0.292 HD
ENDBRANCH   3   9
ENDBRANCH   1   6
BRANCH   2  11
ATOM     11  C   LIG    1       61.699  46.102  28.672  0.00  0.00    -0.018 A 
ATOM     12  C   LIG    1       62.373  47.118  27.975  0.00  0.00    +0.053 A 
ATOM     13  C   LIG    1       63.762  47.098  27.854  0.00  0.00    +0.121 A 
ATOM     14  C   LIG    1       64.512  46.076  28.415  0.00  0.00    +0.090 A 
ATOM     15  C   LIG    1       63.852  45.065  29.102  0.00  0.00    +0.121 A 
ATOM     16  C   LIG    1       62.461  45.066  29.234  0.00  0.00    +0.053 A 
BRANCH  13  17
ATOM     17  O   LIG    1       64.353  48.120  27.170  0.00  0.00    -0.507 OA
ATOM     18  H   LIG    1       64.029  48.105  26.254  0.00  0.00    +0.292 HD
ENDBRANCH  13  17
BRANCH  15  19
ATOM     19  O   LIG    1       64.615  44.072  29.646  0.00  0.00    -0.507 OA
ATOM     20  H   LIG    1       64.640  43.322  29.028  0.00  0.00    +0.292 HD
ENDBRANCH  15  19
ENDBRANCH   2  11
TORSDOF 5
ENDMDL
MODEL 6
REMARK VINA RESULT:      -8.5      1.423      7.402
REMARK  Name = 
REMARK                            x       y       z     vdW  Elec       q    Type
REMARK                         _______ _______ _______ _____ _____    ______ ____
ROOT
ATOM      1  C   LIG    1       59.486  45.587  29.579  0.00  0.00    +0.008 C 
ATOM      2  C   LIG    1       60.275  46.120  28.631  0.00  0.00    +0.009 C 
ENDROOT
BRANCH   1   6
ATOM      3  C   LIG    1       55.226  45.849  29.965  0.00  0.00    +0.117 A 
ATOM      4  C   LIG    1       55.867  46.676  29.054  0.00  0.00    +0.046 A 
ATOM      5  C   LIG    1       57.255  46.601  28.901  0.00  0.00    +0.011 A 
ATOM      6  C   LIG    1       58.013  45.696  29.657  0.00  0.00    -0.025 A 
ATOM      7  C   LIG    1       57.336  44.860  30.561  0.00  0.00    +0.011 A 
ATOM      8  C   LIG    1       55.948  44.934  30.719  0.00  0.00    +0.046 A 
BRANCH   3   9
ATOM      9  O   LIG    1       53.874  45.969  30.094  0.00  0.00    -0.507 OA
ATOM     10  H   LIG    1       53.459  45.718  29.254  0.00  0.00    +0.292 HD
ENDBRANCH   3   9
ENDBRANCH   1   6
BRANCH   2  11
ATOM     11  C   LIG    1       61.753  46.056  28.582  0.00  0.00    -0.018 A 
ATOM     12  C   LIG    1       62.434  47.068  27.886  0.00  0.00    +0.053 A 
ATOM     13  C   LIG    1       63.827  47.076  27.824  0.00  0.00    +0.121 A 
ATOM     14  C   LIG    1       64.574  46.085  28.445  0.00  0.00    +0.090 A 
ATOM     15  C   LIG    1       63.907  45.078  29.130  0.00  0.00    +0.121 A 
ATOM     16  C   LIG    1       62.512  45.052  29.203  0.00  0.00    +0.053 A 
BRANCH  13  17
ATOM     17  O   LIG    1       64.426  48.092  27.139  0.00  0.00    -0.507 OA
ATOM     18  H   LIG    1       64.183  48.016  26.201  0.00  0.00    +0.292 HD
ENDBRANCH  13  17
BRANCH  15  19
ATOM     19  O   LIG    1       64.666  44.117  29.733  0.00  0.00    -0.507 OA
ATOM     20  H   LIG    1       65.384  44.549  30.226  0.00  0.00    +0.292 HD
ENDBRANCH  15  19
ENDBRANCH   2  11
TORSDOF 5
ENDMDL
MODEL 7
REMARK VINA RESULT:      -8.3      2.141      7.610
REMARK  Name = 
REMARK                            x       y       z     vdW  Elec       q    Type
REMARK                         _______ _______ _______ _____ _____    ______ ____
ROOT
ATOM      1  C   LIG    1       59.310  45.688  30.152  0.00  0.00    +0.008 C 
ATOM      2  C   LIG    1       60.236  46.449  29.544  0.00  0.00    +0.009 C 
ENDROOT
BRANCH   1   6
ATOM      3  C   LIG    1       55.044  45.977  29.843  0.00  0.00    +0.117 A 
ATOM      4  C   LIG    1       55.828  46.562  28.858  0.00  0.00    +0.046 A 
ATOM      5  C   LIG    1       57.221  46.470  28.929  0.00  0.00    +0.011 A 
ATOM      6  C   LIG    1       57.844  45.792  29.987  0.00  0.00    -0.025 A 
ATOM      7  C   LIG    1       57.025  45.196  30.963  0.00  0.00    +0.011 A 
ATOM      8  C   LIG    1       55.631  45.288  30.895  0.00  0.00    +0.046 A 
BRANCH   3   9
ATOM      9  O   LIG    1       53.691  46.107  29.741  0.00  0.00    -0.507 OA
ATOM     10  H   LIG    1       53.495  46.836  29.132  0.00  0.00    +0.292 HD
ENDBRANCH   3   9
ENDBRANCH   1   6
BRANCH   2  11
ATOM     11  C   LIG    1       61.700  46.380  29.749  0.00  0.00    -0.018 A 
ATOM     12  C   LIG    1       62.177  46.259  31.064  0.00  0.00    +0.053 A 
ATOM     13  C   LIG    1       63.544  46.165  31.319  0.00  0.00    +0.121 A 
ATOM     14  C   LIG    1       64.466  46.189  30.284  0.00  0.00    +0.090 A 
ATOM     15  C   LIG    1       64.002  46.314  28.981  0.00  0.00    +0.121 A 
ATOM     16  C   LIG    1       62.636  46.410  28.704  0.00  0.00    +0.053 A 
BRANCH  13  17
ATOM     17  O   LIG    1       63.940  46.042  32.619  0.00  0.00    -0.507 OA
ATOM     18  H   LIG    1       63.709  46.861  33.089  0.00  0.00    +0.292 HD
ENDBRANCH  13  17
BRANCH  15  19
ATOM     19  O   LIG    1       64.932  46.334  27.980  0.00  0.00    -0.507 OA
ATOM     20  H   LIG    1       64.476  46.476  27.134  0.00  0.00    +0.292 HD
ENDBRANCH  15  19
ENDBRANCH   2  11
TORSDOF 5
ENDMDL
MODEL 8
REMARK VINA RESULT:      -7.1      4.655      7.837
REMARK  Name = 
REMARK                            x       y       z     vdW  Elec       q    Type
REMARK                         _______ _______ _______ _____ _____    ______ ____
ROOT
ATOM      1  C   LIG    1       60.474  46.257  31.326  0.00  0.00    +0.008 C 
ATOM      2  C   LIG    1       60.669  46.492  32.635  0.00  0.00    +0.009 C 
ENDROOT
BRANCH   1   6
ATOM      3  C   LIG    1       56.644  45.455  29.577  0.00  0.00    +0.117 A 
ATOM      4  C   LIG    1       57.625  46.048  28.796  0.00  0.00    +0.046 A 
ATOM      5  C   LIG    1       58.887  46.309  29.340  0.00  0.00    +0.011 A 
ATOM      6  C   LIG    1       59.178  45.977  30.670  0.00  0.00    -0.025 A 
ATOM      7  C   LIG    1       58.170  45.363  31.434  0.00  0.00    +0.011 A 
ATOM      8  C   LIG    1       56.907  45.103  30.893  0.00  0.00    +0.046 A 
BRANCH   3   9
ATOM      9  O   LIG    1       55.424  45.236  29.010  0.00  0.00    -0.507 OA
ATOM     10  H   LIG    1       54.859  46.006  29.183  0.00  0.00    +0.292 HD
ENDBRANCH   3   9
ENDBRANCH   1   6
BRANCH   2  11
ATOM     11  C   LIG    1       61.971  46.721  33.300  0.00  0.00    -0.018 A 
ATOM     12  C   LIG    1       63.084  46.002  32.835  0.00  0.00    +0.053 A 
ATOM     13  C   LIG    1       64.343  46.192  33.404  0.00  0.00    +0.121 A 
ATOM     14  C   LIG    1       64.527  47.092  34.443  0.00  0.00    +0.090 A 
ATOM     15  C   LIG    1       63.430  47.803  34.911  0.00  0.00    +0.121 A 
ATOM     16  C   LIG    1       62.161  47.627  34.355  0.00  0.00    +0.053 A 
BRANCH  13  17
ATOM     17  O   LIG    1       65.383  45.467  32.901  0.00  0.00    -0.507 OA
ATOM     18  H   LIG    1       66.200  45.755  33.340  0.00  0.00    +0.292 HD
ENDBRANCH  13  17
BRANCH  15  19
ATOM     19  O   LIG    1       63.640  48.685  35.933  0.00  0.00    -0.507 OA
ATOM     20  H   LIG    1       63.541  48.214  36.777  0.00  0.00    +0.292 HD
ENDBRANCH  15  19
ENDBRANCH   2  11
TORSDOF 5
ENDMDL
MODEL 9
REMARK VINA RESULT:      -7.1      4.668      7.838
REMARK  Name = 
REMARK                            x       y       z     vdW  Elec       q    Type
REMARK                         _______ _______ _______ _____ _____    ______ ____
ROOT
ATOM      1  C   LIG    1       60.558  46.361  31.279  0.00  0.00    +0.008 C 
ATOM      2  C   LIG    1       60.840  46.417  32.592  0.00  0.00    +0.009 C 
ENDROOT
BRANCH   1   6
ATOM      3  C   LIG    1       56.651  45.590  29.693  0.00  0.00    +0.117 A 
ATOM      4  C   LIG    1       57.598  46.194  28.877  0.00  0.00    +0.046 A 
ATOM      5  C   LIG    1       58.883  46.444  29.367  0.00  0.00    +0.011 A 
ATOM      6  C   LIG    1       59.234  46.092  30.678  0.00  0.00    -0.025 A 
ATOM      7  C   LIG    1       58.260  45.468  31.478  0.00  0.00    +0.011 A 
ATOM      8  C   LIG    1       56.972  45.218  30.991  0.00  0.00    +0.046 A 
BRANCH   3   9
ATOM      9  O   LIG    1       55.406  45.382  29.179  0.00  0.00    -0.507 OA
ATOM     10  H   LIG    1       54.764  45.880  29.710  0.00  0.00    +0.292 HD
ENDBRANCH   3   9
ENDBRANCH   1   6
BRANCH   2  11
ATOM     11  C   LIG    1       62.175  46.635  33.193  0.00  0.00    -0.018 A 
ATOM     12  C   LIG    1       62.279  47.545  34.257  0.00  0.00    +0.053 A 
ATOM     13  C   LIG    1       63.504  47.775  34.881  0.00  0.00    +0.121 A 
ATOM     14  C   LIG    1       64.650  47.112  34.467  0.00  0.00    +0.090 A 
ATOM     15  C   LIG    1       64.556  46.214  33.412  0.00  0.00    +0.121 A 
ATOM     16  C   LIG    1       63.338  45.971  32.773  0.00  0.00    +0.053 A 
BRANCH  13  17
ATOM     17  O   LIG    1       63.534  48.667  35.913  0.00  0.00    -0.507 OA
ATOM     18  H   LIG    1       62.924  48.358  36.604  0.00  0.00    +0.292 HD
ENDBRANCH  13  17
BRANCH  15  19
ATOM     19  O   LIG    1       65.700  45.574  33.026  0.00  0.00    -0.507 OA
ATOM     20  H   LIG    1       65.876  44.847  33.646  0.00  0.00    +0.292 HD
ENDBRANCH  15  19
ENDBRANCH   2  11
TORSDOF 5
ENDMDL
