MODEL 1
REMARK VINA RESULT:      -8.6      0.000      0.000
REMARK  Name = 
REMARK                            x       y       z     vdW  Elec       q    Type
REMARK                         _______ _______ _______ _____ _____    ______ ____
ROOT
ATOM      1  C   LIG    1       43.483  -2.263  17.388  0.00  0.00    +0.008 C 
ATOM      2  C   LIG    1       44.175  -3.321  16.933  0.00  0.00    +0.009 C 
ENDROOT
BRANCH   1   6
ATOM      3  C   LIG    1       39.318  -1.603  16.618  0.00  0.00    +0.117 A 
ATOM      4  C   LIG    1       39.942  -0.858  17.609  0.00  0.00    +0.046 A 
ATOM      5  C   LIG    1       41.303  -1.045  17.870  0.00  0.00    +0.011 A 
ATOM      6  C   LIG    1       42.052  -1.980  17.142  0.00  0.00    -0.025 A 
ATOM      7  C   LIG    1       41.399  -2.711  16.135  0.00  0.00    +0.011 A 
ATOM      8  C   LIG    1       40.036  -2.526  15.872  0.00  0.00    +0.046 A 
BRANCH   3   9
ATOM      9  O   LIG    1       37.987  -1.399  16.411  0.00  0.00    -0.507 OA
ATOM     10  H   LIG    1       37.699  -0.650  16.956  0.00  0.00    +0.292 HD
ENDBRANCH   3   9
ENDBRANCH   1   6
BRANCH   2  11
ATOM     11  C   LIG    1       45.619  -3.577  17.135  0.00  0.00    -0.018 A 
ATOM     12  C   LIG    1       46.053  -3.922  18.426  0.00  0.00    +0.053 A 
ATOM     13  C   LIG    1       47.397  -4.199  18.674  0.00  0.00    +0.121 A 
ATOM     14  C   LIG    1       48.337  -4.139  17.657  0.00  0.00    +0.090 A 
ATOM     15  C   LIG    1       47.916  -3.794  16.380  0.00  0.00    +0.121 A 
ATOM     16  C   LIG    1       46.574  -3.512  16.110  0.00  0.00    +0.053 A 
BRANCH  13  17
ATOM     17  O   LIG    1       47.750  -4.534  19.949  0.00  0.00    -0.507 OA
ATOM     18  H   LIG    1       47.828  -3.719  20.471  0.00  0.00    +0.292 HD
ENDBRANCH  13  17
BRANCH  15  19
ATOM     19  O   LIG    1       48.862  -3.744  15.396  0.00  0.00    -0.507 OA
ATOM     20  H   LIG    1       49.528  -4.432  15.567  0.00  0.00    +0.292 HD
ENDBRANCH  15  19
ENDBRANCH   2  11
TORSDOF 5
ENDMDL
MODEL 2
REMARK VINA RESULT:      -8.5      0.527      1.261
REMARK  Name = 
REMARK                            x       y       z     vdW  Elec       q    Type
REMARK                         _______ _______ _______ _____ _____    ______ ____
ROOT
ATOM      1  C   LIG    1       43.346  -3.125  16.722  0.00  0.00    +0.008 C 
ATOM      2  C   LIG    1       44.420  -2.501  17.235  0.00  0.00    +0.009 C 
ENDROOT
BRANCH   1   6
ATOM      3  C   LIG    1       39.423  -1.407  16.547  0.00  0.00    +0.117 A 
ATOM      4  C   LIG    1       39.696  -2.531  15.780  0.00  0.00    +0.046 A 
ATOM      5  C   LIG    1       40.964  -3.117  15.829  0.00  0.00    +0.011 A 
ATOM      6  C   LIG    1       41.971  -2.585  16.648  0.00  0.00    -0.025 A 
ATOM      7  C   LIG    1       41.662  -1.455  17.425  0.00  0.00    +0.011 A 
ATOM      8  C   LIG    1       40.395  -0.865  17.376  0.00  0.00    +0.046 A 
BRANCH   3   9
ATOM      9  O   LIG    1       38.179  -0.858  16.454  0.00  0.00    -0.507 OA
ATOM     10  H   LIG    1       38.271   0.098  16.312  0.00  0.00    +0.292 HD
ENDBRANCH   3   9
ENDBRANCH   1   6
BRANCH   2  11
ATOM     11  C   LIG    1       45.784  -3.061  17.357  0.00  0.00    -0.018 A 
ATOM     12  C   LIG    1       46.180  -3.569  18.605  0.00  0.00    +0.053 A 
ATOM     13  C   LIG    1       47.444  -4.132  18.777  0.00  0.00    +0.121 A 
ATOM     14  C   LIG    1       48.342  -4.203  17.722  0.00  0.00    +0.090 A 
ATOM     15  C   LIG    1       47.959  -3.699  16.487  0.00  0.00    +0.121 A 
ATOM     16  C   LIG    1       46.698  -3.130  16.294  0.00  0.00    +0.053 A 
BRANCH  13  17
ATOM     17  O   LIG    1       47.761  -4.613  20.014  0.00  0.00    -0.507 OA
ATOM     18  H   LIG    1       47.218  -5.400  20.186  0.00  0.00    +0.292 HD
ENDBRANCH  13  17
BRANCH  15  19
ATOM     19  O   LIG    1       48.862  -3.783  15.465  0.00  0.00    -0.507 OA
ATOM     20  H   LIG    1       48.378  -3.869  14.626  0.00  0.00    +0.292 HD
ENDBRANCH  15  19
ENDBRANCH   2  11
TORSDOF 5
ENDMDL
MODEL 3
REMARK VINA RESULT:      -8.3      1.930      7.815
REMARK  Name = 
REMARK                            x       y       z     vdW  Elec       q    Type
REMARK                         _______ _______ _______ _____ _____    ______ ____
ROOT
ATOM      1  C   LIG    1       42.129  -2.624  16.176  0.00  0.00    +0.008 C 
ATOM      2  C   LIG    1       41.042  -3.151  15.588  0.00  0.00    +0.009 C 
ENDROOT
BRANCH   1   6
ATOM      3  C   LIG    1       45.633  -4.832  17.277  0.00  0.00    +0.117 A 
ATOM      4  C   LIG    1       45.382  -3.620  17.904  0.00  0.00    +0.046 A 
ATOM      5  C   LIG    1       44.239  -2.886  17.571  0.00  0.00    +0.011 A 
ATOM      6  C   LIG    1       43.336  -3.361  16.609  0.00  0.00    -0.025 A 
ATOM      7  C   LIG    1       43.607  -4.599  16.002  0.00  0.00    +0.011 A 
ATOM      8  C   LIG    1       44.751  -5.334  16.331  0.00  0.00    +0.046 A 
BRANCH   3   9
ATOM      9  O   LIG    1       46.768  -5.504  17.620  0.00  0.00    -0.507 OA
ATOM     10  H   LIG    1       47.125  -5.115  18.435  0.00  0.00    +0.292 HD
ENDBRANCH   3   9
ENDBRANCH   1   6
BRANCH   2  11
ATOM     11  C   LIG    1       39.813  -2.423  15.202  0.00  0.00    -0.018 A 
ATOM     12  C   LIG    1       39.251  -1.537  16.136  0.00  0.00    +0.053 A 
ATOM     13  C   LIG    1       38.107  -0.804  15.823  0.00  0.00    +0.121 A 
ATOM     14  C   LIG    1       37.495  -0.931  14.584  0.00  0.00    +0.090 A 
ATOM     15  C   LIG    1       38.043  -1.809  13.658  0.00  0.00    +0.121 A 
ATOM     16  C   LIG    1       39.187  -2.553  13.952  0.00  0.00    +0.053 A 
BRANCH  13  17
ATOM     17  O   LIG    1       37.617   0.044  16.773  0.00  0.00    -0.507 OA
ATOM     18  H   LIG    1       37.142  -0.481  17.438  0.00  0.00    +0.292 HD
ENDBRANCH  13  17
BRANCH  15  19
ATOM     19  O   LIG    1       37.421  -1.913  12.446  0.00  0.00    -0.507 OA
ATOM     20  H   LIG    1       36.482  -1.687  12.555  0.00  0.00    +0.292 HD
ENDBRANCH  15  19
ENDBRANCH   2  11
TORSDOF 5
ENDMDL
MODEL 4
REMARK VINA RESULT:      -8.3      0.219      2.013
REMARK  Name = 
REMARK                            x       y       z     vdW  Elec       q    Type
REMARK                         _______ _______ _______ _____ _____    ______ ____
ROOT
ATOM      1  C   LIG    1       43.308  -2.370  17.403  0.00  0.00    +0.008 C 
ATOM      2  C   LIG    1       44.041  -3.379  16.902  0.00  0.00    +0.009 C 
ENDROOT
BRANCH   1   6
ATOM      3  C   LIG    1       39.231  -1.591  16.337  0.00  0.00    +0.117 A 
ATOM      4  C   LIG    1       39.812  -0.841  17.350  0.00  0.00    +0.046 A 
ATOM      5  C   LIG    1       41.145  -1.068  17.708  0.00  0.00    +0.011 A 
ATOM      6  C   LIG    1       41.908  -2.046  17.054  0.00  0.00    -0.025 A 
ATOM      7  C   LIG    1       41.298  -2.780  16.022  0.00  0.00    +0.011 A 
ATOM      8  C   LIG    1       39.964  -2.557  15.663  0.00  0.00    +0.046 A 
BRANCH   3   9
ATOM      9  O   LIG    1       37.924  -1.348  16.034  0.00  0.00    -0.507 OA
ATOM     10  H   LIG    1       37.560  -0.740  16.697  0.00  0.00    +0.292 HD
ENDBRANCH   3   9
ENDBRANCH   1   6
BRANCH   2  11
ATOM     11  C   LIG    1       45.458  -3.671  17.212  0.00  0.00    -0.018 A 
ATOM     12  C   LIG    1       46.386  -3.628  16.159  0.00  0.00    +0.053 A 
ATOM     13  C   LIG    1       47.739  -3.871  16.392  0.00  0.00    +0.121 A 
ATOM     14  C   LIG    1       48.202  -4.162  17.667  0.00  0.00    +0.090 A 
ATOM     15  C   LIG    1       47.289  -4.211  18.712  0.00  0.00    +0.121 A 
ATOM     16  C   LIG    1       45.930  -3.972  18.500  0.00  0.00    +0.053 A 
BRANCH  13  17
ATOM     17  O   LIG    1       48.589  -3.806  15.326  0.00  0.00    -0.507 OA
ATOM     18  H   LIG    1       48.496  -2.931  14.913  0.00  0.00    +0.292 HD
ENDBRANCH  13  17
BRANCH  15  19
ATOM     19  O   LIG    1       47.773  -4.499  19.957  0.00  0.00    -0.507 OA
ATOM     20  H   LIG    1       47.520  -3.782  20.563  0.00  0.00    +0.292 HD
ENDBRANCH  15  19
ENDBRANCH   2  11
TORSDOF 5
ENDMDL
MODEL 5
REMARK VINA RESULT:      -8.2      1.821      3.078
REMARK  Name = 
REMARK                            x       y       z     vdW  Elec       q    Type
REMARK                         _______ _______ _______ _____ _____    ______ ____
ROOT
ATOM      1  C   LIG    1       41.438  -2.238  16.589  0.00  0.00    +0.008 C 
ATOM      2  C   LIG    1       42.570  -2.113  17.303  0.00  0.00    +0.009 C 
ENDROOT
BRANCH   1   6
ATOM      3  C   LIG    1       38.132   0.485  16.740  0.00  0.00    +0.117 A 
ATOM      4  C   LIG    1       37.910  -0.812  16.299  0.00  0.00    +0.046 A 
ATOM      5  C   LIG    1       38.970  -1.723  16.253  0.00  0.00    +0.011 A 
ATOM      6  C   LIG    1       40.261  -1.344  16.648  0.00  0.00    -0.025 A 
ATOM      7  C   LIG    1       40.453  -0.029  17.105  0.00  0.00    +0.011 A 
ATOM      8  C   LIG    1       39.395   0.885  17.150  0.00  0.00    +0.046 A 
BRANCH   3   9
ATOM      9  O   LIG    1       37.073   1.344  16.751  0.00  0.00    -0.507 OA
ATOM     10  H   LIG    1       36.516   1.159  15.978  0.00  0.00    +0.292 HD
ENDBRANCH   3   9
ENDBRANCH   1   6
BRANCH   2  11
ATOM     11  C   LIG    1       43.726  -3.037  17.283  0.00  0.00    -0.018 A 
ATOM     12  C   LIG    1       43.736  -4.059  16.320  0.00  0.00    +0.053 A 
ATOM     13  C   LIG    1       44.809  -4.945  16.235  0.00  0.00    +0.121 A 
ATOM     14  C   LIG    1       45.890  -4.842  17.098  0.00  0.00    +0.090 A 
ATOM     15  C   LIG    1       45.883  -3.837  18.056  0.00  0.00    +0.121 A 
ATOM     16  C   LIG    1       44.819  -2.939  18.158  0.00  0.00    +0.053 A 
BRANCH  13  17
ATOM     17  O   LIG    1       44.759  -5.911  15.271  0.00  0.00    -0.507 OA
ATOM     18  H   LIG    1       45.453  -5.727  14.616  0.00  0.00    +0.292 HD
ENDBRANCH  13  17
BRANCH  15  19
ATOM     19  O   LIG    1       46.961  -3.757  18.892  0.00  0.00    -0.507 OA
ATOM     20  H   LIG    1       47.773  -3.807  18.360  0.00  0.00    +0.292 HD
ENDBRANCH  15  19
ENDBRANCH   2  11
TORSDOF 5
ENDMDL
MODEL 6
REMARK VINA RESULT:      -8.1      1.775      7.781
REMARK  Name = 
REMARK                            x       y       z     vdW  Elec       q    Type
REMARK                         _______ _______ _______ _____ _____    ______ ____
ROOT
ATOM      1  C   LIG    1       42.179  -2.607  16.478  0.00  0.00    +0.008 C 
ATOM      2  C   LIG    1       41.637  -1.622  17.213  0.00  0.00    +0.009 C 
ENDROOT
BRANCH   1   6
ATOM      3  C   LIG    1       45.832  -4.618  17.473  0.00  0.00    +0.117 A 
ATOM      4  C   LIG    1       45.006  -5.171  16.505  0.00  0.00    +0.046 A 
ATOM      5  C   LIG    1       43.815  -4.528  16.153  0.00  0.00    +0.011 A 
ATOM      6  C   LIG    1       43.440  -3.324  16.767  0.00  0.00    -0.025 A 
ATOM      7  C   LIG    1       44.303  -2.778  17.734  0.00  0.00    +0.011 A 
ATOM      8  C   LIG    1       45.494  -3.421  18.089  0.00  0.00    +0.046 A 
BRANCH   3   9
ATOM      9  O   LIG    1       46.973  -5.289  17.796  0.00  0.00    -0.507 OA
ATOM     10  H   LIG    1       47.432  -5.532  16.976  0.00  0.00    +0.292 HD
ENDBRANCH   3   9
ENDBRANCH   1   6
BRANCH   2  11
ATOM     11  C   LIG    1       40.403  -0.869  16.896  0.00  0.00    -0.018 A 
ATOM     12  C   LIG    1       40.272   0.430  17.412  0.00  0.00    +0.053 A 
ATOM     13  C   LIG    1       39.143   1.199  17.128  0.00  0.00    +0.121 A 
ATOM     14  C   LIG    1       38.122   0.700  16.332  0.00  0.00    +0.090 A 
ATOM     15  C   LIG    1       38.243  -0.586  15.823  0.00  0.00    +0.121 A 
ATOM     16  C   LIG    1       39.365  -1.373  16.096  0.00  0.00    +0.053 A 
BRANCH  13  17
ATOM     17  O   LIG    1       39.083   2.456  17.655  0.00  0.00    -0.507 OA
ATOM     18  H   LIG    1       39.335   2.409  18.592  0.00  0.00    +0.292 HD
ENDBRANCH  13  17
BRANCH  15  19
ATOM     19  O   LIG    1       37.224  -1.052  15.042  0.00  0.00    -0.507 OA
ATOM     20  H   LIG    1       36.630  -1.590  15.591  0.00  0.00    +0.292 HD
ENDBRANCH  15  19
ENDBRANCH   2  11
TORSDOF 5
ENDMDL
MODEL 7
REMARK VINA RESULT:      -8.1      1.933      2.684
REMARK  Name = 
REMARK                            x       y       z     vdW  Elec       q    Type
REMARK                         _______ _______ _______ _____ _____    ______ ____
ROOT
ATOM      1  C   LIG    1       41.279  -2.174  16.479  0.00  0.00    +0.008 C 
ATOM      2  C   LIG    1       42.475  -2.093  17.087  0.00  0.00    +0.009 C 
ENDROOT
BRANCH   1   6
ATOM      3  C   LIG    1       37.983   0.551  16.767  0.00  0.00    +0.117 A 
ATOM      4  C   LIG    1       39.236   0.971  17.189  0.00  0.00    +0.046 A 
ATOM      5  C   LIG    1       40.330   0.105  17.094  0.00  0.00    +0.011 A 
ATOM      6  C   LIG    1       40.179  -1.189  16.574  0.00  0.00    -0.025 A 
ATOM      7  C   LIG    1       38.901  -1.582  16.141  0.00  0.00    +0.011 A 
ATOM      8  C   LIG    1       37.805  -0.719  16.237  0.00  0.00    +0.046 A 
BRANCH   3   9
ATOM      9  O   LIG    1       36.942   1.422  16.896  0.00  0.00    -0.507 OA
ATOM     10  H   LIG    1       36.458   1.209  17.709  0.00  0.00    +0.292 HD
ENDBRANCH   3   9
ENDBRANCH   1   6
BRANCH   2  11
ATOM     11  C   LIG    1       43.555  -3.103  17.034  0.00  0.00    -0.018 A 
ATOM     12  C   LIG    1       44.642  -2.952  17.910  0.00  0.00    +0.053 A 
ATOM     13  C   LIG    1       45.679  -3.884  17.925  0.00  0.00    +0.121 A 
ATOM     14  C   LIG    1       45.665  -4.980  17.076  0.00  0.00    +0.090 A 
ATOM     15  C   LIG    1       44.595  -5.133  16.204  0.00  0.00    +0.121 A 
ATOM     16  C   LIG    1       43.547  -4.211  16.173  0.00  0.00    +0.053 A 
BRANCH  13  17
ATOM     17  O   LIG    1       46.702  -3.681  18.805  0.00  0.00    -0.507 OA
ATOM     18  H   LIG    1       47.542  -3.765  18.325  0.00  0.00    +0.292 HD
ENDBRANCH  13  17
BRANCH  15  19
ATOM     19  O   LIG    1       44.605  -6.223  15.380  0.00  0.00    -0.507 OA
ATOM     20  H   LIG    1       45.172  -6.031  14.614  0.00  0.00    +0.292 HD
ENDBRANCH  15  19
ENDBRANCH   2  11
TORSDOF 5
ENDMDL
MODEL 8
REMARK VINA RESULT:      -8.1      1.623      7.717
REMARK  Name = 
REMARK                            x       y       z     vdW  Elec       q    Type
REMARK                         _______ _______ _______ _____ _____    ______ ____
ROOT
ATOM      1  C   LIG    1       42.939  -2.408  16.934  0.00  0.00    +0.008 C 
ATOM      2  C   LIG    1       41.870  -2.846  16.246  0.00  0.00    +0.009 C 
ENDROOT
BRANCH   1   6
ATOM      3  C   LIG    1       46.444  -4.741  17.734  0.00  0.00    +0.117 A 
ATOM      4  C   LIG    1       46.247  -3.565  18.444  0.00  0.00    +0.046 A 
ATOM      5  C   LIG    1       45.105  -2.793  18.210  0.00  0.00    +0.011 A 
ATOM      6  C   LIG    1       44.149  -3.191  17.264  0.00  0.00    -0.025 A 
ATOM      7  C   LIG    1       44.367  -4.394  16.571  0.00  0.00    +0.011 A 
ATOM      8  C   LIG    1       45.510  -5.168  16.801  0.00  0.00    +0.046 A 
BRANCH   3   9
ATOM      9  O   LIG    1       47.580  -5.452  17.982  0.00  0.00    -0.507 OA
ATOM     10  H   LIG    1       47.379  -6.398  17.895  0.00  0.00    +0.292 HD
ENDBRANCH   3   9
ENDBRANCH   1   6
BRANCH   2  11
ATOM     11  C   LIG    1       40.637  -2.079  15.960  0.00  0.00    -0.018 A 
ATOM     12  C   LIG    1       39.898  -2.421  14.816  0.00  0.00    +0.053 A 
ATOM     13  C   LIG    1       38.714  -1.752  14.507  0.00  0.00    +0.121 A 
ATOM     14  C   LIG    1       38.239  -0.732  15.318  0.00  0.00    +0.090 A 
ATOM     15  C   LIG    1       38.967  -0.386  16.448  0.00  0.00    +0.121 A 
ATOM     16  C   LIG    1       40.156  -1.043  16.775  0.00  0.00    +0.053 A 
BRANCH  13  17
ATOM     17  O   LIG    1       38.041  -2.139  13.385  0.00  0.00    -0.507 OA
ATOM     18  H   LIG    1       37.139  -2.395  13.640  0.00  0.00    +0.292 HD
ENDBRANCH  13  17
BRANCH  15  19
ATOM     19  O   LIG    1       38.475   0.621  17.230  0.00  0.00    -0.507 OA
ATOM     20  H   LIG    1       38.201   1.356  16.657  0.00  0.00    +0.292 HD
ENDBRANCH  15  19
ENDBRANCH   2  11
TORSDOF 5
ENDMDL
MODEL 9
REMARK VINA RESULT:      -8.0      2.062      2.735
REMARK  Name = 
REMARK                            x       y       z     vdW  Elec       q    Type
REMARK                         _______ _______ _______ _____ _____    ______ ____
ROOT
ATOM      1  C   LIG    1       42.250  -2.326  16.118  0.00  0.00    +0.008 C 
ATOM      2  C   LIG    1       43.226  -3.249  16.069  0.00  0.00    +0.009 C 
ENDROOT
BRANCH   1   6
ATOM      3  C   LIG    1       39.026  -1.831  13.337  0.00  0.00    +0.117 A 
ATOM      4  C   LIG    1       40.135  -1.004  13.229  0.00  0.00    +0.046 A 
ATOM      5  C   LIG    1       41.206  -1.155  14.116  0.00  0.00    +0.011 A 
ATOM      6  C   LIG    1       41.176  -2.134  15.119  0.00  0.00    -0.025 A 
ATOM      7  C   LIG    1       40.046  -2.967  15.196  0.00  0.00    +0.011 A 
ATOM      8  C   LIG    1       38.973  -2.817  14.311  0.00  0.00    +0.046 A 
BRANCH   3   9
ATOM      9  O   LIG    1       37.999  -1.636  12.462  0.00  0.00    -0.507 OA
ATOM     10  H   LIG    1       37.171  -1.575  12.965  0.00  0.00    +0.292 HD
ENDBRANCH   3   9
ENDBRANCH   1   6
BRANCH   2  11
ATOM     11  C   LIG    1       44.331  -3.407  17.041  0.00  0.00    -0.018 A 
ATOM     12  C   LIG    1       44.343  -2.571  18.169  0.00  0.00    +0.053 A 
ATOM     13  C   LIG    1       45.344  -2.688  19.132  0.00  0.00    +0.121 A 
ATOM     14  C   LIG    1       46.353  -3.631  19.000  0.00  0.00    +0.090 A 
ATOM     15  C   LIG    1       46.350  -4.458  17.885  0.00  0.00    +0.121 A 
ATOM     16  C   LIG    1       45.357  -4.356  16.908  0.00  0.00    +0.053 A 
BRANCH  13  17
ATOM     17  O   LIG    1       45.292  -1.849  20.207  0.00  0.00    -0.507 OA
ATOM     18  H   LIG    1       44.828  -2.304  20.929  0.00  0.00    +0.292 HD
ENDBRANCH  13  17
BRANCH  15  19
ATOM     19  O   LIG    1       47.355  -5.379  17.782  0.00  0.00    -0.507 OA
ATOM     20  H   LIG    1       47.727  -5.535  18.665  0.00  0.00    +0.292 HD
ENDBRANCH  15  19
ENDBRANCH   2  11
TORSDOF 5
ENDMDL
