MODEL 1
REMARK VINA RESULT:      -7.4      0.000      0.000
REMARK  Name = 
REMARK                            x       y       z     vdW  Elec       q    Type
REMARK                         _______ _______ _______ _____ _____    ______ ____
ROOT
ATOM      1  C   LIG    1       20.028  30.105   8.964  0.00  0.00    +0.008 C 
ATOM      2  C   LIG    1       18.722  29.821   8.824  0.00  0.00    +0.009 C 
ENDROOT
BRANCH   1   6
ATOM      3  C   LIG    1       23.212  27.719   7.370  0.00  0.00    +0.117 A 
ATOM      4  C   LIG    1       23.099  29.040   6.963  0.00  0.00    +0.046 A 
ATOM      5  C   LIG    1       22.076  29.843   7.478  0.00  0.00    +0.011 A 
ATOM      6  C   LIG    1       21.158  29.330   8.406  0.00  0.00    -0.025 A 
ATOM      7  C   LIG    1       21.306  27.993   8.812  0.00  0.00    +0.011 A 
ATOM      8  C   LIG    1       22.327  27.187   8.297  0.00  0.00    +0.046 A 
BRANCH   3   9
ATOM      9  O   LIG    1       24.213  26.969   6.829  0.00  0.00    -0.507 OA
ATOM     10  H   LIG    1       24.410  26.233   7.431  0.00  0.00    +0.292 HD
ENDBRANCH   3   9
ENDBRANCH   1   6
BRANCH   2  11
ATOM     11  C   LIG    1       17.593  30.565   9.425  0.00  0.00    -0.018 A 
ATOM     12  C   LIG    1       17.705  30.960  10.768  0.00  0.00    +0.053 A 
ATOM     13  C   LIG    1       16.685  31.686  11.384  0.00  0.00    +0.121 A 
ATOM     14  C   LIG    1       15.537  32.034  10.688  0.00  0.00    +0.090 A 
ATOM     15  C   LIG    1       15.418  31.642   9.361  0.00  0.00    +0.121 A 
ATOM     16  C   LIG    1       16.427  30.914   8.726  0.00  0.00    +0.053 A 
BRANCH  13  17
ATOM     17  O   LIG    1       16.861  32.044  12.689  0.00  0.00    -0.507 OA
ATOM     18  H   LIG    1       17.008  33.004  12.727  0.00  0.00    +0.292 HD
ENDBRANCH  13  17
BRANCH  15  19
ATOM     19  O   LIG    1       14.278  31.999   8.699  0.00  0.00    -0.507 OA
ATOM     20  H   LIG    1       14.521  32.533   7.924  0.00  0.00    +0.292 HD
ENDBRANCH  15  19
ENDBRANCH   2  11
TORSDOF 5
ENDMDL
MODEL 2
REMARK VINA RESULT:      -7.2      0.210      2.002
REMARK  Name = 
REMARK                            x       y       z     vdW  Elec       q    Type
REMARK                         _______ _______ _______ _____ _____    ______ ____
ROOT
ATOM      1  C   LIG    1       20.106  30.210   8.857  0.00  0.00    +0.008 C 
ATOM      2  C   LIG    1       18.823  29.817   8.939  0.00  0.00    +0.009 C 
ENDROOT
BRANCH   1   6
ATOM      3  C   LIG    1       23.263  27.800   7.244  0.00  0.00    +0.117 A 
ATOM      4  C   LIG    1       23.178  29.133   6.865  0.00  0.00    +0.046 A 
ATOM      5  C   LIG    1       22.164  29.943   7.387  0.00  0.00    +0.011 A 
ATOM      6  C   LIG    1       21.228  29.427   8.294  0.00  0.00    -0.025 A 
ATOM      7  C   LIG    1       21.347  28.078   8.673  0.00  0.00    +0.011 A 
ATOM      8  C   LIG    1       22.359  27.265   8.150  0.00  0.00    +0.046 A 
BRANCH   3   9
ATOM      9  O   LIG    1       24.256  27.044   6.697  0.00  0.00    -0.507 OA
ATOM     10  H   LIG    1       23.869  26.471   6.015  0.00  0.00    +0.292 HD
ENDBRANCH   3   9
ENDBRANCH   1   6
BRANCH   2  11
ATOM     11  C   LIG    1       17.711  30.579   9.549  0.00  0.00    -0.018 A 
ATOM     12  C   LIG    1       16.541  30.757   8.793  0.00  0.00    +0.053 A 
ATOM     13  C   LIG    1       15.449  31.444   9.322  0.00  0.00    +0.121 A 
ATOM     14  C   LIG    1       15.491  31.971  10.605  0.00  0.00    +0.090 A 
ATOM     15  C   LIG    1       16.647  31.803  11.356  0.00  0.00    +0.121 A 
ATOM     16  C   LIG    1       17.752  31.118  10.844  0.00  0.00    +0.053 A 
BRANCH  13  17
ATOM     17  O   LIG    1       14.340  31.575   8.537  0.00  0.00    -0.507 OA
ATOM     18  H   LIG    1       13.832  32.342   8.848  0.00  0.00    +0.292 HD
ENDBRANCH  13  17
BRANCH  15  19
ATOM     19  O   LIG    1       16.661  32.330  12.616  0.00  0.00    -0.507 OA
ATOM     20  H   LIG    1       15.782  32.696  12.811  0.00  0.00    +0.292 HD
ENDBRANCH  15  19
ENDBRANCH   2  11
TORSDOF 5
ENDMDL
MODEL 3
REMARK VINA RESULT:      -6.4      1.477      2.839
REMARK  Name = 
REMARK                            x       y       z     vdW  Elec       q    Type
REMARK                         _______ _______ _______ _____ _____    ______ ____
ROOT
ATOM      1  C   LIG    1       20.823  29.936   9.215  0.00  0.00    +0.008 C 
ATOM      2  C   LIG    1       19.494  30.138   9.244  0.00  0.00    +0.009 C 
ENDROOT
BRANCH   1   6
ATOM      3  C   LIG    1       23.182  28.644   5.878  0.00  0.00    +0.117 A 
ATOM      4  C   LIG    1       22.691  27.691   6.758  0.00  0.00    +0.046 A 
ATOM      5  C   LIG    1       21.908  28.086   7.848  0.00  0.00    +0.011 A 
ATOM      6  C   LIG    1       21.609  29.439   8.065  0.00  0.00    -0.025 A 
ATOM      7  C   LIG    1       22.107  30.381   7.149  0.00  0.00    +0.011 A 
ATOM      8  C   LIG    1       22.893  29.989   6.059  0.00  0.00    +0.046 A 
BRANCH   3   9
ATOM      9  O   LIG    1       23.955  28.215   4.840  0.00  0.00    -0.507 OA
ATOM     10  H   LIG    1       24.557  27.527   5.167  0.00  0.00    +0.292 HD
ENDBRANCH   3   9
ENDBRANCH   1   6
BRANCH   2  11
ATOM     11  C   LIG    1       18.701  30.585  10.410  0.00  0.00    -0.018 A 
ATOM     12  C   LIG    1       17.587  31.407  10.173  0.00  0.00    +0.053 A 
ATOM     13  C   LIG    1       16.786  31.842  11.228  0.00  0.00    +0.121 A 
ATOM     14  C   LIG    1       17.068  31.475  12.536  0.00  0.00    +0.090 A 
ATOM     15  C   LIG    1       18.171  30.667  12.777  0.00  0.00    +0.121 A 
ATOM     16  C   LIG    1       18.987  30.221  11.735  0.00  0.00    +0.053 A 
BRANCH  13  17
ATOM     17  O   LIG    1       15.715  32.632  10.928  0.00  0.00    -0.507 OA
ATOM     18  H   LIG    1       15.137  32.147  10.316  0.00  0.00    +0.292 HD
ENDBRANCH  13  17
BRANCH  15  19
ATOM     19  O   LIG    1       18.425  30.319  14.074  0.00  0.00    -0.507 OA
ATOM     20  H   LIG    1       19.357  30.509  14.272  0.00  0.00    +0.292 HD
ENDBRANCH  15  19
ENDBRANCH   2  11
TORSDOF 5
ENDMDL
MODEL 4
REMARK VINA RESULT:      -6.3      4.325      7.200
REMARK  Name = 
REMARK                            x       y       z     vdW  Elec       q    Type
REMARK                         _______ _______ _______ _____ _____    ______ ____
ROOT
ATOM      1  C   LIG    1       17.967  30.577  11.308  0.00  0.00    +0.008 C 
ATOM      2  C   LIG    1       17.930  30.590  12.651  0.00  0.00    +0.009 C 
ENDROOT
BRANCH   1   6
ATOM      3  C   LIG    1       14.797  31.945   8.768  0.00  0.00    +0.117 A 
ATOM      4  C   LIG    1       15.796  31.151   8.222  0.00  0.00    +0.046 A 
ATOM      5  C   LIG    1       16.834  30.681   9.033  0.00  0.00    +0.011 A 
ATOM      6  C   LIG    1       16.881  31.002  10.397  0.00  0.00    -0.025 A 
ATOM      7  C   LIG    1       15.849  31.795  10.926  0.00  0.00    +0.011 A 
ATOM      8  C   LIG    1       14.810  32.268  10.117  0.00  0.00    +0.046 A 
BRANCH   3   9
ATOM      9  O   LIG    1       13.815  32.394   7.936  0.00  0.00    -0.507 OA
ATOM     10  H   LIG    1       13.902  31.943   7.081  0.00  0.00    +0.292 HD
ENDBRANCH   3   9
ENDBRANCH   1   6
BRANCH   2  11
ATOM     11  C   LIG    1       18.996  30.116  13.562  0.00  0.00    -0.018 A 
ATOM     12  C   LIG    1       20.331  30.354  13.196  0.00  0.00    +0.053 A 
ATOM     13  C   LIG    1       21.379  29.954  14.023  0.00  0.00    +0.121 A 
ATOM     14  C   LIG    1       21.131  29.309  15.226  0.00  0.00    +0.090 A 
ATOM     15  C   LIG    1       19.814  29.066  15.592  0.00  0.00    +0.121 A 
ATOM     16  C   LIG    1       18.749  29.459  14.777  0.00  0.00    +0.053 A 
BRANCH  13  17
ATOM     17  O   LIG    1       22.651  30.223  13.611  0.00  0.00    -0.507 OA
ATOM     18  H   LIG    1       23.068  30.810  14.264  0.00  0.00    +0.292 HD
ENDBRANCH  13  17
BRANCH  15  19
ATOM     19  O   LIG    1       19.598  28.431  16.783  0.00  0.00    -0.507 OA
ATOM     20  H   LIG    1       18.747  28.729  17.146  0.00  0.00    +0.292 HD
ENDBRANCH  15  19
ENDBRANCH   2  11
TORSDOF 5
ENDMDL
MODEL 5
REMARK VINA RESULT:      -6.3      3.731      3.932
REMARK  Name = 
REMARK                            x       y       z     vdW  Elec       q    Type
REMARK                         _______ _______ _______ _____ _____    ______ ____
ROOT
ATOM      1  C   LIG    1       20.813  28.541   9.428  0.00  0.00    +0.008 C 
ATOM      2  C   LIG    1       20.837  29.259  10.564  0.00  0.00    +0.009 C 
ENDROOT
BRANCH   1   6
ATOM      3  C   LIG    1       22.868  29.294   5.743  0.00  0.00    +0.117 A 
ATOM      4  C   LIG    1       22.498  30.372   6.535  0.00  0.00    +0.046 A 
ATOM      5  C   LIG    1       21.838  30.152   7.748  0.00  0.00    +0.011 A 
ATOM      6  C   LIG    1       21.543  28.850   8.180  0.00  0.00    -0.025 A 
ATOM      7  C   LIG    1       21.943  27.777   7.365  0.00  0.00    +0.011 A 
ATOM      8  C   LIG    1       22.602  27.995   6.150  0.00  0.00    +0.046 A 
BRANCH   3   9
ATOM      9  O   LIG    1       23.494  29.557   4.561  0.00  0.00    -0.507 OA
ATOM     10  H   LIG    1       24.332  29.067   4.538  0.00  0.00    +0.292 HD
ENDBRANCH   3   9
ENDBRANCH   1   6
BRANCH   2  11
ATOM     11  C   LIG    1       20.067  28.978  11.796  0.00  0.00    -0.018 A 
ATOM     12  C   LIG    1       20.099  29.932  12.826  0.00  0.00    +0.053 A 
ATOM     13  C   LIG    1       19.374  29.736  14.001  0.00  0.00    +0.121 A 
ATOM     14  C   LIG    1       18.606  28.595  14.183  0.00  0.00    +0.090 A 
ATOM     15  C   LIG    1       18.574  27.646  13.171  0.00  0.00    +0.121 A 
ATOM     16  C   LIG    1       19.293  27.823  11.986  0.00  0.00    +0.053 A 
BRANCH  13  17
ATOM     17  O   LIG    1       19.444  30.705  14.959  0.00  0.00    -0.507 OA
ATOM     18  H   LIG    1       18.785  31.389  14.752  0.00  0.00    +0.292 HD
ENDBRANCH  13  17
BRANCH  15  19
ATOM     19  O   LIG    1       17.808  26.533  13.375  0.00  0.00    -0.507 OA
ATOM     20  H   LIG    1       16.929  26.811  13.684  0.00  0.00    +0.292 HD
ENDBRANCH  15  19
ENDBRANCH   2  11
TORSDOF 5
ENDMDL
MODEL 6
REMARK VINA RESULT:      -6.3      3.563      4.175
REMARK  Name = 
REMARK                            x       y       z     vdW  Elec       q    Type
REMARK                         _______ _______ _______ _____ _____    ______ ____
ROOT
ATOM      1  C   LIG    1       20.966  28.566   9.534  0.00  0.00    +0.008 C 
ATOM      2  C   LIG    1       20.560  29.523  10.387  0.00  0.00    +0.009 C 
ENDROOT
BRANCH   1   6
ATOM      3  C   LIG    1       22.816  29.333   5.745  0.00  0.00    +0.117 A 
ATOM      4  C   LIG    1       22.601  28.017   6.130  0.00  0.00    +0.046 A 
ATOM      5  C   LIG    1       21.987  27.741   7.356  0.00  0.00    +0.011 A 
ATOM      6  C   LIG    1       21.583  28.780   8.207  0.00  0.00    -0.025 A 
ATOM      7  C   LIG    1       21.800  30.103   7.785  0.00  0.00    +0.011 A 
ATOM      8  C   LIG    1       22.416  30.382   6.560  0.00  0.00    +0.046 A 
BRANCH   3   9
ATOM      9  O   LIG    1       23.434  29.554   4.550  0.00  0.00    -0.507 OA
ATOM     10  H   LIG    1       24.230  29.001   4.505  0.00  0.00    +0.292 HD
ENDBRANCH   3   9
ENDBRANCH   1   6
BRANCH   2  11
ATOM     11  C   LIG    1       19.895  29.309  11.691  0.00  0.00    -0.018 A 
ATOM     12  C   LIG    1       19.164  28.124  11.873  0.00  0.00    +0.053 A 
ATOM     13  C   LIG    1       18.536  27.854  13.088  0.00  0.00    +0.121 A 
ATOM     14  C   LIG    1       18.613  28.749  14.145  0.00  0.00    +0.090 A 
ATOM     15  C   LIG    1       19.329  29.925  13.970  0.00  0.00    +0.121 A 
ATOM     16  C   LIG    1       19.966  30.215  12.761  0.00  0.00    +0.053 A 
BRANCH  13  17
ATOM     17  O   LIG    1       17.849  26.680  13.200  0.00  0.00    -0.507 OA
ATOM     18  H   LIG    1       17.673  26.341  12.307  0.00  0.00    +0.292 HD
ENDBRANCH  13  17
BRANCH  15  19
ATOM     19  O   LIG    1       19.391  30.788  15.028  0.00  0.00    -0.507 OA
ATOM     20  H   LIG    1       18.850  30.432  15.753  0.00  0.00    +0.292 HD
ENDBRANCH  15  19
ENDBRANCH   2  11
TORSDOF 5
ENDMDL
MODEL 7
REMARK VINA RESULT:      -6.3      2.881      3.739
REMARK  Name = 
REMARK                            x       y       z     vdW  Elec       q    Type
REMARK                         _______ _______ _______ _____ _____    ______ ____
ROOT
ATOM      1  C   LIG    1       20.770  29.690   9.576  0.00  0.00    +0.008 C 
ATOM      2  C   LIG    1       20.805  28.912  10.671  0.00  0.00    +0.009 C 
ENDROOT
BRANCH   1   6
ATOM      3  C   LIG    1       22.688  28.804   5.847  0.00  0.00    +0.117 A 
ATOM      4  C   LIG    1       22.602  30.127   6.257  0.00  0.00    +0.046 A 
ATOM      5  C   LIG    1       21.992  30.441   7.476  0.00  0.00    +0.011 A 
ATOM      6  C   LIG    1       21.464  29.433   8.295  0.00  0.00    -0.025 A 
ATOM      7  C   LIG    1       21.578  28.101   7.862  0.00  0.00    +0.011 A 
ATOM      8  C   LIG    1       22.186  27.784   6.643  0.00  0.00    +0.046 A 
BRANCH   3   9
ATOM      9  O   LIG    1       23.275  28.547   4.644  0.00  0.00    -0.507 OA
ATOM     10  H   LIG    1       22.620  28.691   3.942  0.00  0.00    +0.292 HD
ENDBRANCH   3   9
ENDBRANCH   1   6
BRANCH   2  11
ATOM     11  C   LIG    1       20.154  29.195  11.970  0.00  0.00    -0.018 A 
ATOM     12  C   LIG    1       20.900  28.988  13.141  0.00  0.00    +0.053 A 
ATOM     13  C   LIG    1       20.351  29.260  14.393  0.00  0.00    +0.121 A 
ATOM     14  C   LIG    1       19.055  29.739  14.514  0.00  0.00    +0.090 A 
ATOM     15  C   LIG    1       18.309  29.941  13.360  0.00  0.00    +0.121 A 
ATOM     16  C   LIG    1       18.841  29.675  12.096  0.00  0.00    +0.053 A 
BRANCH  13  17
ATOM     17  O   LIG    1       21.133  29.044  15.490  0.00  0.00    -0.507 OA
ATOM     18  H   LIG    1       21.690  29.827  15.629  0.00  0.00    +0.292 HD
ENDBRANCH  13  17
BRANCH  15  19
ATOM     19  O   LIG    1       17.036  30.416  13.508  0.00  0.00    -0.507 OA
ATOM     20  H   LIG    1       16.471  29.697  13.837  0.00  0.00    +0.292 HD
ENDBRANCH  15  19
ENDBRANCH   2  11
TORSDOF 5
ENDMDL
MODEL 8
REMARK VINA RESULT:      -6.1      2.088      7.478
REMARK  Name = 
REMARK                            x       y       z     vdW  Elec       q    Type
REMARK                         _______ _______ _______ _____ _____    ______ ____
ROOT
ATOM      1  C   LIG    1       20.883  29.306   8.955  0.00  0.00    +0.008 C 
ATOM      2  C   LIG    1       21.549  30.069   8.072  0.00  0.00    +0.009 C 
ENDROOT
BRANCH   1   6
ATOM      3  C   LIG    1       18.499  30.722  12.224  0.00  0.00    +0.117 A 
ATOM      4  C   LIG    1       18.052  30.936  10.928  0.00  0.00    +0.046 A 
ATOM      5  C   LIG    1       18.805  30.473   9.845  0.00  0.00    +0.011 A 
ATOM      6  C   LIG    1       20.013  29.790  10.049  0.00  0.00    -0.025 A 
ATOM      7  C   LIG    1       20.434  29.573  11.373  0.00  0.00    +0.011 A 
ATOM      8  C   LIG    1       19.683  30.037  12.458  0.00  0.00    +0.046 A 
BRANCH   3   9
ATOM      9  O   LIG    1       17.741  31.206  13.248  0.00  0.00    -0.507 OA
ATOM     10  H   LIG    1       18.093  30.861  14.085  0.00  0.00    +0.292 HD
ENDBRANCH   3   9
ENDBRANCH   1   6
BRANCH   2  11
ATOM     11  C   LIG    1       22.461  29.587   7.010  0.00  0.00    -0.018 A 
ATOM     12  C   LIG    1       23.091  28.346   7.195  0.00  0.00    +0.053 A 
ATOM     13  C   LIG    1       23.942  27.827   6.220  0.00  0.00    +0.121 A 
ATOM     14  C   LIG    1       24.189  28.522   5.046  0.00  0.00    +0.090 A 
ATOM     15  C   LIG    1       23.573  29.752   4.858  0.00  0.00    +0.121 A 
ATOM     16  C   LIG    1       22.717  30.290   5.823  0.00  0.00    +0.053 A 
BRANCH  13  17
ATOM     17  O   LIG    1       24.516  26.612   6.460  0.00  0.00    -0.507 OA
ATOM     18  H   LIG    1       25.022  26.351   5.673  0.00  0.00    +0.292 HD
ENDBRANCH  13  17
BRANCH  15  19
ATOM     19  O   LIG    1       23.832  30.415   3.692  0.00  0.00    -0.507 OA
ATOM     20  H   LIG    1       24.636  30.948   3.808  0.00  0.00    +0.292 HD
ENDBRANCH  15  19
ENDBRANCH   2  11
TORSDOF 5
ENDMDL
MODEL 9
REMARK VINA RESULT:      -6.0      1.929      7.731
REMARK  Name = 
REMARK                            x       y       z     vdW  Elec       q    Type
REMARK                         _______ _______ _______ _____ _____    ______ ____
ROOT
ATOM      1  C   LIG    1       20.919  29.213   8.924  0.00  0.00    +0.008 C 
ATOM      2  C   LIG    1       21.625  29.921   8.026  0.00  0.00    +0.009 C 
ENDROOT
BRANCH   1   6
ATOM      3  C   LIG    1       18.241  30.798  11.872  0.00  0.00    +0.117 A 
ATOM      4  C   LIG    1       19.373  30.116  12.295  0.00  0.00    +0.046 A 
ATOM      5  C   LIG    1       20.269  29.600  11.352  0.00  0.00    +0.011 A 
ATOM      6  C   LIG    1       20.040  29.764   9.979  0.00  0.00    -0.025 A 
ATOM      7  C   LIG    1       18.894  30.473   9.579  0.00  0.00    +0.011 A 
ATOM      8  C   LIG    1       17.995  30.988  10.520  0.00  0.00    +0.046 A 
BRANCH   3   9
ATOM      9  O   LIG    1       17.387  31.268  12.825  0.00  0.00    -0.507 OA
ATOM     10  H   LIG    1       17.564  30.801  13.657  0.00  0.00    +0.292 HD
ENDBRANCH   3   9
ENDBRANCH   1   6
BRANCH   2  11
ATOM     11  C   LIG    1       22.545  29.373   7.005  0.00  0.00    -0.018 A 
ATOM     12  C   LIG    1       22.764  30.127   5.841  0.00  0.00    +0.053 A 
ATOM     13  C   LIG    1       23.638  29.676   4.853  0.00  0.00    +0.121 A 
ATOM     14  C   LIG    1       24.312  28.471   4.994  0.00  0.00    +0.090 A 
ATOM     15  C   LIG    1       24.096  27.718   6.140  0.00  0.00    +0.121 A 
ATOM     16  C   LIG    1       23.224  28.152   7.141  0.00  0.00    +0.053 A 
BRANCH  13  17
ATOM     17  O   LIG    1       23.811  30.461   3.751  0.00  0.00    -0.507 OA
ATOM     18  H   LIG    1       22.949  30.835   3.502  0.00  0.00    +0.292 HD
ENDBRANCH  13  17
BRANCH  15  19
ATOM     19  O   LIG    1       24.774  26.537   6.253  0.00  0.00    -0.507 OA
ATOM     20  H   LIG    1       24.662  26.032   5.431  0.00  0.00    +0.292 HD
ENDBRANCH  15  19
ENDBRANCH   2  11
TORSDOF 5
ENDMDL
