MODEL 1
REMARK VINA RESULT:      -8.2      0.000      0.000
REMARK  Name = 
REMARK                            x       y       z     vdW  Elec       q    Type
REMARK                         _______ _______ _______ _____ _____    ______ ____
ROOT
ATOM      1  C   LIG    1       30.078  -0.727  27.670  0.00  0.00    +0.008 C 
ATOM      2  C   LIG    1       30.949  -0.368  28.629  0.00  0.00    +0.009 C 
ENDROOT
BRANCH   1   6
ATOM      3  C   LIG    1       26.404  -2.883  28.144  0.00  0.00    +0.117 A 
ATOM      4  C   LIG    1       27.594  -3.594  28.090  0.00  0.00    +0.046 A 
ATOM      5  C   LIG    1       28.808  -2.912  27.949  0.00  0.00    +0.011 A 
ATOM      6  C   LIG    1       28.840  -1.513  27.861  0.00  0.00    -0.025 A 
ATOM      7  C   LIG    1       27.621  -0.818  27.932  0.00  0.00    +0.011 A 
ATOM      8  C   LIG    1       26.405  -1.497  28.072  0.00  0.00    +0.046 A 
BRANCH   3   9
ATOM      9  O   LIG    1       25.245  -3.589  28.264  0.00  0.00    -0.507 OA
ATOM     10  H   LIG    1       24.630  -3.084  28.821  0.00  0.00    +0.292 HD
ENDBRANCH   3   9
ENDBRANCH   1   6
BRANCH   2  11
ATOM     11  C   LIG    1       32.214   0.374  28.431  0.00  0.00    -0.018 A 
ATOM     12  C   LIG    1       32.435   0.979  27.184  0.00  0.00    +0.053 A 
ATOM     13  C   LIG    1       33.597   1.712  26.944  0.00  0.00    +0.121 A 
ATOM     14  C   LIG    1       34.563   1.860  27.929  0.00  0.00    +0.090 A 
ATOM     15  C   LIG    1       34.353   1.259  29.163  0.00  0.00    +0.121 A 
ATOM     16  C   LIG    1       33.197   0.520  29.423  0.00  0.00    +0.053 A 
BRANCH  13  17
ATOM     17  O   LIG    1       33.746   2.281  25.713  0.00  0.00    -0.507 OA
ATOM     18  H   LIG    1       33.250   1.751  25.067  0.00  0.00    +0.292 HD
ENDBRANCH  13  17
BRANCH  15  19
ATOM     19  O   LIG    1       35.320   1.422  30.115  0.00  0.00    -0.507 OA
ATOM     20  H   LIG    1       36.183   1.210  29.723  0.00  0.00    +0.292 HD
ENDBRANCH  15  19
ENDBRANCH   2  11
TORSDOF 5
ENDMDL
MODEL 2
REMARK VINA RESULT:      -8.0      0.189      2.009
REMARK  Name = 
REMARK                            x       y       z     vdW  Elec       q    Type
REMARK                         _______ _______ _______ _____ _____    ______ ____
ROOT
ATOM      1  C   LIG    1       29.899  -0.621  27.562  0.00  0.00    +0.008 C 
ATOM      2  C   LIG    1       30.902  -0.393  28.427  0.00  0.00    +0.009 C 
ENDROOT
BRANCH   1   6
ATOM      3  C   LIG    1       26.350  -2.942  28.188  0.00  0.00    +0.117 A 
ATOM      4  C   LIG    1       27.570  -3.598  28.090  0.00  0.00    +0.046 A 
ATOM      5  C   LIG    1       28.743  -2.862  27.898  0.00  0.00    +0.011 A 
ATOM      6  C   LIG    1       28.707  -1.463  27.804  0.00  0.00    -0.025 A 
ATOM      7  C   LIG    1       27.461  -0.825  27.922  0.00  0.00    +0.011 A 
ATOM      8  C   LIG    1       26.284  -1.559  28.111  0.00  0.00    +0.046 A 
BRANCH   3   9
ATOM      9  O   LIG    1       25.231  -3.701  28.356  0.00  0.00    -0.507 OA
ATOM     10  H   LIG    1       24.608  -3.214  28.919  0.00  0.00    +0.292 HD
ENDBRANCH   3   9
ENDBRANCH   1   6
BRANCH   2  11
ATOM     11  C   LIG    1       32.120   0.407  28.167  0.00  0.00    -0.018 A 
ATOM     12  C   LIG    1       33.074   0.507  29.192  0.00  0.00    +0.053 A 
ATOM     13  C   LIG    1       34.253   1.226  28.999  0.00  0.00    +0.121 A 
ATOM     14  C   LIG    1       34.512   1.861  27.793  0.00  0.00    +0.090 A 
ATOM     15  C   LIG    1       33.570   1.770  26.777  0.00  0.00    +0.121 A 
ATOM     16  C   LIG    1       32.382   1.055  26.950  0.00  0.00    +0.053 A 
BRANCH  13  17
ATOM     17  O   LIG    1       35.142   1.277  30.033  0.00  0.00    -0.507 OA
ATOM     18  H   LIG    1       36.025   1.065  29.690  0.00  0.00    +0.292 HD
ENDBRANCH  13  17
BRANCH  15  19
ATOM     19  O   LIG    1       33.851   2.403  25.600  0.00  0.00    -0.507 OA
ATOM     20  H   LIG    1       34.272   3.257  25.796  0.00  0.00    +0.292 HD
ENDBRANCH  15  19
ENDBRANCH   2  11
TORSDOF 5
ENDMDL
MODEL 3
REMARK VINA RESULT:      -7.9      1.304      7.546
REMARK  Name = 
REMARK                            x       y       z     vdW  Elec       q    Type
REMARK                         _______ _______ _______ _____ _____    ______ ____
ROOT
ATOM      1  C   LIG    1       31.177  -0.404  28.189  0.00  0.00    +0.008 C 
ATOM      2  C   LIG    1       30.129  -0.315  27.352  0.00  0.00    +0.009 C 
ENDROOT
BRANCH   1   6
ATOM      3  C   LIG    1       34.757   1.924  27.819  0.00  0.00    +0.117 A 
ATOM      4  C   LIG    1       34.549   1.198  28.983  0.00  0.00    +0.046 A 
ATOM      5  C   LIG    1       33.395   0.421  29.123  0.00  0.00    +0.011 A 
ATOM      6  C   LIG    1       32.439   0.363  28.098  0.00  0.00    -0.025 A 
ATOM      7  C   LIG    1       32.683   1.096  26.925  0.00  0.00    +0.011 A 
ATOM      8  C   LIG    1       33.836   1.877  26.783  0.00  0.00    +0.046 A 
BRANCH   3   9
ATOM      9  O   LIG    1       35.887   2.682  27.735  0.00  0.00    -0.507 OA
ATOM     10  H   LIG    1       35.630   3.616  27.672  0.00  0.00    +0.292 HD
ENDBRANCH   3   9
ENDBRANCH   1   6
BRANCH   2  11
ATOM     11  C   LIG    1       28.888  -1.119  27.412  0.00  0.00    -0.018 A 
ATOM     12  C   LIG    1       28.982  -2.443  27.868  0.00  0.00    +0.053 A 
ATOM     13  C   LIG    1       27.845  -3.244  27.971  0.00  0.00    +0.121 A 
ATOM     14  C   LIG    1       26.595  -2.754  27.623  0.00  0.00    +0.090 A 
ATOM     15  C   LIG    1       26.495  -1.446  27.167  0.00  0.00    +0.121 A 
ATOM     16  C   LIG    1       27.622  -0.628  27.056  0.00  0.00    +0.053 A 
BRANCH  13  17
ATOM     17  O   LIG    1       28.006  -4.519  28.428  0.00  0.00    -0.507 OA
ATOM     18  H   LIG    1       28.945  -4.757  28.352  0.00  0.00    +0.292 HD
ENDBRANCH  13  17
BRANCH  15  19
ATOM     19  O   LIG    1       25.252  -0.988  26.833  0.00  0.00    -0.507 OA
ATOM     20  H   LIG    1       25.169  -0.986  25.865  0.00  0.00    +0.292 HD
ENDBRANCH  15  19
ENDBRANCH   2  11
TORSDOF 5
ENDMDL
MODEL 4
REMARK VINA RESULT:      -7.8      1.271      7.434
REMARK  Name = 
REMARK                            x       y       z     vdW  Elec       q    Type
REMARK                         _______ _______ _______ _____ _____    ______ ____
ROOT
ATOM      1  C   LIG    1       31.180  -0.359  28.279  0.00  0.00    +0.008 C 
ATOM      2  C   LIG    1       30.192  -0.537  27.384  0.00  0.00    +0.009 C 
ENDROOT
BRANCH   1   6
ATOM      3  C   LIG    1       34.776   1.932  27.844  0.00  0.00    +0.117 A 
ATOM      4  C   LIG    1       33.845   1.947  26.815  0.00  0.00    +0.046 A 
ATOM      5  C   LIG    1       32.658   1.218  26.938  0.00  0.00    +0.011 A 
ATOM      6  C   LIG    1       32.392   0.468  28.093  0.00  0.00    -0.025 A 
ATOM      7  C   LIG    1       33.345   0.483  29.126  0.00  0.00    +0.011 A 
ATOM      8  C   LIG    1       34.535   1.210  29.004  0.00  0.00    +0.046 A 
BRANCH   3   9
ATOM      9  O   LIG    1       35.926   2.643  27.673  0.00  0.00    -0.507 OA
ATOM     10  H   LIG    1       35.708   3.589  27.663  0.00  0.00    +0.292 HD
ENDBRANCH   3   9
ENDBRANCH   1   6
BRANCH   2  11
ATOM     11  C   LIG    1       29.005  -1.405  27.549  0.00  0.00    -0.018 A 
ATOM     12  C   LIG    1       27.754  -0.889  27.176  0.00  0.00    +0.053 A 
ATOM     13  C   LIG    1       26.602  -1.667  27.285  0.00  0.00    +0.121 A 
ATOM     14  C   LIG    1       26.662  -2.967  27.766  0.00  0.00    +0.090 A 
ATOM     15  C   LIG    1       27.895  -3.481  28.142  0.00  0.00    +0.121 A 
ATOM     16  C   LIG    1       29.061  -2.719  28.041  0.00  0.00    +0.053 A 
BRANCH  13  17
ATOM     17  O   LIG    1       25.419  -1.107  26.898  0.00  0.00    -0.507 OA
ATOM     18  H   LIG    1       25.263  -0.315  27.438  0.00  0.00    +0.292 HD
ENDBRANCH  13  17
BRANCH  15  19
ATOM     19  O   LIG    1       27.926  -4.765  28.610  0.00  0.00    -0.507 OA
ATOM     20  H   LIG    1       27.585  -5.357  27.920  0.00  0.00    +0.292 HD
ENDBRANCH  15  19
ENDBRANCH   2  11
TORSDOF 5
ENDMDL
MODEL 5
REMARK VINA RESULT:      -6.8      4.668      6.495
REMARK  Name = 
REMARK                            x       y       z     vdW  Elec       q    Type
REMARK                         _______ _______ _______ _____ _____    ______ ____
ROOT
ATOM      1  C   LIG    1       31.846  -1.346  25.096  0.00  0.00    +0.008 C 
ATOM      2  C   LIG    1       30.635  -0.765  25.086  0.00  0.00    +0.009 C 
ENDROOT
BRANCH   1   6
ATOM      3  C   LIG    1       33.427  -3.744  21.914  0.00  0.00    +0.117 A 
ATOM      4  C   LIG    1       34.038  -3.797  23.159  0.00  0.00    +0.046 A 
ATOM      5  C   LIG    1       33.534  -3.034  24.217  0.00  0.00    +0.011 A 
ATOM      6  C   LIG    1       32.412  -2.211  24.038  0.00  0.00    -0.025 A 
ATOM      7  C   LIG    1       31.804  -2.188  22.771  0.00  0.00    +0.011 A 
ATOM      8  C   LIG    1       32.309  -2.949  21.711  0.00  0.00    +0.046 A 
BRANCH   3   9
ATOM      9  O   LIG    1       33.964  -4.491  20.909  0.00  0.00    -0.507 OA
ATOM     10  H   LIG    1       34.647  -5.071  21.283  0.00  0.00    +0.292 HD
ENDBRANCH   3   9
ENDBRANCH   1   6
BRANCH   2  11
ATOM     11  C   LIG    1       30.048   0.057  26.168  0.00  0.00    -0.018 A 
ATOM     12  C   LIG    1       30.918   0.617  27.116  0.00  0.00    +0.053 A 
ATOM     13  C   LIG    1       30.429   1.421  28.145  0.00  0.00    +0.121 A 
ATOM     14  C   LIG    1       29.072   1.687  28.258  0.00  0.00    +0.090 A 
ATOM     15  C   LIG    1       28.205   1.132  27.326  0.00  0.00    +0.121 A 
ATOM     16  C   LIG    1       28.675   0.323  26.289  0.00  0.00    +0.053 A 
BRANCH  13  17
ATOM     17  O   LIG    1       31.330   1.940  29.029  0.00  0.00    -0.507 OA
ATOM     18  H   LIG    1       30.919   2.698  29.478  0.00  0.00    +0.292 HD
ENDBRANCH  13  17
BRANCH  15  19
ATOM     19  O   LIG    1       26.874   1.411  27.460  0.00  0.00    -0.507 OA
ATOM     20  H   LIG    1       26.432   0.642  27.858  0.00  0.00    +0.292 HD
ENDBRANCH  15  19
ENDBRANCH   2  11
TORSDOF 5
ENDMDL
MODEL 6
REMARK VINA RESULT:      -6.7      4.784      6.298
REMARK  Name = 
REMARK                            x       y       z     vdW  Elec       q    Type
REMARK                         _______ _______ _______ _____ _____    ______ ____
ROOT
ATOM      1  C   LIG    1       31.908  -1.419  24.897  0.00  0.00    +0.008 C 
ATOM      2  C   LIG    1       30.691  -0.859  25.013  0.00  0.00    +0.009 C 
ENDROOT
BRANCH   1   6
ATOM      3  C   LIG    1       33.136  -3.935  21.652  0.00  0.00    +0.117 A 
ATOM      4  C   LIG    1       33.891  -3.928  22.816  0.00  0.00    +0.046 A 
ATOM      5  C   LIG    1       33.504  -3.125  23.894  0.00  0.00    +0.011 A 
ATOM      6  C   LIG    1       32.357  -2.323  23.816  0.00  0.00    -0.025 A 
ATOM      7  C   LIG    1       31.602  -2.361  22.631  0.00  0.00    +0.011 A 
ATOM      8  C   LIG    1       31.988  -3.162  21.551  0.00  0.00    +0.046 A 
BRANCH   3   9
ATOM      9  O   LIG    1       33.561  -4.719  20.621  0.00  0.00    -0.507 OA
ATOM     10  H   LIG    1       32.786  -5.016  20.118  0.00  0.00    +0.292 HD
ENDBRANCH   3   9
ENDBRANCH   1   6
BRANCH   2  11
ATOM     11  C   LIG    1       30.225   0.003  26.122  0.00  0.00    -0.018 A 
ATOM     12  C   LIG    1       28.843   0.210  26.260  0.00  0.00    +0.053 A 
ATOM     13  C   LIG    1       28.340   0.992  27.299  0.00  0.00    +0.121 A 
ATOM     14  C   LIG    1       29.191   1.587  28.219  0.00  0.00    +0.090 A 
ATOM     15  C   LIG    1       30.559   1.391  28.085  0.00  0.00    +0.121 A 
ATOM     16  C   LIG    1       31.083   0.612  27.052  0.00  0.00    +0.053 A 
BRANCH  13  17
ATOM     17  O   LIG    1       26.987   1.146  27.380  0.00  0.00    -0.507 OA
ATOM     18  H   LIG    1       26.795   2.078  27.575  0.00  0.00    +0.292 HD
ENDBRANCH  13  17
BRANCH  15  19
ATOM     19  O   LIG    1       31.373   1.987  29.006  0.00  0.00    -0.507 OA
ATOM     20  H   LIG    1       32.026   1.336  29.313  0.00  0.00    +0.292 HD
ENDBRANCH  15  19
ENDBRANCH   2  11
TORSDOF 5
ENDMDL
MODEL 7
REMARK VINA RESULT:      -6.6      1.691      2.190
REMARK  Name = 
REMARK                            x       y       z     vdW  Elec       q    Type
REMARK                         _______ _______ _______ _____ _____    ______ ____
ROOT
ATOM      1  C   LIG    1       30.008  -0.035  28.103  0.00  0.00    +0.008 C 
ATOM      2  C   LIG    1       30.739   1.091  28.057  0.00  0.00    +0.009 C 
ENDROOT
BRANCH   1   6
ATOM      3  C   LIG    1       26.018  -0.687  26.679  0.00  0.00    +0.117 A 
ATOM      4  C   LIG    1       26.299   0.483  27.371  0.00  0.00    +0.046 A 
ATOM      5  C   LIG    1       27.596   0.724  27.835  0.00  0.00    +0.011 A 
ATOM      6  C   LIG    1       28.624  -0.202  27.609  0.00  0.00    -0.025 A 
ATOM      7  C   LIG    1       28.315  -1.371  26.893  0.00  0.00    +0.011 A 
ATOM      8  C   LIG    1       27.017  -1.617  26.430  0.00  0.00    +0.046 A 
BRANCH   3   9
ATOM      9  O   LIG    1       24.736  -0.889  26.262  0.00  0.00    -0.507 OA
ATOM     10  H   LIG    1       24.335  -1.578  26.816  0.00  0.00    +0.292 HD
ENDBRANCH   3   9
ENDBRANCH   1   6
BRANCH   2  11
ATOM     11  C   LIG    1       32.105   1.273  28.597  0.00  0.00    -0.018 A 
ATOM     12  C   LIG    1       33.153   1.477  27.686  0.00  0.00    +0.053 A 
ATOM     13  C   LIG    1       34.458   1.679  28.135  0.00  0.00    +0.121 A 
ATOM     14  C   LIG    1       34.754   1.681  29.490  0.00  0.00    +0.090 A 
ATOM     15  C   LIG    1       33.723   1.474  30.397  0.00  0.00    +0.121 A 
ATOM     16  C   LIG    1       32.409   1.270  29.968  0.00  0.00    +0.053 A 
BRANCH  13  17
ATOM     17  O   LIG    1       35.428   1.878  27.196  0.00  0.00    -0.507 OA
ATOM     18  H   LIG    1       36.295   1.812  27.631  0.00  0.00    +0.292 HD
ENDBRANCH  13  17
BRANCH  15  19
ATOM     19  O   LIG    1       34.041   1.483  31.725  0.00  0.00    -0.507 OA
ATOM     20  H   LIG    1       34.030   0.569  32.055  0.00  0.00    +0.292 HD
ENDBRANCH  15  19
ENDBRANCH   2  11
TORSDOF 5
ENDMDL
MODEL 8
REMARK VINA RESULT:      -6.5     11.487     12.665
REMARK  Name = 
REMARK                            x       y       z     vdW  Elec       q    Type
REMARK                         _______ _______ _______ _____ _____    ______ ____
ROOT
ATOM      1  C   LIG    1       33.845  -1.546  16.994  0.00  0.00    +0.008 C 
ATOM      2  C   LIG    1       34.704  -2.252  16.238  0.00  0.00    +0.009 C 
ENDROOT
BRANCH   1   6
ATOM      3  C   LIG    1       30.716  -3.113  19.469  0.00  0.00    +0.117 A 
ATOM      4  C   LIG    1       30.379  -2.519  18.261  0.00  0.00    +0.046 A 
ATOM      5  C   LIG    1       31.383  -2.011  17.430  0.00  0.00    +0.011 A 
ATOM      6  C   LIG    1       32.733  -2.095  17.800  0.00  0.00    -0.025 A 
ATOM      7  C   LIG    1       33.046  -2.715  19.022  0.00  0.00    +0.011 A 
ATOM      8  C   LIG    1       32.044  -3.222  19.856  0.00  0.00    +0.046 A 
BRANCH   3   9
ATOM      9  O   LIG    1       29.704  -3.577  20.255  0.00  0.00    -0.507 OA
ATOM     10  H   LIG    1       28.883  -3.575  19.737  0.00  0.00    +0.292 HD
ENDBRANCH   3   9
ENDBRANCH   1   6
BRANCH   2  11
ATOM     11  C   LIG    1       35.784  -1.699  15.390  0.00  0.00    -0.018 A 
ATOM     12  C   LIG    1       36.526  -2.593  14.601  0.00  0.00    +0.053 A 
ATOM     13  C   LIG    1       37.540  -2.130  13.763  0.00  0.00    +0.121 A 
ATOM     14  C   LIG    1       37.843  -0.778  13.690  0.00  0.00    +0.090 A 
ATOM     15  C   LIG    1       37.117   0.110  14.471  0.00  0.00    +0.121 A 
ATOM     16  C   LIG    1       36.098  -0.333  15.318  0.00  0.00    +0.053 A 
BRANCH  13  17
ATOM     17  O   LIG    1       38.216  -3.051  13.017  0.00  0.00    -0.507 OA
ATOM     18  H   LIG    1       37.848  -3.048  12.118  0.00  0.00    +0.292 HD
ENDBRANCH  13  17
BRANCH  15  19
ATOM     19  O   LIG    1       37.435   1.436  14.378  0.00  0.00    -0.507 OA
ATOM     20  H   LIG    1       37.753   1.743  15.244  0.00  0.00    +0.292 HD
ENDBRANCH  15  19
ENDBRANCH   2  11
TORSDOF 5
ENDMDL
MODEL 9
REMARK VINA RESULT:      -6.4     11.535     12.686
REMARK  Name = 
REMARK                            x       y       z     vdW  Elec       q    Type
REMARK                         _______ _______ _______ _____ _____    ______ ____
ROOT
ATOM      1  C   LIG    1       34.063  -1.739  17.107  0.00  0.00    +0.008 C 
ATOM      2  C   LIG    1       34.687  -2.447  16.150  0.00  0.00    +0.009 C 
ENDROOT
BRANCH   1   6
ATOM      3  C   LIG    1       30.677  -3.084  19.364  0.00  0.00    +0.117 A 
ATOM      4  C   LIG    1       31.947  -3.255  19.897  0.00  0.00    +0.046 A 
ATOM      5  C   LIG    1       33.067  -2.813  19.186  0.00  0.00    +0.011 A 
ATOM      6  C   LIG    1       32.926  -2.195  17.935  0.00  0.00    -0.025 A 
ATOM      7  C   LIG    1       31.627  -2.021  17.426  0.00  0.00    +0.011 A 
ATOM      8  C   LIG    1       30.505  -2.464  18.135  0.00  0.00    +0.046 A 
BRANCH   3   9
ATOM      9  O   LIG    1       29.616  -3.546  20.084  0.00  0.00    -0.507 OA
ATOM     10  H   LIG    1       28.882  -2.917  19.993  0.00  0.00    +0.292 HD
ENDBRANCH   3   9
ENDBRANCH   1   6
BRANCH   2  11
ATOM     11  C   LIG    1       35.790  -1.973  15.286  0.00  0.00    -0.018 A 
ATOM     12  C   LIG    1       36.079  -0.599  15.281  0.00  0.00    +0.053 A 
ATOM     13  C   LIG    1       37.123  -0.093  14.506  0.00  0.00    +0.121 A 
ATOM     14  C   LIG    1       37.900  -0.933  13.722  0.00  0.00    +0.090 A 
ATOM     15  C   LIG    1       37.616  -2.292  13.718  0.00  0.00    +0.121 A 
ATOM     16  C   LIG    1       36.575  -2.818  14.486  0.00  0.00    +0.053 A 
BRANCH  13  17
ATOM     17  O   LIG    1       37.355   1.250  14.553  0.00  0.00    -0.507 OA
ATOM     18  H   LIG    1       37.748   1.465  15.416  0.00  0.00    +0.292 HD
ENDBRANCH  13  17
BRANCH  15  19
ATOM     19  O   LIG    1       38.397  -3.096  12.938  0.00  0.00    -0.507 OA
ATOM     20  H   LIG    1       37.847  -3.811  12.576  0.00  0.00    +0.292 HD
ENDBRANCH  15  19
ENDBRANCH   2  11
TORSDOF 5
ENDMDL
