MODEL 1
REMARK VINA RESULT:      -8.2      0.000      0.000
REMARK  Name = 
REMARK                            x       y       z     vdW  Elec       q    Type
REMARK                         _______ _______ _______ _____ _____    ______ ____
ROOT
ATOM      1  C   LIG    1       68.562  47.068  95.958  0.00  0.00    +0.008 C 
ATOM      2  C   LIG    1       67.604  47.275  96.878  0.00  0.00    +0.009 C 
ENDROOT
BRANCH   1   6
ATOM      3  C   LIG    1       68.653  48.952  92.110  0.00  0.00    +0.117 A 
ATOM      4  C   LIG    1       69.826  48.878  92.846  0.00  0.00    +0.046 A 
ATOM      5  C   LIG    1       69.826  48.257  94.099  0.00  0.00    +0.011 A 
ATOM      6  C   LIG    1       68.650  47.704  94.626  0.00  0.00    -0.025 A 
ATOM      7  C   LIG    1       67.479  47.780  93.852  0.00  0.00    +0.011 A 
ATOM      8  C   LIG    1       67.476  48.403  92.599  0.00  0.00    +0.046 A 
BRANCH   3   9
ATOM      9  O   LIG    1       68.697  49.583  90.902  0.00  0.00    -0.507 OA
ATOM     10  H   LIG    1       69.274  49.076  90.309  0.00  0.00    +0.292 HD
ENDBRANCH   3   9
ENDBRANCH   1   6
BRANCH   2  11
ATOM     11  C   LIG    1       67.487  46.600  98.189  0.00  0.00    -0.018 A 
ATOM     12  C   LIG    1       68.668  46.326  98.897  0.00  0.00    +0.053 A 
ATOM     13  C   LIG    1       68.623  45.713 100.149  0.00  0.00    +0.121 A 
ATOM     14  C   LIG    1       67.412  45.359 100.726  0.00  0.00    +0.090 A 
ATOM     15  C   LIG    1       66.240  45.622 100.029  0.00  0.00    +0.121 A 
ATOM     16  C   LIG    1       66.264  46.234  98.773  0.00  0.00    +0.053 A 
BRANCH  13  17
ATOM     17  O   LIG    1       69.807  45.482 100.787  0.00  0.00    -0.507 OA
ATOM     18  H   LIG    1       69.786  45.933 101.647  0.00  0.00    +0.292 HD
ENDBRANCH  13  17
BRANCH  15  19
ATOM     19  O   LIG    1       65.062  45.264 100.620  0.00  0.00    -0.507 OA
ATOM     20  H   LIG    1       64.532  44.760  99.981  0.00  0.00    +0.292 HD
ENDBRANCH  15  19
ENDBRANCH   2  11
TORSDOF 5
ENDMDL
MODEL 2
REMARK VINA RESULT:      -8.0      0.303      1.997
REMARK  Name = 
REMARK                            x       y       z     vdW  Elec       q    Type
REMARK                         _______ _______ _______ _____ _____    ______ ____
ROOT
ATOM      1  C   LIG    1       68.539  47.023  96.047  0.00  0.00    +0.008 C 
ATOM      2  C   LIG    1       67.787  47.435  97.082  0.00  0.00    +0.009 C 
ENDROOT
BRANCH   1   6
ATOM      3  C   LIG    1       68.648  48.945  92.217  0.00  0.00    +0.117 A 
ATOM      4  C   LIG    1       69.828  48.823  92.938  0.00  0.00    +0.046 A 
ATOM      5  C   LIG    1       69.820  48.188  94.185  0.00  0.00    +0.011 A 
ATOM      6  C   LIG    1       68.633  47.670  94.720  0.00  0.00    -0.025 A 
ATOM      7  C   LIG    1       67.456  47.794  93.961  0.00  0.00    +0.011 A 
ATOM      8  C   LIG    1       67.460  48.430  92.715  0.00  0.00    +0.046 A 
BRANCH   3   9
ATOM      9  O   LIG    1       68.700  49.586  91.015  0.00  0.00    -0.507 OA
ATOM     10  H   LIG    1       69.513  50.114  90.981  0.00  0.00    +0.292 HD
ENDBRANCH   3   9
ENDBRANCH   1   6
BRANCH   2  11
ATOM     11  C   LIG    1       67.653  46.759  98.392  0.00  0.00    -0.018 A 
ATOM     12  C   LIG    1       66.400  46.226  98.733  0.00  0.00    +0.053 A 
ATOM     13  C   LIG    1       66.216  45.556  99.942  0.00  0.00    +0.121 A 
ATOM     14  C   LIG    1       67.264  45.402 100.838  0.00  0.00    +0.090 A 
ATOM     15  C   LIG    1       68.505  45.931 100.509  0.00  0.00    +0.121 A 
ATOM     16  C   LIG    1       68.709  46.606  99.303  0.00  0.00    +0.053 A 
BRANCH  13  17
ATOM     17  O   LIG    1       64.975  45.056 100.209  0.00  0.00    -0.507 OA
ATOM     18  H   LIG    1       64.370  45.801 100.363  0.00  0.00    +0.292 HD
ENDBRANCH  13  17
BRANCH  15  19
ATOM     19  O   LIG    1       69.519  45.763 101.408  0.00  0.00    -0.507 OA
ATOM     20  H   LIG    1       69.894  46.633 101.623  0.00  0.00    +0.292 HD
ENDBRANCH  15  19
ENDBRANCH   2  11
TORSDOF 5
ENDMDL
MODEL 3
REMARK VINA RESULT:      -7.0      1.215      7.629
REMARK  Name = 
REMARK                            x       y       z     vdW  Elec       q    Type
REMARK                         _______ _______ _______ _____ _____    ______ ____
ROOT
ATOM      1  C   LIG    1       67.438  46.869  96.910  0.00  0.00    +0.008 C 
ATOM      2  C   LIG    1       68.496  47.313  96.210  0.00  0.00    +0.009 C 
ENDROOT
BRANCH   1   6
ATOM      3  C   LIG    1       67.649  45.442 100.947  0.00  0.00    +0.117 A 
ATOM      4  C   LIG    1       66.403  45.580 100.350  0.00  0.00    +0.046 A 
ATOM      5  C   LIG    1       66.309  46.031  99.030  0.00  0.00    +0.011 A 
ATOM      6  C   LIG    1       67.460  46.348  98.295  0.00  0.00    -0.025 A 
ATOM      7  C   LIG    1       68.709  46.185  98.919  0.00  0.00    +0.011 A 
ATOM      8  C   LIG    1       68.806  45.736 100.241  0.00  0.00    +0.046 A 
BRANCH   3   9
ATOM      9  O   LIG    1       67.691  45.016 102.241  0.00  0.00    -0.507 OA
ATOM     10  H   LIG    1       68.513  44.518 102.376  0.00  0.00    +0.292 HD
ENDBRANCH   3   9
ENDBRANCH   1   6
BRANCH   2  11
ATOM     11  C   LIG    1       68.483  47.785  94.807  0.00  0.00    -0.018 A 
ATOM     12  C   LIG    1       67.340  47.523  94.034  0.00  0.00    +0.053 A 
ATOM     13  C   LIG    1       67.258  47.964  92.714  0.00  0.00    +0.121 A 
ATOM     14  C   LIG    1       68.300  48.668  92.130  0.00  0.00    +0.090 A 
ATOM     15  C   LIG    1       69.435  48.926  92.888  0.00  0.00    +0.121 A 
ATOM     16  C   LIG    1       69.538  48.493  94.212  0.00  0.00    +0.053 A 
BRANCH  13  17
ATOM     17  O   LIG    1       66.116  47.682  92.021  0.00  0.00    -0.507 OA
ATOM     18  H   LIG    1       65.356  47.837  92.606  0.00  0.00    +0.292 HD
ENDBRANCH  13  17
BRANCH  15  19
ATOM     19  O   LIG    1       70.446  49.623  92.289  0.00  0.00    -0.507 OA
ATOM     20  H   LIG    1       70.713  50.352  92.874  0.00  0.00    +0.292 HD
ENDBRANCH  15  19
ENDBRANCH   2  11
TORSDOF 5
ENDMDL
MODEL 4
REMARK VINA RESULT:      -6.8      1.273      7.394
REMARK  Name = 
REMARK                            x       y       z     vdW  Elec       q    Type
REMARK                         _______ _______ _______ _____ _____    ______ ____
ROOT
ATOM      1  C   LIG    1       67.298  46.792  97.022  0.00  0.00    +0.008 C 
ATOM      2  C   LIG    1       68.260  47.465  96.368  0.00  0.00    +0.009 C 
ENDROOT
BRANCH   1   6
ATOM      3  C   LIG    1       67.655  45.410 101.063  0.00  0.00    +0.117 A 
ATOM      4  C   LIG    1       66.396  45.457 100.481  0.00  0.00    +0.046 A 
ATOM      5  C   LIG    1       66.255  45.892  99.159  0.00  0.00    +0.011 A 
ATOM      6  C   LIG    1       67.373  46.283  98.408  0.00  0.00    -0.025 A 
ATOM      7  C   LIG    1       68.637  46.212  99.019  0.00  0.00    +0.011 A 
ATOM      8  C   LIG    1       68.781  45.779 100.341  0.00  0.00    +0.046 A 
BRANCH   3   9
ATOM      9  O   LIG    1       67.742  44.997 102.359  0.00  0.00    -0.507 OA
ATOM     10  H   LIG    1       67.071  44.313 102.512  0.00  0.00    +0.292 HD
ENDBRANCH   3   9
ENDBRANCH   1   6
BRANCH   2  11
ATOM     11  C   LIG    1       68.206  47.928  94.963  0.00  0.00    -0.018 A 
ATOM     12  C   LIG    1       69.265  48.719  94.488  0.00  0.00    +0.053 A 
ATOM     13  C   LIG    1       69.284  49.166  93.167  0.00  0.00    +0.121 A 
ATOM     14  C   LIG    1       68.258  48.843  92.291  0.00  0.00    +0.090 A 
ATOM     15  C   LIG    1       67.205  48.066  92.756  0.00  0.00    +0.121 A 
ATOM     16  C   LIG    1       67.167  47.609  94.075  0.00  0.00    +0.053 A 
BRANCH  13  17
ATOM     17  O   LIG    1       70.346  49.924  92.769  0.00  0.00    -0.507 OA
ATOM     18  H   LIG    1       70.941  50.043  93.528  0.00  0.00    +0.292 HD
ENDBRANCH  13  17
BRANCH  15  19
ATOM     19  O   LIG    1       66.210  47.761  91.871  0.00  0.00    -0.507 OA
ATOM     20  H   LIG    1       65.827  46.902  92.115  0.00  0.00    +0.292 HD
ENDBRANCH  15  19
ENDBRANCH   2  11
TORSDOF 5
ENDMDL
MODEL 5
REMARK VINA RESULT:      -6.7     11.337     12.796
REMARK  Name = 
REMARK                            x       y       z     vdW  Elec       q    Type
REMARK                         _______ _______ _______ _____ _____    ______ ____
ROOT
ATOM      1  C   LIG    1       69.956  54.420  86.768  0.00  0.00    +0.008 C 
ATOM      2  C   LIG    1       69.081  54.222  87.769  0.00  0.00    +0.009 C 
ENDROOT
BRANCH   1   6
ATOM      3  C   LIG    1       73.063  51.666  85.705  0.00  0.00    +0.117 A 
ATOM      4  C   LIG    1       72.286  52.218  84.697  0.00  0.00    +0.046 A 
ATOM      5  C   LIG    1       71.274  53.129  85.017  0.00  0.00    +0.011 A 
ATOM      6  C   LIG    1       71.032  53.496  86.349  0.00  0.00    -0.025 A 
ATOM      7  C   LIG    1       71.845  52.932  87.348  0.00  0.00    +0.011 A 
ATOM      8  C   LIG    1       72.856  52.019  87.030  0.00  0.00    +0.046 A 
BRANCH   3   9
ATOM      9  O   LIG    1       74.026  50.769  85.348  0.00  0.00    -0.507 OA
ATOM     10  H   LIG    1       73.923  50.564  84.404  0.00  0.00    +0.292 HD
ENDBRANCH   3   9
ENDBRANCH   1   6
BRANCH   2  11
ATOM     11  C   LIG    1       68.038  55.169  88.222  0.00  0.00    -0.018 A 
ATOM     12  C   LIG    1       67.726  56.254  87.388  0.00  0.00    +0.053 A 
ATOM     13  C   LIG    1       66.736  57.167  87.748  0.00  0.00    +0.121 A 
ATOM     14  C   LIG    1       66.037  57.029  88.938  0.00  0.00    +0.090 A 
ATOM     15  C   LIG    1       66.344  55.961  89.771  0.00  0.00    +0.121 A 
ATOM     16  C   LIG    1       67.333  55.035  89.428  0.00  0.00    +0.053 A 
BRANCH  13  17
ATOM     17  O   LIG    1       66.476  58.195  86.889  0.00  0.00    -0.507 OA
ATOM     18  H   LIG    1       66.445  59.022  87.398  0.00  0.00    +0.292 HD
ENDBRANCH  13  17
BRANCH  15  19
ATOM     19  O   LIG    1       65.639  55.847  90.935  0.00  0.00    -0.507 OA
ATOM     20  H   LIG    1       64.917  56.496  90.928  0.00  0.00    +0.292 HD
ENDBRANCH  15  19
ENDBRANCH   2  11
TORSDOF 5
ENDMDL
MODEL 6
REMARK VINA RESULT:      -6.7     11.360     12.845
REMARK  Name = 
REMARK                            x       y       z     vdW  Elec       q    Type
REMARK                         _______ _______ _______ _____ _____    ______ ____
ROOT
ATOM      1  C   LIG    1       70.035  54.256  86.570  0.00  0.00    +0.008 C 
ATOM      2  C   LIG    1       69.253  54.206  87.663  0.00  0.00    +0.009 C 
ENDROOT
BRANCH   1   6
ATOM      3  C   LIG    1       73.214  51.497  85.764  0.00  0.00    +0.117 A 
ATOM      4  C   LIG    1       72.511  52.038  84.697  0.00  0.00    +0.046 A 
ATOM      5  C   LIG    1       71.478  52.950  84.933  0.00  0.00    +0.011 A 
ATOM      6  C   LIG    1       71.139  53.330  86.240  0.00  0.00    -0.025 A 
ATOM      7  C   LIG    1       71.878  52.777  87.301  0.00  0.00    +0.011 A 
ATOM      8  C   LIG    1       72.910  51.863  87.067  0.00  0.00    +0.046 A 
BRANCH   3   9
ATOM      9  O   LIG    1       74.201  50.598  85.487  0.00  0.00    -0.507 OA
ATOM     10  H   LIG    1       74.362  50.061  86.279  0.00  0.00    +0.292 HD
ENDBRANCH   3   9
ENDBRANCH   1   6
BRANCH   2  11
ATOM     11  C   LIG    1       68.183  55.164  88.019  0.00  0.00    -0.018 A 
ATOM     12  C   LIG    1       67.499  54.967  89.230  0.00  0.00    +0.053 A 
ATOM     13  C   LIG    1       66.497  55.849  89.633  0.00  0.00    +0.121 A 
ATOM     14  C   LIG    1       66.149  56.939  88.849  0.00  0.00    +0.090 A 
ATOM     15  C   LIG    1       66.817  57.136  87.648  0.00  0.00    +0.121 A 
ATOM     16  C   LIG    1       67.824  56.264  87.226  0.00  0.00    +0.053 A 
BRANCH  13  17
ATOM     17  O   LIG    1       65.878  55.605  90.824  0.00  0.00    -0.507 OA
ATOM     18  H   LIG    1       65.838  54.643  90.958  0.00  0.00    +0.292 HD
ENDBRANCH  13  17
BRANCH  15  19
ATOM     19  O   LIG    1       66.456  58.219  86.897  0.00  0.00    -0.507 OA
ATOM     20  H   LIG    1       66.705  58.054  85.972  0.00  0.00    +0.292 HD
ENDBRANCH  15  19
ENDBRANCH   2  11
TORSDOF 5
ENDMDL
MODEL 7
REMARK VINA RESULT:      -6.4      2.942      7.380
REMARK  Name = 
REMARK                            x       y       z     vdW  Elec       q    Type
REMARK                         _______ _______ _______ _____ _____    ______ ____
ROOT
ATOM      1  C   LIG    1       68.183  48.961  96.840  0.00  0.00    +0.008 C 
ATOM      2  C   LIG    1       69.060  48.973  95.822  0.00  0.00    +0.009 C 
ENDROOT
BRANCH   1   6
ATOM      3  C   LIG    1       69.230  49.596 100.948  0.00  0.00    +0.117 A 
ATOM      4  C   LIG    1       67.920  49.262 100.636  0.00  0.00    +0.046 A 
ATOM      5  C   LIG    1       67.556  49.037  99.304  0.00  0.00    +0.011 A 
ATOM      6  C   LIG    1       68.501  49.144  98.273  0.00  0.00    -0.025 A 
ATOM      7  C   LIG    1       69.824  49.469  98.620  0.00  0.00    +0.011 A 
ATOM      8  C   LIG    1       70.190  49.696  99.951  0.00  0.00    +0.046 A 
BRANCH   3   9
ATOM      9  O   LIG    1       69.535  49.823 102.257  0.00  0.00    -0.507 OA
ATOM     10  H   LIG    1       70.499  49.768 102.365  0.00  0.00    +0.292 HD
ENDBRANCH   3   9
ENDBRANCH   1   6
BRANCH   2  11
ATOM     11  C   LIG    1       68.749  48.738  94.394  0.00  0.00    -0.018 A 
ATOM     12  C   LIG    1       69.779  48.919  93.457  0.00  0.00    +0.053 A 
ATOM     13  C   LIG    1       69.555  48.690  92.100  0.00  0.00    +0.121 A 
ATOM     14  C   LIG    1       68.312  48.279  91.642  0.00  0.00    +0.090 A 
ATOM     15  C   LIG    1       67.288  48.103  92.563  0.00  0.00    +0.121 A 
ATOM     16  C   LIG    1       67.491  48.328  93.927  0.00  0.00    +0.053 A 
BRANCH  13  17
ATOM     17  O   LIG    1       70.601  48.878  91.244  0.00  0.00    -0.507 OA
ATOM     18  H   LIG    1       71.383  48.434  91.612  0.00  0.00    +0.292 HD
ENDBRANCH  13  17
BRANCH  15  19
ATOM     19  O   LIG    1       66.074  47.696  92.085  0.00  0.00    -0.507 OA
ATOM     20  H   LIG    1       65.487  48.468  92.026  0.00  0.00    +0.292 HD
ENDBRANCH  15  19
ENDBRANCH   2  11
TORSDOF 5
ENDMDL
MODEL 8
REMARK VINA RESULT:      -6.3      3.005      7.462
REMARK  Name = 
REMARK                            x       y       z     vdW  Elec       q    Type
REMARK                         _______ _______ _______ _____ _____    ______ ____
ROOT
ATOM      1  C   LIG    1       68.132  48.702  97.108  0.00  0.00    +0.008 C 
ATOM      2  C   LIG    1       68.602  49.259  95.979  0.00  0.00    +0.009 C 
ENDROOT
BRANCH   1   6
ATOM      3  C   LIG    1       69.468  49.755 101.042  0.00  0.00    +0.117 A 
ATOM      4  C   LIG    1       68.129  49.448 100.851  0.00  0.00    +0.046 A 
ATOM      5  C   LIG    1       67.671  49.089  99.579  0.00  0.00    +0.011 A 
ATOM      6  C   LIG    1       68.549  49.034  98.488  0.00  0.00    -0.025 A 
ATOM      7  C   LIG    1       69.903  49.336  98.714  0.00  0.00    +0.011 A 
ATOM      8  C   LIG    1       70.364  49.697  99.984  0.00  0.00    +0.046 A 
BRANCH   3   9
ATOM      9  O   LIG    1       69.866  50.117 102.295  0.00  0.00    -0.507 OA
ATOM     10  H   LIG    1       69.131  49.965 102.910  0.00  0.00    +0.292 HD
ENDBRANCH   3   9
ENDBRANCH   1   6
BRANCH   2  11
ATOM     11  C   LIG    1       68.222  48.891  94.596  0.00  0.00    -0.018 A 
ATOM     12  C   LIG    1       67.220  47.923  94.423  0.00  0.00    +0.053 A 
ATOM     13  C   LIG    1       66.802  47.551  93.146  0.00  0.00    +0.121 A 
ATOM     14  C   LIG    1       67.365  48.126  92.016  0.00  0.00    +0.090 A 
ATOM     15  C   LIG    1       68.360  49.080  92.180  0.00  0.00    +0.121 A 
ATOM     16  C   LIG    1       68.794  49.466  93.451  0.00  0.00    +0.053 A 
BRANCH  13  17
ATOM     17  O   LIG    1       65.819  46.610  93.049  0.00  0.00    -0.507 OA
ATOM     18  H   LIG    1       66.108  45.813  93.524  0.00  0.00    +0.292 HD
ENDBRANCH  13  17
BRANCH  15  19
ATOM     19  O   LIG    1       68.896  49.632  91.050  0.00  0.00    -0.507 OA
ATOM     20  H   LIG    1       69.482  48.979  90.632  0.00  0.00    +0.292 HD
ENDBRANCH  15  19
ENDBRANCH   2  11
TORSDOF 5
ENDMDL
