MODEL 1
REMARK VINA RESULT:      -8.1      0.000      0.000
REMARK  Name = 
REMARK                            x       y       z     vdW  Elec       q    Type
REMARK                         _______ _______ _______ _____ _____    ______ ____
ROOT
ATOM      1  C   LIG    1       37.704  32.736   7.932  0.00  0.00    +0.008 C 
ATOM      2  C   LIG    1       38.533  33.581   7.296  0.00  0.00    +0.009 C 
ENDROOT
BRANCH   1   6
ATOM      3  C   LIG    1       38.826  29.434  10.424  0.00  0.00    +0.117 A 
ATOM      4  C   LIG    1       39.352  30.688  10.699  0.00  0.00    +0.046 A 
ATOM      5  C   LIG    1       38.991  31.784   9.909  0.00  0.00    +0.011 A 
ATOM      6  C   LIG    1       38.100  31.634   8.836  0.00  0.00    -0.025 A 
ATOM      7  C   LIG    1       37.572  30.355   8.589  0.00  0.00    +0.011 A 
ATOM      8  C   LIG    1       37.933  29.257   9.377  0.00  0.00    +0.046 A 
BRANCH   3   9
ATOM      9  O   LIG    1       39.220  28.392  11.209  0.00  0.00    -0.507 OA
ATOM     10  H   LIG    1       40.181  28.287  11.127  0.00  0.00    +0.292 HD
ENDBRANCH   3   9
ENDBRANCH   1   6
BRANCH   2  11
ATOM     11  C   LIG    1       38.139  34.650   6.351  0.00  0.00    -0.018 A 
ATOM     12  C   LIG    1       37.395  34.286   5.217  0.00  0.00    +0.053 A 
ATOM     13  C   LIG    1       36.974  35.251   4.302  0.00  0.00    +0.121 A 
ATOM     14  C   LIG    1       37.279  36.591   4.488  0.00  0.00    +0.090 A 
ATOM     15  C   LIG    1       38.019  36.957   5.605  0.00  0.00    +0.121 A 
ATOM     16  C   LIG    1       38.451  36.006   6.532  0.00  0.00    +0.053 A 
BRANCH  13  17
ATOM     17  O   LIG    1       36.248  34.831   3.226  0.00  0.00    -0.507 OA
ATOM     18  H   LIG    1       35.757  34.032   3.479  0.00  0.00    +0.292 HD
ENDBRANCH  13  17
BRANCH  15  19
ATOM     19  O   LIG    1       38.304  38.284   5.764  0.00  0.00    -0.507 OA
ATOM     20  H   LIG    1       37.784  38.794   5.121  0.00  0.00    +0.292 HD
ENDBRANCH  15  19
ENDBRANCH   2  11
TORSDOF 5
ENDMDL
MODEL 2
REMARK VINA RESULT:      -7.8      1.494      7.434
REMARK  Name = 
REMARK                            x       y       z     vdW  Elec       q    Type
REMARK                         _______ _______ _______ _____ _____    ______ ____
ROOT
ATOM      1  C   LIG    1       38.197  33.340   7.344  0.00  0.00    +0.008 C 
ATOM      2  C   LIG    1       39.202  32.447   7.328  0.00  0.00    +0.009 C 
ENDROOT
BRANCH   1   6
ATOM      3  C   LIG    1       37.607  36.603   4.627  0.00  0.00    +0.117 A 
ATOM      4  C   LIG    1       38.132  36.866   5.884  0.00  0.00    +0.046 A 
ATOM      5  C   LIG    1       38.346  35.817   6.784  0.00  0.00    +0.011 A 
ATOM      6  C   LIG    1       38.037  34.495   6.433  0.00  0.00    -0.025 A 
ATOM      7  C   LIG    1       37.520  34.256   5.148  0.00  0.00    +0.011 A 
ATOM      8  C   LIG    1       37.303  35.304   4.247  0.00  0.00    +0.046 A 
BRANCH   3   9
ATOM      9  O   LIG    1       37.398  37.658   3.790  0.00  0.00    -0.507 OA
ATOM     10  H   LIG    1       36.628  37.464   3.232  0.00  0.00    +0.292 HD
ENDBRANCH   3   9
ENDBRANCH   1   6
BRANCH   2  11
ATOM     11  C   LIG    1       39.390  31.323   8.271  0.00  0.00    -0.018 A 
ATOM     12  C   LIG    1       38.313  30.971   9.101  0.00  0.00    +0.053 A 
ATOM     13  C   LIG    1       38.421  29.905   9.993  0.00  0.00    +0.121 A 
ATOM     14  C   LIG    1       39.593  29.168  10.086  0.00  0.00    +0.090 A 
ATOM     15  C   LIG    1       40.663  29.514   9.273  0.00  0.00    +0.121 A 
ATOM     16  C   LIG    1       40.576  30.579   8.372  0.00  0.00    +0.053 A 
BRANCH  13  17
ATOM     17  O   LIG    1       37.335  29.611  10.765  0.00  0.00    -0.507 OA
ATOM     18  H   LIG    1       37.332  28.655  10.941  0.00  0.00    +0.292 HD
ENDBRANCH  13  17
BRANCH  15  19
ATOM     19  O   LIG    1       41.804  28.771   9.383  0.00  0.00    -0.507 OA
ATOM     20  H   LIG    1       42.234  28.728   8.513  0.00  0.00    +0.292 HD
ENDBRANCH  15  19
ENDBRANCH   2  11
TORSDOF 5
ENDMDL
MODEL 3
REMARK VINA RESULT:      -7.8      1.351      7.604
REMARK  Name = 
REMARK                            x       y       z     vdW  Elec       q    Type
REMARK                         _______ _______ _______ _____ _____    ______ ____
ROOT
ATOM      1  C   LIG    1       37.971  33.494   7.473  0.00  0.00    +0.008 C 
ATOM      2  C   LIG    1       38.926  32.551   7.541  0.00  0.00    +0.009 C 
ENDROOT
BRANCH   1   6
ATOM      3  C   LIG    1       37.763  36.642   4.572  0.00  0.00    +0.117 A 
ATOM      4  C   LIG    1       37.337  35.372   4.212  0.00  0.00    +0.046 A 
ATOM      5  C   LIG    1       37.383  34.331   5.145  0.00  0.00    +0.011 A 
ATOM      6  C   LIG    1       37.855  34.552   6.446  0.00  0.00    -0.025 A 
ATOM      7  C   LIG    1       38.266  35.852   6.788  0.00  0.00    +0.011 A 
ATOM      8  C   LIG    1       38.223  36.895   5.857  0.00  0.00    +0.046 A 
BRANCH   3   9
ATOM      9  O   LIG    1       37.717  37.622   3.626  0.00  0.00    -0.507 OA
ATOM     10  H   LIG    1       38.609  37.989   3.516  0.00  0.00    +0.292 HD
ENDBRANCH   3   9
ENDBRANCH   1   6
BRANCH   2  11
ATOM     11  C   LIG    1       39.072  31.525   8.598  0.00  0.00    -0.018 A 
ATOM     12  C   LIG    1       40.368  31.214   9.040  0.00  0.00    +0.053 A 
ATOM     13  C   LIG    1       40.569  30.273  10.050  0.00  0.00    +0.121 A 
ATOM     14  C   LIG    1       39.497  29.621  10.640  0.00  0.00    +0.090 A 
ATOM     15  C   LIG    1       38.213  29.921  10.204  0.00  0.00    +0.121 A 
ATOM     16  C   LIG    1       37.990  30.859   9.194  0.00  0.00    +0.053 A 
BRANCH  13  17
ATOM     17  O   LIG    1       41.853  30.023  10.438  0.00  0.00    -0.507 OA
ATOM     18  H   LIG    1       41.832  29.576  11.300  0.00  0.00    +0.292 HD
ENDBRANCH  13  17
BRANCH  15  19
ATOM     19  O   LIG    1       37.175  29.265  10.804  0.00  0.00    -0.507 OA
ATOM     20  H   LIG    1       37.361  29.192  11.755  0.00  0.00    +0.292 HD
ENDBRANCH  15  19
ENDBRANCH   2  11
TORSDOF 5
ENDMDL
MODEL 4
REMARK VINA RESULT:      -7.8      1.153      2.353
REMARK  Name = 
REMARK                            x       y       z     vdW  Elec       q    Type
REMARK                         _______ _______ _______ _____ _____    ______ ____
ROOT
ATOM      1  C   LIG    1       38.358  32.762   7.633  0.00  0.00    +0.008 C 
ATOM      2  C   LIG    1       38.930  33.760   6.938  0.00  0.00    +0.009 C 
ENDROOT
BRANCH   1   6
ATOM      3  C   LIG    1       40.521  29.809   9.864  0.00  0.00    +0.117 A 
ATOM      4  C   LIG    1       39.633  30.637  10.536  0.00  0.00    +0.046 A 
ATOM      5  C   LIG    1       38.906  31.600   9.828  0.00  0.00    +0.011 A 
ATOM      6  C   LIG    1       39.061  31.742   8.442  0.00  0.00    -0.025 A 
ATOM      7  C   LIG    1       39.956  30.880   7.785  0.00  0.00    +0.011 A 
ATOM      8  C   LIG    1       40.686  29.918   8.490  0.00  0.00    +0.046 A 
BRANCH   3   9
ATOM      9  O   LIG    1       41.221  28.898  10.596  0.00  0.00    -0.507 OA
ATOM     10  H   LIG    1       40.634  28.155  10.810  0.00  0.00    +0.292 HD
ENDBRANCH   3   9
ENDBRANCH   1   6
BRANCH   2  11
ATOM     11  C   LIG    1       38.231  34.748   6.087  0.00  0.00    -0.018 A 
ATOM     12  C   LIG    1       38.502  36.110   6.299  0.00  0.00    +0.053 A 
ATOM     13  C   LIG    1       37.894  37.088   5.513  0.00  0.00    +0.121 A 
ATOM     14  C   LIG    1       37.006  36.742   4.506  0.00  0.00    +0.090 A 
ATOM     15  C   LIG    1       36.729  35.398   4.294  0.00  0.00    +0.121 A 
ATOM     16  C   LIG    1       37.327  34.403   5.070  0.00  0.00    +0.053 A 
BRANCH  13  17
ATOM     17  O   LIG    1       38.207  38.391   5.767  0.00  0.00    -0.507 OA
ATOM     18  H   LIG    1       37.434  38.940   5.555  0.00  0.00    +0.292 HD
ENDBRANCH  13  17
BRANCH  15  19
ATOM     19  O   LIG    1       35.852  35.086   3.293  0.00  0.00    -0.507 OA
ATOM     20  H   LIG    1       34.979  35.447   3.520  0.00  0.00    +0.292 HD
ENDBRANCH  15  19
ENDBRANCH   2  11
TORSDOF 5
ENDMDL
MODEL 5
REMARK VINA RESULT:      -7.6      2.173      8.013
REMARK  Name = 
REMARK                            x       y       z     vdW  Elec       q    Type
REMARK                         _______ _______ _______ _____ _____    ______ ____
ROOT
ATOM      1  C   LIG    1       38.419  31.202   9.021  0.00  0.00    +0.008 C 
ATOM      2  C   LIG    1       38.475  30.038   8.351  0.00  0.00    +0.009 C 
ENDROOT
BRANCH   1   6
ATOM      3  C   LIG    1       37.669  35.134   7.489  0.00  0.00    +0.117 A 
ATOM      4  C   LIG    1       38.471  34.271   6.754  0.00  0.00    +0.046 A 
ATOM      5  C   LIG    1       38.720  32.979   7.227  0.00  0.00    +0.011 A 
ATOM      6  C   LIG    1       38.169  32.538   8.438  0.00  0.00    -0.025 A 
ATOM      7  C   LIG    1       37.349  33.427   9.154  0.00  0.00    +0.011 A 
ATOM      8  C   LIG    1       37.099  34.722   8.684  0.00  0.00    +0.046 A 
BRANCH   3   9
ATOM      9  O   LIG    1       37.468  36.390   6.998  0.00  0.00    -0.507 OA
ATOM     10  H   LIG    1       38.253  36.927   7.192  0.00  0.00    +0.292 HD
ENDBRANCH   3   9
ENDBRANCH   1   6
BRANCH   2  11
ATOM     11  C   LIG    1       38.778  28.709   8.926  0.00  0.00    -0.018 A 
ATOM     12  C   LIG    1       40.114  28.279   8.925  0.00  0.00    +0.053 A 
ATOM     13  C   LIG    1       40.466  27.046   9.475  0.00  0.00    +0.121 A 
ATOM     14  C   LIG    1       39.507  26.215  10.034  0.00  0.00    +0.090 A 
ATOM     15  C   LIG    1       38.182  26.632  10.033  0.00  0.00    +0.121 A 
ATOM     16  C   LIG    1       37.809  27.862   9.487  0.00  0.00    +0.053 A 
BRANCH  13  17
ATOM     17  O   LIG    1       41.784  26.692   9.448  0.00  0.00    -0.507 OA
ATOM     18  H   LIG    1       41.854  25.797   9.077  0.00  0.00    +0.292 HD
ENDBRANCH  13  17
BRANCH  15  19
ATOM     19  O   LIG    1       37.258  25.794  10.591  0.00  0.00    -0.507 OA
ATOM     20  H   LIG    1       37.695  25.258  11.274  0.00  0.00    +0.292 HD
ENDBRANCH  15  19
ENDBRANCH   2  11
TORSDOF 5
ENDMDL
MODEL 6
REMARK VINA RESULT:      -7.6      2.554      8.004
REMARK  Name = 
REMARK                            x       y       z     vdW  Elec       q    Type
REMARK                         _______ _______ _______ _____ _____    ______ ____
ROOT
ATOM      1  C   LIG    1       38.799  30.761   8.401  0.00  0.00    +0.008 C 
ATOM      2  C   LIG    1       40.034  30.272   8.605  0.00  0.00    +0.009 C 
ENDROOT
BRANCH   1   6
ATOM      3  C   LIG    1       37.765  34.839   7.581  0.00  0.00    +0.117 A 
ATOM      4  C   LIG    1       38.677  34.201   6.753  0.00  0.00    +0.046 A 
ATOM      5  C   LIG    1       39.021  32.866   6.992  0.00  0.00    +0.011 A 
ATOM      6  C   LIG    1       38.454  32.159   8.062  0.00  0.00    -0.025 A 
ATOM      7  C   LIG    1       37.522  32.825   8.875  0.00  0.00    +0.011 A 
ATOM      8  C   LIG    1       37.177  34.161   8.639  0.00  0.00    +0.046 A 
BRANCH   3   9
ATOM      9  O   LIG    1       37.473  36.144   7.321  0.00  0.00    -0.507 OA
ATOM     10  H   LIG    1       38.204  36.696   7.642  0.00  0.00    +0.292 HD
ENDBRANCH   3   9
ENDBRANCH   1   6
BRANCH   2  11
ATOM     11  C   LIG    1       40.375  28.886   8.996  0.00  0.00    -0.018 A 
ATOM     12  C   LIG    1       39.428  28.158   9.735  0.00  0.00    +0.053 A 
ATOM     13  C   LIG    1       39.681  26.839  10.112  0.00  0.00    +0.121 A 
ATOM     14  C   LIG    1       40.871  26.215   9.769  0.00  0.00    +0.090 A 
ATOM     15  C   LIG    1       41.813  26.931   9.043  0.00  0.00    +0.121 A 
ATOM     16  C   LIG    1       41.580  28.253   8.656  0.00  0.00    +0.053 A 
BRANCH  13  17
ATOM     17  O   LIG    1       38.716  26.187  10.823  0.00  0.00    -0.507 OA
ATOM     18  H   LIG    1       39.002  26.131  11.750  0.00  0.00    +0.292 HD
ENDBRANCH  13  17
BRANCH  15  19
ATOM     19  O   LIG    1       42.976  26.292   8.717  0.00  0.00    -0.507 OA
ATOM     20  H   LIG    1       43.266  26.598   7.842  0.00  0.00    +0.292 HD
ENDBRANCH  15  19
ENDBRANCH   2  11
TORSDOF 5
ENDMDL
MODEL 7
REMARK VINA RESULT:      -7.5      2.267      8.276
REMARK  Name = 
REMARK                            x       y       z     vdW  Elec       q    Type
REMARK                         _______ _______ _______ _____ _____    ______ ____
ROOT
ATOM      1  C   LIG    1       39.185  31.076   8.754  0.00  0.00    +0.008 C 
ATOM      2  C   LIG    1       39.954  30.885   9.840  0.00  0.00    +0.009 C 
ENDROOT
BRANCH   1   6
ATOM      3  C   LIG    1       37.680  34.880   7.476  0.00  0.00    +0.117 A 
ATOM      4  C   LIG    1       38.604  34.224   6.676  0.00  0.00    +0.046 A 
ATOM      5  C   LIG    1       39.101  32.975   7.065  0.00  0.00    +0.011 A 
ATOM      6  C   LIG    1       38.676  32.373   8.257  0.00  0.00    -0.025 A 
ATOM      7  C   LIG    1       37.728  33.054   9.041  0.00  0.00    +0.011 A 
ATOM      8  C   LIG    1       37.232  34.304   8.656  0.00  0.00    +0.046 A 
BRANCH   3   9
ATOM      9  O   LIG    1       37.238  36.103   7.067  0.00  0.00    -0.507 OA
ATOM     10  H   LIG    1       37.378  36.178   6.109  0.00  0.00    +0.292 HD
ENDBRANCH   3   9
ENDBRANCH   1   6
BRANCH   2  11
ATOM     11  C   LIG    1       40.420  29.583  10.366  0.00  0.00    -0.018 A 
ATOM     12  C   LIG    1       41.732  29.502  10.858  0.00  0.00    +0.053 A 
ATOM     13  C   LIG    1       42.221  28.309  11.390  0.00  0.00    +0.121 A 
ATOM     14  C   LIG    1       41.427  27.174  11.443  0.00  0.00    +0.090 A 
ATOM     15  C   LIG    1       40.130  27.245  10.953  0.00  0.00    +0.121 A 
ATOM     16  C   LIG    1       39.620  28.430  10.417  0.00  0.00    +0.053 A 
BRANCH  13  17
ATOM     17  O   LIG    1       43.503  28.302  11.858  0.00  0.00    -0.507 OA
ATOM     18  H   LIG    1       43.836  29.215  11.857  0.00  0.00    +0.292 HD
ENDBRANCH  13  17
BRANCH  15  19
ATOM     19  O   LIG    1       39.368  26.112  11.020  0.00  0.00    -0.507 OA
ATOM     20  H   LIG    1       38.526  26.275  10.564  0.00  0.00    +0.292 HD
ENDBRANCH  15  19
ENDBRANCH   2  11
TORSDOF 5
ENDMDL
MODEL 8
REMARK VINA RESULT:      -7.4      2.226      8.064
REMARK  Name = 
REMARK                            x       y       z     vdW  Elec       q    Type
REMARK                         _______ _______ _______ _____ _____    ______ ____
ROOT
ATOM      1  C   LIG    1       39.174  31.069   8.774  0.00  0.00    +0.008 C 
ATOM      2  C   LIG    1       39.998  30.893   9.821  0.00  0.00    +0.009 C 
ENDROOT
BRANCH   1   6
ATOM      3  C   LIG    1       37.682  34.861   7.446  0.00  0.00    +0.117 A 
ATOM      4  C   LIG    1       38.645  34.217   6.682  0.00  0.00    +0.046 A 
ATOM      5  C   LIG    1       39.138  32.972   7.088  0.00  0.00    +0.011 A 
ATOM      6  C   LIG    1       38.672  32.362   8.261  0.00  0.00    -0.025 A 
ATOM      7  C   LIG    1       37.686  33.030   9.007  0.00  0.00    +0.011 A 
ATOM      8  C   LIG    1       37.192  34.276   8.605  0.00  0.00    +0.046 A 
BRANCH   3   9
ATOM      9  O   LIG    1       37.243  36.080   7.022  0.00  0.00    -0.507 OA
ATOM     10  H   LIG    1       36.278  36.114   7.123  0.00  0.00    +0.292 HD
ENDBRANCH   3   9
ENDBRANCH   1   6
BRANCH   2  11
ATOM     11  C   LIG    1       40.459  29.597  10.367  0.00  0.00    -0.018 A 
ATOM     12  C   LIG    1       39.562  28.516  10.345  0.00  0.00    +0.053 A 
ATOM     13  C   LIG    1       39.946  27.263  10.822  0.00  0.00    +0.121 A 
ATOM     14  C   LIG    1       41.219  27.053  11.331  0.00  0.00    +0.090 A 
ATOM     15  C   LIG    1       42.108  28.119  11.361  0.00  0.00    +0.121 A 
ATOM     16  C   LIG    1       41.744  29.382  10.888  0.00  0.00    +0.053 A 
BRANCH  13  17
ATOM     17  O   LIG    1       39.029  26.255  10.764  0.00  0.00    -0.507 OA
ATOM     18  H   LIG    1       38.141  26.648  10.717  0.00  0.00    +0.292 HD
ENDBRANCH  13  17
BRANCH  15  19
ATOM     19  O   LIG    1       43.356  27.884  11.866  0.00  0.00    -0.507 OA
ATOM     20  H   LIG    1       43.838  28.727  11.913  0.00  0.00    +0.292 HD
ENDBRANCH  15  19
ENDBRANCH   2  11
TORSDOF 5
ENDMDL
MODEL 9
REMARK VINA RESULT:      -7.3      1.909      7.511
REMARK  Name = 
REMARK                            x       y       z     vdW  Elec       q    Type
REMARK                         _______ _______ _______ _____ _____    ______ ____
ROOT
ATOM      1  C   LIG    1       39.276  33.237   6.847  0.00  0.00    +0.008 C 
ATOM      2  C   LIG    1       38.813  32.372   7.765  0.00  0.00    +0.009 C 
ENDROOT
BRANCH   1   6
ATOM      3  C   LIG    1       36.982  36.345   4.988  0.00  0.00    +0.117 A 
ATOM      4  C   LIG    1       37.647  36.622   6.175  0.00  0.00    +0.046 A 
ATOM      5  C   LIG    1       38.412  35.629   6.794  0.00  0.00    +0.011 A 
ATOM      6  C   LIG    1       38.520  34.349   6.231  0.00  0.00    -0.025 A 
ATOM      7  C   LIG    1       37.849  34.100   5.021  0.00  0.00    +0.011 A 
ATOM      8  C   LIG    1       37.081  35.092   4.400  0.00  0.00    +0.046 A 
BRANCH   3   9
ATOM      9  O   LIG    1       36.234  37.338   4.430  0.00  0.00    -0.507 OA
ATOM     10  H   LIG    1       35.689  37.742   5.124  0.00  0.00    +0.292 HD
ENDBRANCH   3   9
ENDBRANCH   1   6
BRANCH   2  11
ATOM     11  C   LIG    1       39.553  31.228   8.343  0.00  0.00    -0.018 A 
ATOM     12  C   LIG    1       39.318  30.903   9.689  0.00  0.00    +0.053 A 
ATOM     13  C   LIG    1       39.966  29.821  10.284  0.00  0.00    +0.121 A 
ATOM     14  C   LIG    1       40.859  29.041   9.564  0.00  0.00    +0.090 A 
ATOM     15  C   LIG    1       41.099  29.360   8.234  0.00  0.00    +0.121 A 
ATOM     16  C   LIG    1       40.461  30.440   7.620  0.00  0.00    +0.053 A 
BRANCH  13  17
ATOM     17  O   LIG    1       39.687  29.556  11.593  0.00  0.00    -0.507 OA
ATOM     18  H   LIG    1       39.494  30.395  12.043  0.00  0.00    +0.292 HD
ENDBRANCH  13  17
BRANCH  15  19
ATOM     19  O   LIG    1       41.982  28.574   7.548  0.00  0.00    -0.507 OA
ATOM     20  H   LIG    1       41.565  28.288   6.718  0.00  0.00    +0.292 HD
ENDBRANCH  15  19
ENDBRANCH   2  11
TORSDOF 5
ENDMDL
