MODEL 1
REMARK VINA RESULT:      -8.5      0.000      0.000
REMARK  Name = 
REMARK                            x       y       z     vdW  Elec       q    Type
REMARK                         _______ _______ _______ _____ _____    ______ ____
ROOT
ATOM      1  C   LIG    1        1.546  -0.316  23.990  0.00  0.00    +0.008 C 
ATOM      2  C   LIG    1        1.927   0.108  22.773  0.00  0.00    +0.009 C 
ENDROOT
BRANCH   1   6
ATOM      3  C   LIG    1        0.020  -4.224  24.869  0.00  0.00    +0.117 A 
ATOM      4  C   LIG    1       -0.355  -3.161  25.679  0.00  0.00    +0.046 A 
ATOM      5  C   LIG    1        0.120  -1.875  25.406  0.00  0.00    +0.011 A 
ATOM      6  C   LIG    1        0.973  -1.639  24.318  0.00  0.00    -0.025 A 
ATOM      7  C   LIG    1        1.324  -2.731  23.505  0.00  0.00    +0.011 A 
ATOM      8  C   LIG    1        0.853  -4.020  23.778  0.00  0.00    +0.046 A 
BRANCH   3   9
ATOM      9  O   LIG    1       -0.452  -5.463  25.183  0.00  0.00    -0.507 OA
ATOM     10  H   LIG    1       -0.354  -5.598  26.140  0.00  0.00    +0.292 HD
ENDBRANCH   3   9
ENDBRANCH   1   6
BRANCH   2  11
ATOM     11  C   LIG    1        2.452   1.450  22.436  0.00  0.00    -0.018 A 
ATOM     12  C   LIG    1        3.035   1.631  21.172  0.00  0.00    +0.053 A 
ATOM     13  C   LIG    1        3.526   2.878  20.786  0.00  0.00    +0.121 A 
ATOM     14  C   LIG    1        3.453   3.968  21.641  0.00  0.00    +0.090 A 
ATOM     15  C   LIG    1        2.883   3.794  22.895  0.00  0.00    +0.121 A 
ATOM     16  C   LIG    1        2.386   2.554  23.300  0.00  0.00    +0.053 A 
BRANCH  13  17
ATOM     17  O   LIG    1        4.072   2.988  19.541  0.00  0.00    -0.507 OA
ATOM     18  H   LIG    1        4.875   3.531  19.604  0.00  0.00    +0.292 HD
ENDBRANCH  13  17
BRANCH  15  19
ATOM     19  O   LIG    1        2.822   4.885  23.716  0.00  0.00    -0.507 OA
ATOM     20  H   LIG    1        2.986   4.598  24.629  0.00  0.00    +0.292 HD
ENDBRANCH  15  19
ENDBRANCH   2  11
TORSDOF 5
ENDMDL
MODEL 2
REMARK VINA RESULT:      -8.5      0.217      2.010
REMARK  Name = 
REMARK                            x       y       z     vdW  Elec       q    Type
REMARK                         _______ _______ _______ _____ _____    ______ ____
ROOT
ATOM      1  C   LIG    1        1.471  -0.120  23.837  0.00  0.00    +0.008 C 
ATOM      2  C   LIG    1        2.065   0.184  22.670  0.00  0.00    +0.009 C 
ENDROOT
BRANCH   1   6
ATOM      3  C   LIG    1        0.058  -4.023  24.907  0.00  0.00    +0.117 A 
ATOM      4  C   LIG    1       -0.366  -2.930  25.651  0.00  0.00    +0.046 A 
ATOM      5  C   LIG    1        0.071  -1.645  25.314  0.00  0.00    +0.011 A 
ATOM      6  C   LIG    1        0.936  -1.442  24.229  0.00  0.00    -0.025 A 
ATOM      7  C   LIG    1        1.337  -2.564  23.484  0.00  0.00    +0.011 A 
ATOM      8  C   LIG    1        0.902  -3.851  23.820  0.00  0.00    +0.046 A 
BRANCH   3   9
ATOM      9  O   LIG    1       -0.380  -5.258  25.283  0.00  0.00    -0.507 OA
ATOM     10  H   LIG    1       -0.237  -5.360  26.238  0.00  0.00    +0.292 HD
ENDBRANCH   3   9
ENDBRANCH   1   6
BRANCH   2  11
ATOM     11  C   LIG    1        2.554   1.519  22.257  0.00  0.00    -0.018 A 
ATOM     12  C   LIG    1        2.413   2.582  23.164  0.00  0.00    +0.053 A 
ATOM     13  C   LIG    1        2.876   3.857  22.843  0.00  0.00    +0.121 A 
ATOM     14  C   LIG    1        3.485   4.109  21.622  0.00  0.00    +0.090 A 
ATOM     15  C   LIG    1        3.622   3.063  20.719  0.00  0.00    +0.121 A 
ATOM     16  C   LIG    1        3.165   1.778  21.021  0.00  0.00    +0.053 A 
BRANCH  13  17
ATOM     17  O   LIG    1        2.714   4.844  23.772  0.00  0.00    -0.507 OA
ATOM     18  H   LIG    1        1.948   4.622  24.326  0.00  0.00    +0.292 HD
ENDBRANCH  13  17
BRANCH  15  19
ATOM     19  O   LIG    1        4.227   3.338  19.525  0.00  0.00    -0.507 OA
ATOM     20  H   LIG    1        5.168   3.519  19.686  0.00  0.00    +0.292 HD
ENDBRANCH  15  19
ENDBRANCH   2  11
TORSDOF 5
ENDMDL
MODEL 3
REMARK VINA RESULT:      -8.4      1.329      7.299
REMARK  Name = 
REMARK                            x       y       z     vdW  Elec       q    Type
REMARK                         _______ _______ _______ _____ _____    ______ ____
ROOT
ATOM      1  C   LIG    1        1.544   0.522  23.340  0.00  0.00    +0.008 C 
ATOM      2  C   LIG    1        1.556  -0.796  23.077  0.00  0.00    +0.009 C 
ENDROOT
BRANCH   1   6
ATOM      3  C   LIG    1        3.190   3.505  20.739  0.00  0.00    +0.117 A 
ATOM      4  C   LIG    1        2.297   3.897  21.726  0.00  0.00    +0.046 A 
ATOM      5  C   LIG    1        1.756   2.944  22.595  0.00  0.00    +0.011 A 
ATOM      6  C   LIG    1        2.104   1.591  22.485  0.00  0.00    -0.025 A 
ATOM      7  C   LIG    1        3.023   1.224  21.486  0.00  0.00    +0.011 A 
ATOM      8  C   LIG    1        3.564   2.174  20.614  0.00  0.00    +0.046 A 
BRANCH   3   9
ATOM      9  O   LIG    1        3.678   4.464  19.903  0.00  0.00    -0.507 OA
ATOM     10  H   LIG    1        3.502   5.335  20.295  0.00  0.00    +0.292 HD
ENDBRANCH   3   9
ENDBRANCH   1   6
BRANCH   2  11
ATOM     11  C   LIG    1        1.042  -1.870  23.957  0.00  0.00    -0.018 A 
ATOM     12  C   LIG    1        0.891  -3.154  23.410  0.00  0.00    +0.053 A 
ATOM     13  C   LIG    1        0.434  -4.213  24.194  0.00  0.00    +0.121 A 
ATOM     14  C   LIG    1        0.116  -4.025  25.531  0.00  0.00    +0.090 A 
ATOM     15  C   LIG    1        0.258  -2.756  26.077  0.00  0.00    +0.121 A 
ATOM     16  C   LIG    1        0.714  -1.682  25.308  0.00  0.00    +0.053 A 
BRANCH  13  17
ATOM     17  O   LIG    1        0.317  -5.437  23.602  0.00  0.00    -0.507 OA
ATOM     18  H   LIG    1        0.360  -5.318  22.638  0.00  0.00    +0.292 HD
ENDBRANCH  13  17
BRANCH  15  19
ATOM     19  O   LIG    1       -0.060  -2.599  27.396  0.00  0.00    -0.507 OA
ATOM     20  H   LIG    1       -0.955  -2.227  27.459  0.00  0.00    +0.292 HD
ENDBRANCH  15  19
ENDBRANCH   2  11
TORSDOF 5
ENDMDL
MODEL 4
REMARK VINA RESULT:      -7.3      2.630      7.448
REMARK  Name = 
REMARK                            x       y       z     vdW  Elec       q    Type
REMARK                         _______ _______ _______ _____ _____    ______ ____
ROOT
ATOM      1  C   LIG    1        2.220  -2.139  21.780  0.00  0.00    +0.008 C 
ATOM      2  C   LIG    1        1.798  -1.739  22.992  0.00  0.00    +0.009 C 
ENDROOT
BRANCH   1   6
ATOM      3  C   LIG    1        4.251   0.390  18.978  0.00  0.00    +0.117 A 
ATOM      4  C   LIG    1        4.126  -0.961  18.691  0.00  0.00    +0.046 A 
ATOM      5  C   LIG    1        3.456  -1.805  19.583  0.00  0.00    +0.011 A 
ATOM      6  C   LIG    1        2.905  -1.303  20.770  0.00  0.00    -0.025 A 
ATOM      7  C   LIG    1        3.034   0.072  21.029  0.00  0.00    +0.011 A 
ATOM      8  C   LIG    1        3.705   0.918  20.140  0.00  0.00    +0.046 A 
BRANCH   3   9
ATOM      9  O   LIG    1        4.926   1.171  18.089  0.00  0.00    -0.507 OA
ATOM     10  H   LIG    1        4.712   0.874  17.190  0.00  0.00    +0.292 HD
ENDBRANCH   3   9
ENDBRANCH   1   6
BRANCH   2  11
ATOM     11  C   LIG    1        1.066  -2.562  23.981  0.00  0.00    -0.018 A 
ATOM     12  C   LIG    1        0.573  -3.809  23.565  0.00  0.00    +0.053 A 
ATOM     13  C   LIG    1       -0.104  -4.640  24.457  0.00  0.00    +0.121 A 
ATOM     14  C   LIG    1       -0.309  -4.256  25.774  0.00  0.00    +0.090 A 
ATOM     15  C   LIG    1        0.172  -3.022  26.190  0.00  0.00    +0.121 A 
ATOM     16  C   LIG    1        0.852  -2.174  25.312  0.00  0.00    +0.053 A 
BRANCH  13  17
ATOM     17  O   LIG    1       -0.550  -5.842  23.991  0.00  0.00    -0.507 OA
ATOM     18  H   LIG    1       -0.429  -6.507  24.689  0.00  0.00    +0.292 HD
ENDBRANCH  13  17
BRANCH  15  19
ATOM     19  O   LIG    1       -0.042  -2.669  27.493  0.00  0.00    -0.507 OA
ATOM     20  H   LIG    1        0.577  -1.959  27.730  0.00  0.00    +0.292 HD
ENDBRANCH  15  19
ENDBRANCH   2  11
TORSDOF 5
ENDMDL
MODEL 5
REMARK VINA RESULT:      -7.0      9.366     10.046
REMARK  Name = 
REMARK                            x       y       z     vdW  Elec       q    Type
REMARK                         _______ _______ _______ _____ _____    ______ ____
ROOT
ATOM      1  C   LIG    1        8.615  -4.775  27.618  0.00  0.00    +0.008 C 
ATOM      2  C   LIG    1        8.833  -3.796  26.723  0.00  0.00    +0.009 C 
ENDROOT
BRANCH   1   6
ATOM      3  C   LIG    1        7.907  -4.180  31.803  0.00  0.00    +0.117 A 
ATOM      4  C   LIG    1        6.819  -4.323  30.955  0.00  0.00    +0.046 A 
ATOM      5  C   LIG    1        7.024  -4.531  29.587  0.00  0.00    +0.011 A 
ATOM      6  C   LIG    1        8.320  -4.598  29.056  0.00  0.00    -0.025 A 
ATOM      7  C   LIG    1        9.404  -4.464  29.941  0.00  0.00    +0.011 A 
ATOM      8  C   LIG    1        9.202  -4.254  31.310  0.00  0.00    +0.046 A 
BRANCH   3   9
ATOM      9  O   LIG    1        7.660  -3.961  33.126  0.00  0.00    -0.507 OA
ATOM     10  H   LIG    1        6.891  -4.492  33.389  0.00  0.00    +0.292 HD
ENDBRANCH   3   9
ENDBRANCH   1   6
BRANCH   2  11
ATOM     11  C   LIG    1        9.179  -3.974  25.296  0.00  0.00    -0.018 A 
ATOM     12  C   LIG    1       10.539  -4.006  24.947  0.00  0.00    +0.053 A 
ATOM     13  C   LIG    1       10.929  -4.195  23.621  0.00  0.00    +0.121 A 
ATOM     14  C   LIG    1        9.987  -4.354  22.616  0.00  0.00    +0.090 A 
ATOM     15  C   LIG    1        8.641  -4.318  22.954  0.00  0.00    +0.121 A 
ATOM     16  C   LIG    1        8.228  -4.129  24.275  0.00  0.00    +0.053 A 
BRANCH  13  17
ATOM     17  O   LIG    1       12.267  -4.224  23.352  0.00  0.00    -0.507 OA
ATOM     18  H   LIG    1       12.532  -3.351  23.018  0.00  0.00    +0.292 HD
ENDBRANCH  13  17
BRANCH  15  19
ATOM     19  O   LIG    1        7.734  -4.478  21.944  0.00  0.00    -0.507 OA
ATOM     20  H   LIG    1        7.506  -5.421  21.876  0.00  0.00    +0.292 HD
ENDBRANCH  15  19
ENDBRANCH   2  11
TORSDOF 5
ENDMDL
MODEL 6
REMARK VINA RESULT:      -7.0      9.447     10.145
REMARK  Name = 
REMARK                            x       y       z     vdW  Elec       q    Type
REMARK                         _______ _______ _______ _____ _____    ______ ____
ROOT
ATOM      1  C   LIG    1        9.203  -4.304  28.267  0.00  0.00    +0.008 C 
ATOM      2  C   LIG    1        8.481  -4.120  27.148  0.00  0.00    +0.009 C 
ENDROOT
BRANCH   1   6
ATOM      3  C   LIG    1        7.605  -4.177  32.242  0.00  0.00    +0.117 A 
ATOM      4  C   LIG    1        8.982  -4.149  32.074  0.00  0.00    +0.046 A 
ATOM      5  C   LIG    1        9.527  -4.177  30.786  0.00  0.00    +0.011 A 
ATOM      6  C   LIG    1        8.699  -4.232  29.656  0.00  0.00    -0.025 A 
ATOM      7  C   LIG    1        7.308  -4.245  29.856  0.00  0.00    +0.011 A 
ATOM      8  C   LIG    1        6.760  -4.219  31.143  0.00  0.00    +0.046 A 
BRANCH   3   9
ATOM      9  O   LIG    1        7.118  -4.167  33.516  0.00  0.00    -0.507 OA
ATOM     10  H   LIG    1        6.766  -3.282  33.705  0.00  0.00    +0.292 HD
ENDBRANCH   3   9
ENDBRANCH   1   6
BRANCH   2  11
ATOM     11  C   LIG    1        8.995  -4.141  25.760  0.00  0.00    -0.018 A 
ATOM     12  C   LIG    1        8.062  -4.211  24.713  0.00  0.00    +0.053 A 
ATOM     13  C   LIG    1        8.483  -4.209  23.384  0.00  0.00    +0.121 A 
ATOM     14  C   LIG    1        9.831  -4.141  23.062  0.00  0.00    +0.090 A 
ATOM     15  C   LIG    1       10.759  -4.077  24.093  0.00  0.00    +0.121 A 
ATOM     16  C   LIG    1       10.358  -4.078  25.432  0.00  0.00    +0.053 A 
BRANCH  13  17
ATOM     17  O   LIG    1        7.525  -4.272  22.415  0.00  0.00    -0.507 OA
ATOM     18  H   LIG    1        7.593  -3.474  21.863  0.00  0.00    +0.292 HD
ENDBRANCH  13  17
BRANCH  15  19
ATOM     19  O   LIG    1       12.079  -4.008  23.749  0.00  0.00    -0.507 OA
ATOM     20  H   LIG    1       12.174  -4.281  22.821  0.00  0.00    +0.292 HD
ENDBRANCH  15  19
ENDBRANCH   2  11
TORSDOF 5
ENDMDL
MODEL 7
REMARK VINA RESULT:      -6.8      9.673     11.396
REMARK  Name = 
REMARK                            x       y       z     vdW  Elec       q    Type
REMARK                         _______ _______ _______ _____ _____    ______ ____
ROOT
ATOM      1  C   LIG    1        9.412  -3.730  27.099  0.00  0.00    +0.008 C 
ATOM      2  C   LIG    1        8.613  -4.390  27.955  0.00  0.00    +0.009 C 
ENDROOT
BRANCH   1   6
ATOM      3  C   LIG    1        9.682  -4.299  22.860  0.00  0.00    +0.117 A 
ATOM      4  C   LIG    1        8.427  -4.211  23.444  0.00  0.00    +0.046 A 
ATOM      5  C   LIG    1        8.312  -4.013  24.824  0.00  0.00    +0.011 A 
ATOM      6  C   LIG    1        9.453  -3.900  25.631  0.00  0.00    -0.025 A 
ATOM      7  C   LIG    1       10.712  -3.978  25.010  0.00  0.00    +0.011 A 
ATOM      8  C   LIG    1       10.830  -4.179  23.630  0.00  0.00    +0.046 A 
BRANCH   3   9
ATOM      9  O   LIG    1        9.746  -4.511  21.515  0.00  0.00    -0.507 OA
ATOM     10  H   LIG    1       10.467  -5.134  21.333  0.00  0.00    +0.292 HD
ENDBRANCH   3   9
ENDBRANCH   1   6
BRANCH   2  11
ATOM     11  C   LIG    1        8.608  -4.258  29.429  0.00  0.00    -0.018 A 
ATOM     12  C   LIG    1        7.367  -4.244  30.086  0.00  0.00    +0.053 A 
ATOM     13  C   LIG    1        7.297  -4.147  31.475  0.00  0.00    +0.121 A 
ATOM     14  C   LIG    1        8.449  -4.059  32.242  0.00  0.00    +0.090 A 
ATOM     15  C   LIG    1        9.680  -4.066  31.599  0.00  0.00    +0.121 A 
ATOM     16  C   LIG    1        9.771  -4.163  30.208  0.00  0.00    +0.053 A 
BRANCH  13  17
ATOM     17  O   LIG    1        6.060  -4.147  32.050  0.00  0.00    -0.507 OA
ATOM     18  H   LIG    1        5.872  -5.042  32.376  0.00  0.00    +0.292 HD
ENDBRANCH  13  17
BRANCH  15  19
ATOM     19  O   LIG    1       10.798  -3.980  32.379  0.00  0.00    -0.507 OA
ATOM     20  H   LIG    1       11.582  -4.082  31.813  0.00  0.00    +0.292 HD
ENDBRANCH  15  19
ENDBRANCH   2  11
TORSDOF 5
ENDMDL
MODEL 8
REMARK VINA RESULT:      -6.8     11.498     11.708
REMARK  Name = 
REMARK                            x       y       z     vdW  Elec       q    Type
REMARK                         _______ _______ _______ _____ _____    ______ ____
ROOT
ATOM      1  C   LIG    1       11.666  -3.349  25.993  0.00  0.00    +0.008 C 
ATOM      2  C   LIG    1       12.417  -2.368  26.523  0.00  0.00    +0.009 C 
ENDROOT
BRANCH   1   6
ATOM      3  C   LIG    1        7.637  -4.211  27.173  0.00  0.00    +0.117 A 
ATOM      4  C   LIG    1        7.920  -4.056  25.823  0.00  0.00    +0.046 A 
ATOM      5  C   LIG    1        9.229  -3.787  25.412  0.00  0.00    +0.011 A 
ATOM      6  C   LIG    1       10.267  -3.671  26.348  0.00  0.00    -0.025 A 
ATOM      7  C   LIG    1        9.954  -3.848  27.706  0.00  0.00    +0.011 A 
ATOM      8  C   LIG    1        8.645  -4.115  28.121  0.00  0.00    +0.046 A 
BRANCH   3   9
ATOM      9  O   LIG    1        6.344  -4.454  27.529  0.00  0.00    -0.507 OA
ATOM     10  H   LIG    1        6.280  -4.435  28.497  0.00  0.00    +0.292 HD
ENDBRANCH   3   9
ENDBRANCH   1   6
BRANCH   2  11
ATOM     11  C   LIG    1       13.833  -2.079  26.206  0.00  0.00    -0.018 A 
ATOM     12  C   LIG    1       14.133  -1.577  24.929  0.00  0.00    +0.053 A 
ATOM     13  C   LIG    1       15.445  -1.262  24.579  0.00  0.00    +0.121 A 
ATOM     14  C   LIG    1       16.486  -1.437  25.479  0.00  0.00    +0.090 A 
ATOM     15  C   LIG    1       16.197  -1.938  26.741  0.00  0.00    +0.121 A 
ATOM     16  C   LIG    1       14.889  -2.260  27.112  0.00  0.00    +0.053 A 
BRANCH  13  17
ATOM     17  O   LIG    1       15.667  -0.772  23.324  0.00  0.00    -0.507 OA
ATOM     18  H   LIG    1       16.389  -1.280  22.919  0.00  0.00    +0.292 HD
ENDBRANCH  13  17
BRANCH  15  19
ATOM     19  O   LIG    1       17.240  -2.099  27.609  0.00  0.00    -0.507 OA
ATOM     20  H   LIG    1       18.072  -2.023  27.114  0.00  0.00    +0.292 HD
ENDBRANCH  15  19
ENDBRANCH   2  11
TORSDOF 5
ENDMDL
MODEL 9
REMARK VINA RESULT:      -6.8      9.406     11.111
REMARK  Name = 
REMARK                            x       y       z     vdW  Elec       q    Type
REMARK                         _______ _______ _______ _____ _____    ______ ____
ROOT
ATOM      1  C   LIG    1        9.163  -3.821  26.577  0.00  0.00    +0.008 C 
ATOM      2  C   LIG    1        8.461  -4.584  27.432  0.00  0.00    +0.009 C 
ENDROOT
BRANCH   1   6
ATOM      3  C   LIG    1        9.615  -4.448  22.361  0.00  0.00    +0.117 A 
ATOM      4  C   LIG    1        8.335  -4.384  22.894  0.00  0.00    +0.046 A 
ATOM      5  C   LIG    1        8.162  -4.168  24.265  0.00  0.00    +0.011 A 
ATOM      6  C   LIG    1        9.267  -4.013  25.114  0.00  0.00    -0.025 A 
ATOM      7  C   LIG    1       10.551  -4.067  24.544  0.00  0.00    +0.011 A 
ATOM      8  C   LIG    1       10.728  -4.286  23.173  0.00  0.00    +0.046 A 
BRANCH   3   9
ATOM      9  O   LIG    1        9.737  -4.679  21.023  0.00  0.00    -0.507 OA
ATOM     10  H   LIG    1       10.449  -5.323  20.883  0.00  0.00    +0.292 HD
ENDBRANCH   3   9
ENDBRANCH   1   6
BRANCH   2  11
ATOM     11  C   LIG    1        8.400  -4.424  28.902  0.00  0.00    -0.018 A 
ATOM     12  C   LIG    1        9.606  -4.243  29.596  0.00  0.00    +0.053 A 
ATOM     13  C   LIG    1        9.612  -4.062  30.979  0.00  0.00    +0.121 A 
ATOM     14  C   LIG    1        8.428  -4.059  31.702  0.00  0.00    +0.090 A 
ATOM     15  C   LIG    1        7.232  -4.243  31.022  0.00  0.00    +0.121 A 
ATOM     16  C   LIG    1        7.205  -4.426  29.638  0.00  0.00    +0.053 A 
BRANCH  13  17
ATOM     17  O   LIG    1       10.818  -3.884  31.591  0.00  0.00    -0.507 OA
ATOM     18  H   LIG    1       11.342  -3.260  31.062  0.00  0.00    +0.292 HD
ENDBRANCH  13  17
BRANCH  15  19
ATOM     19  O   LIG    1        6.081  -4.234  31.759  0.00  0.00    -0.507 OA
ATOM     20  H   LIG    1        6.314  -4.254  32.702  0.00  0.00    +0.292 HD
ENDBRANCH  15  19
ENDBRANCH   2  11
TORSDOF 5
ENDMDL
