MODEL 1
REMARK VINA RESULT:      -2.5      0.000      0.000
REMARK  Name = 
REMARK                            x       y       z     vdW  Elec       q    Type
REMARK                         _______ _______ _______ _____ _____    ______ ____
ROOT
ATOM      1  C   LIG    1       18.228   3.844  51.135  0.00  0.00    +0.008 C 
ATOM      2  C   LIG    1       17.690   2.798  51.785  0.00  0.00    +0.009 C 
ENDROOT
BRANCH   1   6
ATOM      3  C   LIG    1       22.441   4.487  50.683  0.00  0.00    +0.117 A 
ATOM      4  C   LIG    1       21.563   5.261  49.938  0.00  0.00    +0.046 A 
ATOM      5  C   LIG    1       20.183   5.079  50.077  0.00  0.00    +0.011 A 
ATOM      6  C   LIG    1       19.670   4.121  50.964  0.00  0.00    -0.025 A 
ATOM      7  C   LIG    1       20.583   3.362  51.717  0.00  0.00    +0.011 A 
ATOM      8  C   LIG    1       21.964   3.541  51.578  0.00  0.00    +0.046 A 
BRANCH   3   9
ATOM      9  O   LIG    1       23.777   4.686  50.501  0.00  0.00    -0.507 OA
ATOM     10  H   LIG    1       24.032   5.509  50.949  0.00  0.00    +0.292 HD
ENDBRANCH   3   9
ENDBRANCH   1   6
BRANCH   2  11
ATOM     11  C   LIG    1       16.247   2.548  52.002  0.00  0.00    -0.018 A 
ATOM     12  C   LIG    1       15.498   3.538  52.658  0.00  0.00    +0.053 A 
ATOM     13  C   LIG    1       14.130   3.372  52.870  0.00  0.00    +0.121 A 
ATOM     14  C   LIG    1       13.476   2.227  52.441  0.00  0.00    +0.090 A 
ATOM     15  C   LIG    1       14.211   1.242  51.796  0.00  0.00    +0.121 A 
ATOM     16  C   LIG    1       15.583   1.388  51.574  0.00  0.00    +0.053 A 
BRANCH  13  17
ATOM     17  O   LIG    1       13.460   4.375  53.508  0.00  0.00    -0.507 OA
ATOM     18  H   LIG    1       14.111   5.014  53.844  0.00  0.00    +0.292 HD
ENDBRANCH  13  17
BRANCH  15  19
ATOM     19  O   LIG    1       13.542   0.125  51.382  0.00  0.00    -0.507 OA
ATOM     20  H   LIG    1       12.680   0.393  51.021  0.00  0.00    +0.292 HD
ENDBRANCH  15  19
ENDBRANCH   2  11
TORSDOF 5
ENDMDL
MODEL 2
REMARK VINA RESULT:      -2.3      1.916      2.870
REMARK  Name = 
REMARK                            x       y       z     vdW  Elec       q    Type
REMARK                         _______ _______ _______ _____ _____    ______ ____
ROOT
ATOM      1  C   LIG    1       17.932   2.408  52.156  0.00  0.00    +0.008 C 
ATOM      2  C   LIG    1       16.610   2.474  51.920  0.00  0.00    +0.009 C 
ENDROOT
BRANCH   1   6
ATOM      3  C   LIG    1       20.771   5.346  50.859  0.00  0.00    +0.117 A 
ATOM      4  C   LIG    1       20.692   5.043  52.211  0.00  0.00    +0.046 A 
ATOM      5  C   LIG    1       19.783   4.079  52.658  0.00  0.00    +0.011 A 
ATOM      6  C   LIG    1       18.944   3.409  51.755  0.00  0.00    -0.025 A 
ATOM      7  C   LIG    1       19.056   3.725  50.390  0.00  0.00    +0.011 A 
ATOM      8  C   LIG    1       19.963   4.691  49.941  0.00  0.00    +0.046 A 
BRANCH   3   9
ATOM      9  O   LIG    1       21.658   6.305  50.472  0.00  0.00    -0.507 OA
ATOM     10  H   LIG    1       22.472   5.870  50.171  0.00  0.00    +0.292 HD
ENDBRANCH   3   9
ENDBRANCH   1   6
BRANCH   2  11
ATOM     11  C   LIG    1       15.604   1.448  52.275  0.00  0.00    -0.018 A 
ATOM     12  C   LIG    1       15.028   0.702  51.234  0.00  0.00    +0.053 A 
ATOM     13  C   LIG    1       14.093  -0.296  51.507  0.00  0.00    +0.121 A 
ATOM     14  C   LIG    1       13.706  -0.574  52.809  0.00  0.00    +0.090 A 
ATOM     15  C   LIG    1       14.268   0.164  53.843  0.00  0.00    +0.121 A 
ATOM     16  C   LIG    1       15.206   1.168  53.591  0.00  0.00    +0.053 A 
BRANCH  13  17
ATOM     17  O   LIG    1       13.578  -0.988  50.450  0.00  0.00    -0.507 OA
ATOM     18  H   LIG    1       12.995  -1.686  50.794  0.00  0.00    +0.292 HD
ENDBRANCH  13  17
BRANCH  15  19
ATOM     19  O   LIG    1       13.871  -0.132  55.116  0.00  0.00    -0.507 OA
ATOM     20  H   LIG    1       13.976   0.661  55.668  0.00  0.00    +0.292 HD
ENDBRANCH  15  19
ENDBRANCH   2  11
TORSDOF 5
ENDMDL
MODEL 3
REMARK VINA RESULT:      -2.1      1.382      3.056
REMARK  Name = 
REMARK                            x       y       z     vdW  Elec       q    Type
REMARK                         _______ _______ _______ _____ _____    ______ ____
ROOT
ATOM      1  C   LIG    1       20.390   3.460  51.415  0.00  0.00    +0.008 C 
ATOM      2  C   LIG    1       19.317   4.266  51.489  0.00  0.00    +0.009 C 
ENDROOT
BRANCH   1   6
ATOM      3  C   LIG    1       24.306   4.769  50.267  0.00  0.00    +0.117 A 
ATOM      4  C   LIG    1       24.169   3.536  50.888  0.00  0.00    +0.046 A 
ATOM      5  C   LIG    1       22.900   3.081  51.261  0.00  0.00    +0.011 A 
ATOM      6  C   LIG    1       21.757   3.856  51.015  0.00  0.00    -0.025 A 
ATOM      7  C   LIG    1       21.925   5.094  50.371  0.00  0.00    +0.011 A 
ATOM      8  C   LIG    1       23.193   5.553  49.999  0.00  0.00    +0.046 A 
BRANCH   3   9
ATOM      9  O   LIG    1       25.563   5.180  49.938  0.00  0.00    -0.507 OA
ATOM     10  H   LIG    1       25.979   4.496  49.388  0.00  0.00    +0.292 HD
ENDBRANCH   3   9
ENDBRANCH   1   6
BRANCH   2  11
ATOM     11  C   LIG    1       17.937   3.860  51.839  0.00  0.00    -0.018 A 
ATOM     12  C   LIG    1       17.634   2.489  51.841  0.00  0.00    +0.053 A 
ATOM     13  C   LIG    1       16.359   2.043  52.186  0.00  0.00    +0.121 A 
ATOM     14  C   LIG    1       15.359   2.939  52.534  0.00  0.00    +0.090 A 
ATOM     15  C   LIG    1       15.651   4.297  52.529  0.00  0.00    +0.121 A 
ATOM     16  C   LIG    1       16.922   4.765  52.186  0.00  0.00    +0.053 A 
BRANCH  13  17
ATOM     17  O   LIG    1       16.133   0.697  52.175  0.00  0.00    -0.507 OA
ATOM     18  H   LIG    1       16.644   0.306  51.447  0.00  0.00    +0.292 HD
ENDBRANCH  13  17
BRANCH  15  19
ATOM     19  O   LIG    1       14.649   5.157  52.877  0.00  0.00    -0.507 OA
ATOM     20  H   LIG    1       14.998   6.064  52.867  0.00  0.00    +0.292 HD
ENDBRANCH  15  19
ENDBRANCH   2  11
TORSDOF 5
ENDMDL
MODEL 4
REMARK VINA RESULT:      -2.1      2.777      3.273
REMARK  Name = 
REMARK                            x       y       z     vdW  Elec       q    Type
REMARK                         _______ _______ _______ _____ _____    ______ ____
ROOT
ATOM      1  C   LIG    1       17.482   3.321  51.515  0.00  0.00    +0.008 C 
ATOM      2  C   LIG    1       16.691   2.846  52.493  0.00  0.00    +0.009 C 
ENDROOT
BRANCH   1   6
ATOM      3  C   LIG    1       19.373   7.166  51.426  0.00  0.00    +0.117 A 
ATOM      4  C   LIG    1       19.765   6.251  52.392  0.00  0.00    +0.046 A 
ATOM      5  C   LIG    1       19.172   4.985  52.434  0.00  0.00    +0.011 A 
ATOM      6  C   LIG    1       18.182   4.624  51.509  0.00  0.00    -0.025 A 
ATOM      7  C   LIG    1       17.815   5.565  50.532  0.00  0.00    +0.011 A 
ATOM      8  C   LIG    1       18.405   6.833  50.489  0.00  0.00    +0.046 A 
BRANCH   3   9
ATOM      9  O   LIG    1       19.965   8.394  51.434  0.00  0.00    -0.507 OA
ATOM     10  H   LIG    1       19.852   8.787  52.315  0.00  0.00    +0.292 HD
ENDBRANCH   3   9
ENDBRANCH   1   6
BRANCH   2  11
ATOM     11  C   LIG    1       15.950   1.566  52.477  0.00  0.00    -0.018 A 
ATOM     12  C   LIG    1       15.897   0.819  53.665  0.00  0.00    +0.053 A 
ATOM     13  C   LIG    1       15.193  -0.383  53.720  0.00  0.00    +0.121 A 
ATOM     14  C   LIG    1       14.530  -0.873  52.604  0.00  0.00    +0.090 A 
ATOM     15  C   LIG    1       14.583  -0.142  51.424  0.00  0.00    +0.121 A 
ATOM     16  C   LIG    1       15.282   1.064  51.348  0.00  0.00    +0.053 A 
BRANCH  13  17
ATOM     17  O   LIG    1       15.176  -1.055  54.907  0.00  0.00    -0.507 OA
ATOM     18  H   LIG    1       14.919  -0.433  55.609  0.00  0.00    +0.292 HD
ENDBRANCH  13  17
BRANCH  15  19
ATOM     19  O   LIG    1       13.919  -0.647  50.342  0.00  0.00    -0.507 OA
ATOM     20  H   LIG    1       13.933   0.015  49.630  0.00  0.00    +0.292 HD
ENDBRANCH  15  19
ENDBRANCH   2  11
TORSDOF 5
ENDMDL
MODEL 5
REMARK VINA RESULT:      -2.0      2.481      4.212
REMARK  Name = 
REMARK                            x       y       z     vdW  Elec       q    Type
REMARK                         _______ _______ _______ _____ _____    ______ ____
ROOT
ATOM      1  C   LIG    1       21.873   3.279  51.198  0.00  0.00    +0.008 C 
ATOM      2  C   LIG    1       21.023   4.079  51.865  0.00  0.00    +0.009 C 
ENDROOT
BRANCH   1   6
ATOM      3  C   LIG    1       26.129   3.788  51.139  0.00  0.00    +0.117 A 
ATOM      4  C   LIG    1       25.570   2.741  50.419  0.00  0.00    +0.046 A 
ATOM      5  C   LIG    1       24.183   2.562  50.412  0.00  0.00    +0.011 A 
ATOM      6  C   LIG    1       23.343   3.429  51.125  0.00  0.00    -0.025 A 
ATOM      7  C   LIG    1       23.934   4.489  51.833  0.00  0.00    +0.011 A 
ATOM      8  C   LIG    1       25.322   4.669  51.844  0.00  0.00    +0.046 A 
BRANCH   3   9
ATOM      9  O   LIG    1       27.486   3.913  51.132  0.00  0.00    -0.507 OA
ATOM     10  H   LIG    1       27.870   3.151  51.595  0.00  0.00    +0.292 HD
ENDBRANCH   3   9
ENDBRANCH   1   6
BRANCH   2  11
ATOM     11  C   LIG    1       19.548   3.960  51.895  0.00  0.00    -0.018 A 
ATOM     12  C   LIG    1       18.994   2.712  52.224  0.00  0.00    +0.053 A 
ATOM     13  C   LIG    1       17.612   2.543  52.292  0.00  0.00    +0.121 A 
ATOM     14  C   LIG    1       16.750   3.600  52.037  0.00  0.00    +0.090 A 
ATOM     15  C   LIG    1       17.292   4.835  51.706  0.00  0.00    +0.121 A 
ATOM     16  C   LIG    1       18.674   5.025  51.631  0.00  0.00    +0.053 A 
BRANCH  13  17
ATOM     17  O   LIG    1       17.139   1.307  52.624  0.00  0.00    -0.507 OA
ATOM     18  H   LIG    1       17.731   0.921  53.292  0.00  0.00    +0.292 HD
ENDBRANCH  13  17
BRANCH  15  19
ATOM     19  O   LIG    1       16.421   5.859  51.461  0.00  0.00    -0.507 OA
ATOM     20  H   LIG    1       16.617   6.233  50.586  0.00  0.00    +0.292 HD
ENDBRANCH  15  19
ENDBRANCH   2  11
TORSDOF 5
ENDMDL
MODEL 6
REMARK VINA RESULT:      -2.0      1.266      1.691
REMARK  Name = 
REMARK                            x       y       z     vdW  Elec       q    Type
REMARK                         _______ _______ _______ _____ _____    ______ ____
ROOT
ATOM      1  C   LIG    1       19.763   3.969  51.388  0.00  0.00    +0.008 C 
ATOM      2  C   LIG    1       18.588   4.512  51.748  0.00  0.00    +0.009 C 
ENDROOT
BRANCH   1   6
ATOM      3  C   LIG    1       23.404   5.958  50.311  0.00  0.00    +0.117 A 
ATOM      4  C   LIG    1       22.242   6.708  50.428  0.00  0.00    +0.046 A 
ATOM      5  C   LIG    1       21.044   6.084  50.791  0.00  0.00    +0.011 A 
ATOM      6  C   LIG    1       20.999   4.705  51.040  0.00  0.00    -0.025 A 
ATOM      7  C   LIG    1       22.194   3.973  50.929  0.00  0.00    +0.011 A 
ATOM      8  C   LIG    1       23.393   4.594  50.564  0.00  0.00    +0.046 A 
BRANCH   3   9
ATOM      9  O   LIG    1       24.544   6.605  49.938  0.00  0.00    -0.507 OA
ATOM     10  H   LIG    1       25.215   6.473  50.627  0.00  0.00    +0.292 HD
ENDBRANCH   3   9
ENDBRANCH   1   6
BRANCH   2  11
ATOM     11  C   LIG    1       17.338   3.778  52.045  0.00  0.00    -0.018 A 
ATOM     12  C   LIG    1       16.278   4.490  52.630  0.00  0.00    +0.053 A 
ATOM     13  C   LIG    1       15.067   3.861  52.912  0.00  0.00    +0.121 A 
ATOM     14  C   LIG    1       14.877   2.517  52.624  0.00  0.00    +0.090 A 
ATOM     15  C   LIG    1       15.923   1.806  52.050  0.00  0.00    +0.121 A 
ATOM     16  C   LIG    1       17.144   2.417  51.761  0.00  0.00    +0.053 A 
BRANCH  13  17
ATOM     17  O   LIG    1       14.076   4.613  53.474  0.00  0.00    -0.507 OA
ATOM     18  H   LIG    1       13.607   4.066  54.126  0.00  0.00    +0.292 HD
ENDBRANCH  13  17
BRANCH  15  19
ATOM     19  O   LIG    1       15.709   0.485  51.775  0.00  0.00    -0.507 OA
ATOM     20  H   LIG    1       14.929   0.407  51.200  0.00  0.00    +0.292 HD
ENDBRANCH  15  19
ENDBRANCH   2  11
TORSDOF 5
ENDMDL
MODEL 7
REMARK VINA RESULT:      -2.0      2.435      8.343
REMARK  Name = 
REMARK                            x       y       z     vdW  Elec       q    Type
REMARK                         _______ _______ _______ _____ _____    ______ ____
ROOT
ATOM      1  C   LIG    1       21.003   4.057  50.739  0.00  0.00    +0.008 C 
ATOM      2  C   LIG    1       21.917   3.231  51.276  0.00  0.00    +0.009 C 
ENDROOT
BRANCH   1   6
ATOM      3  C   LIG    1       16.881   4.169  51.907  0.00  0.00    +0.117 A 
ATOM      4  C   LIG    1       17.516   5.359  51.582  0.00  0.00    +0.046 A 
ATOM      5  C   LIG    1       18.858   5.347  51.186  0.00  0.00    +0.011 A 
ATOM      6  C   LIG    1       19.574   4.145  51.110  0.00  0.00    -0.025 A 
ATOM      7  C   LIG    1       18.901   2.953  51.430  0.00  0.00    +0.011 A 
ATOM      8  C   LIG    1       17.560   2.962  51.829  0.00  0.00    +0.046 A 
BRANCH   3   9
ATOM      9  O   LIG    1       15.579   4.230  52.305  0.00  0.00    -0.507 OA
ATOM     10  H   LIG    1       15.499   3.801  53.172  0.00  0.00    +0.292 HD
ENDBRANCH   3   9
ENDBRANCH   1   6
BRANCH   2  11
ATOM     11  C   LIG    1       23.334   3.107  50.869  0.00  0.00    -0.018 A 
ATOM     12  C   LIG    1       23.866   1.816  50.718  0.00  0.00    +0.053 A 
ATOM     13  C   LIG    1       25.188   1.634  50.313  0.00  0.00    +0.121 A 
ATOM     14  C   LIG    1       26.010   2.720  50.052  0.00  0.00    +0.090 A 
ATOM     15  C   LIG    1       25.492   3.999  50.205  0.00  0.00    +0.121 A 
ATOM     16  C   LIG    1       24.171   4.203  50.610  0.00  0.00    +0.053 A 
BRANCH  13  17
ATOM     17  O   LIG    1       25.639   0.353  50.178  0.00  0.00    -0.507 OA
ATOM     18  H   LIG    1       26.381   0.222  50.792  0.00  0.00    +0.292 HD
ENDBRANCH  13  17
BRANCH  15  19
ATOM     19  O   LIG    1       26.323   5.051  49.939  0.00  0.00    -0.507 OA
ATOM     20  H   LIG    1       26.280   5.678  50.680  0.00  0.00    +0.292 HD
ENDBRANCH  15  19
ENDBRANCH   2  11
TORSDOF 5
ENDMDL
MODEL 8
REMARK VINA RESULT:      -1.9      2.470      3.870
REMARK  Name = 
REMARK                            x       y       z     vdW  Elec       q    Type
REMARK                         _______ _______ _______ _____ _____    ______ ____
ROOT
ATOM      1  C   LIG    1       21.804   5.109  51.388  0.00  0.00    +0.008 C 
ATOM      2  C   LIG    1       21.049   4.022  51.156  0.00  0.00    +0.009 C 
ENDROOT
BRANCH   1   6
ATOM      3  C   LIG    1       26.027   5.530  50.788  0.00  0.00    +0.117 A 
ATOM      4  C   LIG    1       25.310   4.700  49.938  0.00  0.00    +0.046 A 
ATOM      5  C   LIG    1       23.929   4.556  50.105  0.00  0.00    +0.011 A 
ATOM      6  C   LIG    1       23.253   5.242  51.125  0.00  0.00    -0.025 A 
ATOM      7  C   LIG    1       24.002   6.088  51.961  0.00  0.00    +0.011 A 
ATOM      8  C   LIG    1       25.384   6.232  51.797  0.00  0.00    +0.046 A 
BRANCH   3   9
ATOM      9  O   LIG    1       27.373   5.626  50.599  0.00  0.00    -0.507 OA
ATOM     10  H   LIG    1       27.663   6.511  50.874  0.00  0.00    +0.292 HD
ENDBRANCH   3   9
ENDBRANCH   1   6
BRANCH   2  11
ATOM     11  C   LIG    1       19.610   3.871  51.468  0.00  0.00    -0.018 A 
ATOM     12  C   LIG    1       18.767   4.971  51.240  0.00  0.00    +0.053 A 
ATOM     13  C   LIG    1       17.398   4.883  51.492  0.00  0.00    +0.121 A 
ATOM     14  C   LIG    1       16.836   3.711  51.974  0.00  0.00    +0.090 A 
ATOM     15  C   LIG    1       17.664   2.621  52.207  0.00  0.00    +0.121 A 
ATOM     16  C   LIG    1       19.038   2.689  51.962  0.00  0.00    +0.053 A 
BRANCH  13  17
ATOM     17  O   LIG    1       16.635   5.986  51.241  0.00  0.00    -0.507 OA
ATOM     18  H   LIG    1       16.987   6.728  51.761  0.00  0.00    +0.292 HD
ENDBRANCH  13  17
BRANCH  15  19
ATOM     19  O   LIG    1       17.084   1.478  52.680  0.00  0.00    -0.507 OA
ATOM     20  H   LIG    1       17.428   1.299  53.572  0.00  0.00    +0.292 HD
ENDBRANCH  15  19
ENDBRANCH   2  11
TORSDOF 5
ENDMDL
MODEL 9
REMARK VINA RESULT:      -1.8      3.062      4.728
REMARK  Name = 
REMARK                            x       y       z     vdW  Elec       q    Type
REMARK                         _______ _______ _______ _____ _____    ______ ____
ROOT
ATOM      1  C   LIG    1       21.836   3.684  51.494  0.00  0.00    +0.008 C 
ATOM      2  C   LIG    1       20.599   3.454  51.021  0.00  0.00    +0.009 C 
ENDROOT
BRANCH   1   6
ATOM      3  C   LIG    1       25.000   0.793  51.556  0.00  0.00    +0.117 A 
ATOM      4  C   LIG    1       25.091   1.866  50.680  0.00  0.00    +0.046 A 
ATOM      5  C   LIG    1       24.078   2.829  50.650  0.00  0.00    +0.011 A 
ATOM      6  C   LIG    1       22.964   2.728  51.497  0.00  0.00    -0.025 A 
ATOM      7  C   LIG    1       22.906   1.639  52.384  0.00  0.00    +0.011 A 
ATOM      8  C   LIG    1       23.917   0.673  52.414  0.00  0.00    +0.046 A 
BRANCH   3   9
ATOM      9  O   LIG    1       26.002  -0.131  51.538  0.00  0.00    -0.507 OA
ATOM     10  H   LIG    1       25.617  -1.001  51.347  0.00  0.00    +0.292 HD
ENDBRANCH   3   9
ENDBRANCH   1   6
BRANCH   2  11
ATOM     11  C   LIG    1       19.455   4.392  51.065  0.00  0.00    -0.018 A 
ATOM     12  C   LIG    1       19.629   5.670  50.510  0.00  0.00    +0.053 A 
ATOM     13  C   LIG    1       18.581   6.590  50.500  0.00  0.00    +0.121 A 
ATOM     14  C   LIG    1       17.344   6.268  51.038  0.00  0.00    +0.090 A 
ATOM     15  C   LIG    1       17.167   5.008  51.593  0.00  0.00    +0.121 A 
ATOM     16  C   LIG    1       18.204   4.072  51.614  0.00  0.00    +0.053 A 
BRANCH  13  17
ATOM     17  O   LIG    1       18.814   7.812  49.938  0.00  0.00    -0.507 OA
ATOM     18  H   LIG    1       18.105   8.417  50.212  0.00  0.00    +0.292 HD
ENDBRANCH  13  17
BRANCH  15  19
ATOM     19  O   LIG    1       15.938   4.716  52.114  0.00  0.00    -0.507 OA
ATOM     20  H   LIG    1       15.593   3.921  51.675  0.00  0.00    +0.292 HD
ENDBRANCH  15  19
ENDBRANCH   2  11
TORSDOF 5
ENDMDL
