MODEL 1
REMARK VINA RESULT:      -8.8      0.000      0.000
REMARK  Name = 
REMARK                            x       y       z     vdW  Elec       q    Type
REMARK                         _______ _______ _______ _____ _____    ______ ____
ROOT
ATOM      1  C   LIG    1       25.920   1.314  17.536  0.00  0.00    +0.008 C 
ATOM      2  C   LIG    1       25.698   2.618  17.297  0.00  0.00    +0.009 C 
ENDROOT
BRANCH   1   6
ATOM      3  C   LIG    1       27.700  -0.254  21.106  0.00  0.00    +0.117 A 
ATOM      4  C   LIG    1       27.747  -1.014  19.946  0.00  0.00    +0.046 A 
ATOM      5  C   LIG    1       27.184  -0.519  18.765  0.00  0.00    +0.011 A 
ATOM      6  C   LIG    1       26.570   0.742  18.735  0.00  0.00    -0.025 A 
ATOM      7  C   LIG    1       26.550   1.496  19.921  0.00  0.00    +0.011 A 
ATOM      8  C   LIG    1       27.110   1.002  21.104  0.00  0.00    +0.046 A 
BRANCH   3   9
ATOM      9  O   LIG    1       28.244  -0.784  22.238  0.00  0.00    -0.507 OA
ATOM     10  H   LIG    1       27.596  -1.382  22.643  0.00  0.00    +0.292 HD
ENDBRANCH   3   9
ENDBRANCH   1   6
BRANCH   2  11
ATOM     11  C   LIG    1       25.094   3.195  16.075  0.00  0.00    -0.018 A 
ATOM     12  C   LIG    1       25.931   3.421  14.970  0.00  0.00    +0.053 A 
ATOM     13  C   LIG    1       25.417   3.939  13.782  0.00  0.00    +0.121 A 
ATOM     14  C   LIG    1       24.069   4.246  13.662  0.00  0.00    +0.090 A 
ATOM     15  C   LIG    1       23.238   4.030  14.753  0.00  0.00    +0.121 A 
ATOM     16  C   LIG    1       23.733   3.512  15.952  0.00  0.00    +0.053 A 
BRANCH  13  17
ATOM     17  O   LIG    1       26.283   4.127  12.744  0.00  0.00    -0.507 OA
ATOM     18  H   LIG    1       27.069   4.588  13.080  0.00  0.00    +0.292 HD
ENDBRANCH  13  17
BRANCH  15  19
ATOM     19  O   LIG    1       21.915   4.340  14.607  0.00  0.00    -0.507 OA
ATOM     20  H   LIG    1       21.753   4.590  13.682  0.00  0.00    +0.292 HD
ENDBRANCH  15  19
ENDBRANCH   2  11
TORSDOF 5
ENDMDL
MODEL 2
REMARK VINA RESULT:      -8.8      0.204      2.012
REMARK  Name = 
REMARK                            x       y       z     vdW  Elec       q    Type
REMARK                         _______ _______ _______ _____ _____    ______ ____
ROOT
ATOM      1  C   LIG    1       25.974   1.353  17.423  0.00  0.00    +0.008 C 
ATOM      2  C   LIG    1       25.603   2.624  17.195  0.00  0.00    +0.009 C 
ENDROOT
BRANCH   1   6
ATOM      3  C   LIG    1       27.464  -0.103  21.169  0.00  0.00    +0.117 A 
ATOM      4  C   LIG    1       27.470  -0.952  20.071  0.00  0.00    +0.046 A 
ATOM      5  C   LIG    1       27.001  -0.497  18.835  0.00  0.00    +0.011 A 
ATOM      6  C   LIG    1       26.522   0.813  18.686  0.00  0.00    -0.025 A 
ATOM      7  C   LIG    1       26.541   1.655  19.811  0.00  0.00    +0.011 A 
ATOM      8  C   LIG    1       27.008   1.201  21.050  0.00  0.00    +0.046 A 
BRANCH   3   9
ATOM      9  O   LIG    1       27.914  -0.596  22.358  0.00  0.00    -0.507 OA
ATOM     10  H   LIG    1       28.241  -1.499  22.215  0.00  0.00    +0.292 HD
ENDBRANCH   3   9
ENDBRANCH   1   6
BRANCH   2  11
ATOM     11  C   LIG    1       25.103   3.176  15.916  0.00  0.00    -0.018 A 
ATOM     12  C   LIG    1       23.740   3.500  15.825  0.00  0.00    +0.053 A 
ATOM     13  C   LIG    1       23.214   4.045  14.655  0.00  0.00    +0.121 A 
ATOM     14  C   LIG    1       24.022   4.280  13.552  0.00  0.00    +0.090 A 
ATOM     15  C   LIG    1       25.370   3.957  13.633  0.00  0.00    +0.121 A 
ATOM     16  C   LIG    1       25.916   3.409  14.796  0.00  0.00    +0.053 A 
BRANCH  13  17
ATOM     17  O   LIG    1       21.883   4.344  14.636  0.00  0.00    -0.507 OA
ATOM     18  H   LIG    1       21.392   3.585  14.992  0.00  0.00    +0.292 HD
ENDBRANCH  13  17
BRANCH  15  19
ATOM     19  O   LIG    1       26.143   4.201  12.533  0.00  0.00    -0.507 OA
ATOM     20  H   LIG    1       26.335   3.356  12.093  0.00  0.00    +0.292 HD
ENDBRANCH  15  19
ENDBRANCH   2  11
TORSDOF 5
ENDMDL
MODEL 3
REMARK VINA RESULT:      -8.7      2.309      8.391
REMARK  Name = 
REMARK                            x       y       z     vdW  Elec       q    Type
REMARK                         _______ _______ _______ _____ _____    ______ ____
ROOT
ATOM      1  C   LIG    1       26.979   0.530  20.144  0.00  0.00    +0.008 C 
ATOM      2  C   LIG    1       28.262   0.223  20.403  0.00  0.00    +0.009 C 
ENDROOT
BRANCH   1   6
ATOM      3  C   LIG    1       25.620   3.037  16.944  0.00  0.00    +0.117 A 
ATOM      4  C   LIG    1       25.806   1.683  16.701  0.00  0.00    +0.046 A 
ATOM      5  C   LIG    1       26.237   0.842  17.732  0.00  0.00    +0.011 A 
ATOM      6  C   LIG    1       26.484   1.348  19.016  0.00  0.00    -0.025 A 
ATOM      7  C   LIG    1       26.273   2.720  19.238  0.00  0.00    +0.011 A 
ATOM      8  C   LIG    1       25.844   3.564  18.208  0.00  0.00    +0.046 A 
BRANCH   3   9
ATOM      9  O   LIG    1       25.217   3.821  15.905  0.00  0.00    -0.507 OA
ATOM     10  H   LIG    1       25.999   4.090  15.397  0.00  0.00    +0.292 HD
ENDBRANCH   3   9
ENDBRANCH   1   6
BRANCH   2  11
ATOM     11  C   LIG    1       28.762  -0.552  21.560  0.00  0.00    -0.018 A 
ATOM     12  C   LIG    1       29.872  -1.389  21.364  0.00  0.00    +0.053 A 
ATOM     13  C   LIG    1       30.405  -2.125  22.421  0.00  0.00    +0.121 A 
ATOM     14  C   LIG    1       29.852  -2.052  23.691  0.00  0.00    +0.090 A 
ATOM     15  C   LIG    1       28.750  -1.231  23.891  0.00  0.00    +0.121 A 
ATOM     16  C   LIG    1       28.201  -0.485  22.845  0.00  0.00    +0.053 A 
BRANCH  13  17
ATOM     17  O   LIG    1       31.489  -2.913  22.163  0.00  0.00    -0.507 OA
ATOM     18  H   LIG    1       31.282  -3.821  22.441  0.00  0.00    +0.292 HD
ENDBRANCH  13  17
BRANCH  15  19
ATOM     19  O   LIG    1       28.226  -1.176  25.152  0.00  0.00    -0.507 OA
ATOM     20  H   LIG    1       27.411  -1.705  25.175  0.00  0.00    +0.292 HD
ENDBRANCH  15  19
ENDBRANCH   2  11
TORSDOF 5
ENDMDL
MODEL 4
REMARK VINA RESULT:      -8.7      2.343      8.602
REMARK  Name = 
REMARK                            x       y       z     vdW  Elec       q    Type
REMARK                         _______ _______ _______ _____ _____    ______ ____
ROOT
ATOM      1  C   LIG    1       27.200   0.260  19.878  0.00  0.00    +0.008 C 
ATOM      2  C   LIG    1       28.337   0.461  20.566  0.00  0.00    +0.009 C 
ENDROOT
BRANCH   1   6
ATOM      3  C   LIG    1       25.555   3.044  17.064  0.00  0.00    +0.117 A 
ATOM      4  C   LIG    1       25.746   1.727  16.669  0.00  0.00    +0.046 A 
ATOM      5  C   LIG    1       26.269   0.797  17.573  0.00  0.00    +0.011 A 
ATOM      6  C   LIG    1       26.606   1.176  18.880  0.00  0.00    -0.025 A 
ATOM      7  C   LIG    1       26.388   2.513  19.258  0.00  0.00    +0.011 A 
ATOM      8  C   LIG    1       25.867   3.446  18.355  0.00  0.00    +0.046 A 
BRANCH   3   9
ATOM      9  O   LIG    1       25.060   3.920  16.144  0.00  0.00    -0.507 OA
ATOM     10  H   LIG    1       24.504   4.569  16.604  0.00  0.00    +0.292 HD
ENDBRANCH   3   9
ENDBRANCH   1   6
BRANCH   2  11
ATOM     11  C   LIG    1       28.904  -0.430  21.602  0.00  0.00    -0.018 A 
ATOM     12  C   LIG    1       28.324  -0.408  22.880  0.00  0.00    +0.053 A 
ATOM     13  C   LIG    1       28.798  -1.242  23.892  0.00  0.00    +0.121 A 
ATOM     14  C   LIG    1       29.854  -2.112  23.663  0.00  0.00    +0.090 A 
ATOM     15  C   LIG    1       30.435  -2.136  22.402  0.00  0.00    +0.121 A 
ATOM     16  C   LIG    1       29.976  -1.308  21.375  0.00  0.00    +0.053 A 
BRANCH  13  17
ATOM     17  O   LIG    1       28.184  -1.176  25.109  0.00  0.00    -0.507 OA
ATOM     18  H   LIG    1       28.352  -0.298  25.490  0.00  0.00    +0.292 HD
ENDBRANCH  13  17
BRANCH  15  19
ATOM     19  O   LIG    1       31.472  -3.003  22.203  0.00  0.00    -0.507 OA
ATOM     20  H   LIG    1       31.127  -3.812  21.790  0.00  0.00    +0.292 HD
ENDBRANCH  15  19
ENDBRANCH   2  11
TORSDOF 5
ENDMDL
MODEL 5
REMARK VINA RESULT:      -8.4      2.642      8.372
REMARK  Name = 
REMARK                            x       y       z     vdW  Elec       q    Type
REMARK                         _______ _______ _______ _____ _____    ______ ____
ROOT
ATOM      1  C   LIG    1       27.587   0.791  19.983  0.00  0.00    +0.008 C 
ATOM      2  C   LIG    1       28.752   1.195  20.517  0.00  0.00    +0.009 C 
ENDROOT
BRANCH   1   6
ATOM      3  C   LIG    1       25.299   3.075  17.168  0.00  0.00    +0.117 A 
ATOM      4  C   LIG    1       25.620   1.761  16.860  0.00  0.00    +0.046 A 
ATOM      5  C   LIG    1       26.354   0.991  17.767  0.00  0.00    +0.011 A 
ATOM      6  C   LIG    1       26.774   1.529  18.992  0.00  0.00    -0.025 A 
ATOM      7  C   LIG    1       26.422   2.858  19.285  0.00  0.00    +0.011 A 
ATOM      8  C   LIG    1       25.689   3.631  18.378  0.00  0.00    +0.046 A 
BRANCH   3   9
ATOM      9  O   LIG    1       24.597   3.793  16.247  0.00  0.00    -0.507 OA
ATOM     10  H   LIG    1       24.012   4.410  16.715  0.00  0.00    +0.292 HD
ENDBRANCH   3   9
ENDBRANCH   1   6
BRANCH   2  11
ATOM     11  C   LIG    1       29.538   0.481  21.547  0.00  0.00    -0.018 A 
ATOM     12  C   LIG    1       30.885   0.842  21.716  0.00  0.00    +0.053 A 
ATOM     13  C   LIG    1       31.672   0.222  22.687  0.00  0.00    +0.121 A 
ATOM     14  C   LIG    1       31.146  -0.765  23.507  0.00  0.00    +0.090 A 
ATOM     15  C   LIG    1       29.817  -1.131  23.342  0.00  0.00    +0.121 A 
ATOM     16  C   LIG    1       29.012  -0.523  22.375  0.00  0.00    +0.053 A 
BRANCH  13  17
ATOM     17  O   LIG    1       32.970   0.625  22.803  0.00  0.00    -0.507 OA
ATOM     18  H   LIG    1       33.442   0.381  21.989  0.00  0.00    +0.292 HD
ENDBRANCH  13  17
BRANCH  15  19
ATOM     19  O   LIG    1       29.325  -2.104  24.164  0.00  0.00    -0.507 OA
ATOM     20  H   LIG    1       28.474  -2.412  23.810  0.00  0.00    +0.292 HD
ENDBRANCH  15  19
ENDBRANCH   2  11
TORSDOF 5
ENDMDL
MODEL 6
REMARK VINA RESULT:      -8.2      2.929      4.623
REMARK  Name = 
REMARK                            x       y       z     vdW  Elec       q    Type
REMARK                         _______ _______ _______ _____ _____    ______ ____
ROOT
ATOM      1  C   LIG    1       28.620   0.875  21.001  0.00  0.00    +0.008 C 
ATOM      2  C   LIG    1       27.424   0.645  20.432  0.00  0.00    +0.009 C 
ENDROOT
BRANCH   1   6
ATOM      3  C   LIG    1       30.558  -1.318  24.132  0.00  0.00    +0.117 A 
ATOM      4  C   LIG    1       29.172  -1.325  24.070  0.00  0.00    +0.046 A 
ATOM      5  C   LIG    1       28.516  -0.628  23.050  0.00  0.00    +0.011 A 
ATOM      6  C   LIG    1       29.243   0.082  22.083  0.00  0.00    -0.025 A 
ATOM      7  C   LIG    1       30.646   0.060  22.162  0.00  0.00    +0.011 A 
ATOM      8  C   LIG    1       31.304  -0.635  23.183  0.00  0.00    +0.046 A 
BRANCH   3   9
ATOM      9  O   LIG    1       31.153  -1.997  25.154  0.00  0.00    -0.507 OA
ATOM     10  H   LIG    1       31.309  -1.379  25.887  0.00  0.00    +0.292 HD
ENDBRANCH   3   9
ENDBRANCH   1   6
BRANCH   2  11
ATOM     11  C   LIG    1       26.778   1.468  19.386  0.00  0.00    -0.018 A 
ATOM     12  C   LIG    1       26.472   2.804  19.693  0.00  0.00    +0.053 A 
ATOM     13  C   LIG    1       25.885   3.637  18.741  0.00  0.00    +0.121 A 
ATOM     14  C   LIG    1       25.588   3.168  17.470  0.00  0.00    +0.090 A 
ATOM     15  C   LIG    1       25.883   1.847  17.161  0.00  0.00    +0.121 A 
ATOM     16  C   LIG    1       26.470   0.996  18.100  0.00  0.00    +0.053 A 
BRANCH  13  17
ATOM     17  O   LIG    1       25.621   4.926  19.102  0.00  0.00    -0.507 OA
ATOM     18  H   LIG    1       25.122   5.351  18.384  0.00  0.00    +0.292 HD
ENDBRANCH  13  17
BRANCH  15  19
ATOM     19  O   LIG    1       25.581   1.412  15.902  0.00  0.00    -0.507 OA
ATOM     20  H   LIG    1       26.149   1.879  15.266  0.00  0.00    +0.292 HD
ENDBRANCH  15  19
ENDBRANCH   2  11
TORSDOF 5
ENDMDL
MODEL 7
REMARK VINA RESULT:      -8.2      2.631      8.669
REMARK  Name = 
REMARK                            x       y       z     vdW  Elec       q    Type
REMARK                         _______ _______ _______ _____ _____    ______ ____
ROOT
ATOM      1  C   LIG    1       27.903   1.636  20.303  0.00  0.00    +0.008 C 
ATOM      2  C   LIG    1       28.505   0.441  20.430  0.00  0.00    +0.009 C 
ENDROOT
BRANCH   1   6
ATOM      3  C   LIG    1       25.206   2.660  17.133  0.00  0.00    +0.117 A 
ATOM      4  C   LIG    1       25.533   3.628  18.072  0.00  0.00    +0.046 A 
ATOM      5  C   LIG    1       26.420   3.322  19.109  0.00  0.00    +0.011 A 
ATOM      6  C   LIG    1       26.990   2.045  19.214  0.00  0.00    -0.025 A 
ATOM      7  C   LIG    1       26.653   1.089  18.240  0.00  0.00    +0.011 A 
ATOM      8  C   LIG    1       25.764   1.392  17.203  0.00  0.00    +0.046 A 
BRANCH   3   9
ATOM      9  O   LIG    1       24.323   2.998  16.150  0.00  0.00    -0.507 OA
ATOM     10  H   LIG    1       24.424   2.372  15.415  0.00  0.00    +0.292 HD
ENDBRANCH   3   9
ENDBRANCH   1   6
BRANCH   2  11
ATOM     11  C   LIG    1       29.460   0.049  21.491  0.00  0.00    -0.018 A 
ATOM     12  C   LIG    1       29.079  -0.972  22.376  0.00  0.00    +0.053 A 
ATOM     13  C   LIG    1       29.944  -1.403  23.381  0.00  0.00    +0.121 A 
ATOM     14  C   LIG    1       31.200  -0.833  23.533  0.00  0.00    +0.090 A 
ATOM     15  C   LIG    1       31.581   0.181  22.665  0.00  0.00    +0.121 A 
ATOM     16  C   LIG    1       30.729   0.627  21.652  0.00  0.00    +0.053 A 
BRANCH  13  17
ATOM     17  O   LIG    1       29.515  -2.405  24.202  0.00  0.00    -0.507 OA
ATOM     18  H   LIG    1       29.166  -3.125  23.652  0.00  0.00    +0.292 HD
ENDBRANCH  13  17
BRANCH  15  19
ATOM     19  O   LIG    1       32.823   0.723  22.836  0.00  0.00    -0.507 OA
ATOM     20  H   LIG    1       32.724   1.643  23.132  0.00  0.00    +0.292 HD
ENDBRANCH  15  19
ENDBRANCH   2  11
TORSDOF 5
ENDMDL
MODEL 8
REMARK VINA RESULT:      -8.0      2.959      4.567
REMARK  Name = 
REMARK                            x       y       z     vdW  Elec       q    Type
REMARK                         _______ _______ _______ _____ _____    ______ ____
ROOT
ATOM      1  C   LIG    1       28.722   0.777  21.002  0.00  0.00    +0.008 C 
ATOM      2  C   LIG    1       27.451   0.681  20.577  0.00  0.00    +0.009 C 
ENDROOT
BRANCH   1   6
ATOM      3  C   LIG    1       30.645  -1.362  24.180  0.00  0.00    +0.117 A 
ATOM      4  C   LIG    1       29.259  -1.375  24.108  0.00  0.00    +0.046 A 
ATOM      5  C   LIG    1       28.609  -0.695  23.073  0.00  0.00    +0.011 A 
ATOM      6  C   LIG    1       29.340   0.003  22.101  0.00  0.00    -0.025 A 
ATOM      7  C   LIG    1       30.742  -0.013  22.190  0.00  0.00    +0.011 A 
ATOM      8  C   LIG    1       31.396  -0.691  23.226  0.00  0.00    +0.046 A 
BRANCH   3   9
ATOM      9  O   LIG    1       31.235  -2.023  25.216  0.00  0.00    -0.507 OA
ATOM     10  H   LIG    1       31.031  -2.969  25.136  0.00  0.00    +0.292 HD
ENDBRANCH   3   9
ENDBRANCH   1   6
BRANCH   2  11
ATOM     11  C   LIG    1       26.819   1.492  19.512  0.00  0.00    -0.018 A 
ATOM     12  C   LIG    1       26.537   0.867  18.287  0.00  0.00    +0.053 A 
ATOM     13  C   LIG    1       25.920   1.572  17.254  0.00  0.00    +0.121 A 
ATOM     14  C   LIG    1       25.572   2.905  17.409  0.00  0.00    +0.090 A 
ATOM     15  C   LIG    1       25.852   3.531  18.617  0.00  0.00    +0.121 A 
ATOM     16  C   LIG    1       26.470   2.843  19.664  0.00  0.00    +0.053 A 
BRANCH  13  17
ATOM     17  O   LIG    1       25.668   0.903  16.092  0.00  0.00    -0.507 OA
ATOM     18  H   LIG    1       24.705   0.847  15.972  0.00  0.00    +0.292 HD
ENDBRANCH  13  17
BRANCH  15  19
ATOM     19  O   LIG    1       25.497   4.844  18.743  0.00  0.00    -0.507 OA
ATOM     20  H   LIG    1       24.877   4.929  19.487  0.00  0.00    +0.292 HD
ENDBRANCH  15  19
ENDBRANCH   2  11
TORSDOF 5
ENDMDL
MODEL 9
REMARK VINA RESULT:      -7.9      2.897      4.558
REMARK  Name = 
REMARK                            x       y       z     vdW  Elec       q    Type
REMARK                         _______ _______ _______ _____ _____    ______ ____
ROOT
ATOM      1  C   LIG    1       28.629   0.971  21.013  0.00  0.00    +0.008 C 
ATOM      2  C   LIG    1       27.523   0.624  20.333  0.00  0.00    +0.009 C 
ENDROOT
BRANCH   1   6
ATOM      3  C   LIG    1       30.399  -1.414  24.103  0.00  0.00    +0.117 A 
ATOM      4  C   LIG    1       31.230  -0.746  23.215  0.00  0.00    +0.046 A 
ATOM      5  C   LIG    1       30.677   0.049  22.206  0.00  0.00    +0.011 A 
ATOM      6  C   LIG    1       29.287   0.183  22.077  0.00  0.00    -0.025 A 
ATOM      7  C   LIG    1       28.470  -0.493  23.000  0.00  0.00    +0.011 A 
ATOM      8  C   LIG    1       29.020  -1.291  24.009  0.00  0.00    +0.046 A 
BRANCH   3   9
ATOM      9  O   LIG    1       30.982  -2.191  25.060  0.00  0.00    -0.507 OA
ATOM     10  H   LIG    1       31.517  -1.623  25.637  0.00  0.00    +0.292 HD
ENDBRANCH   3   9
ENDBRANCH   1   6
BRANCH   2  11
ATOM     11  C   LIG    1       26.835   1.436  19.305  0.00  0.00    -0.018 A 
ATOM     12  C   LIG    1       26.512   2.766  19.623  0.00  0.00    +0.053 A 
ATOM     13  C   LIG    1       25.885   3.589  18.688  0.00  0.00    +0.121 A 
ATOM     14  C   LIG    1       25.563   3.116  17.424  0.00  0.00    +0.090 A 
ATOM     15  C   LIG    1       25.874   1.801  17.106  0.00  0.00    +0.121 A 
ATOM     16  C   LIG    1       26.502   0.960  18.028  0.00  0.00    +0.053 A 
BRANCH  13  17
ATOM     17  O   LIG    1       25.607   4.872  19.058  0.00  0.00    -0.507 OA
ATOM     18  H   LIG    1       24.811   5.164  18.582  0.00  0.00    +0.292 HD
ENDBRANCH  13  17
BRANCH  15  19
ATOM     19  O   LIG    1       25.547   1.362  15.854  0.00  0.00    -0.507 OA
ATOM     20  H   LIG    1       25.211   0.453  15.920  0.00  0.00    +0.292 HD
ENDBRANCH  15  19
ENDBRANCH   2  11
TORSDOF 5
ENDMDL
