MODEL 1
REMARK VINA RESULT:      -9.2      0.000      0.000
REMARK  Name = 
REMARK                            x       y       z     vdW  Elec       q    Type
REMARK                         _______ _______ _______ _____ _____    ______ ____
ROOT
ATOM      1  C   LIG    1        5.145  18.189  30.873  0.00  0.00    +0.008 C 
ATOM      2  C   LIG    1        3.850  18.385  31.174  0.00  0.00    +0.009 C 
ENDROOT
BRANCH   1   6
ATOM      3  C   LIG    1        7.617  20.416  28.171  0.00  0.00    +0.117 A 
ATOM      4  C   LIG    1        6.394  19.939  27.720  0.00  0.00    +0.046 A 
ATOM      5  C   LIG    1        5.564  19.220  28.587  0.00  0.00    +0.011 A 
ATOM      6  C   LIG    1        5.950  18.974  29.912  0.00  0.00    -0.025 A 
ATOM      7  C   LIG    1        7.186  19.482  30.346  0.00  0.00    +0.011 A 
ATOM      8  C   LIG    1        8.020  20.199  29.481  0.00  0.00    +0.046 A 
BRANCH   3   9
ATOM      9  O   LIG    1        8.401  21.096  27.287  0.00  0.00    -0.507 OA
ATOM     10  H   LIG    1        7.917  21.882  26.985  0.00  0.00    +0.292 HD
ENDBRANCH   3   9
ENDBRANCH   1   6
BRANCH   2  11
ATOM     11  C   LIG    1        3.031  17.567  32.097  0.00  0.00    -0.018 A 
ATOM     12  C   LIG    1        2.602  18.157  33.297  0.00  0.00    +0.053 A 
ATOM     13  C   LIG    1        1.807  17.446  34.195  0.00  0.00    +0.121 A 
ATOM     14  C   LIG    1        1.423  16.140  33.929  0.00  0.00    +0.090 A 
ATOM     15  C   LIG    1        1.848  15.549  32.747  0.00  0.00    +0.121 A 
ATOM     16  C   LIG    1        2.645  16.244  31.833  0.00  0.00    +0.053 A 
BRANCH  13  17
ATOM     17  O   LIG    1        1.419  18.081  35.339  0.00  0.00    -0.507 OA
ATOM     18  H   LIG    1        2.210  18.261  35.874  0.00  0.00    +0.292 HD
ENDBRANCH  13  17
BRANCH  15  19
ATOM     19  O   LIG    1        1.453  14.263  32.508  0.00  0.00    -0.507 OA
ATOM     20  H   LIG    1        0.770  14.021  33.155  0.00  0.00    +0.292 HD
ENDBRANCH  15  19
ENDBRANCH   2  11
TORSDOF 5
ENDMDL
MODEL 2
REMARK VINA RESULT:      -9.1      0.246      2.326
REMARK  Name = 
REMARK                            x       y       z     vdW  Elec       q    Type
REMARK                         _______ _______ _______ _____ _____    ______ ____
ROOT
ATOM      1  C   LIG    1        5.083  18.260  31.184  0.00  0.00    +0.008 C 
ATOM      2  C   LIG    1        3.746  18.370  31.271  0.00  0.00    +0.009 C 
ENDROOT
BRANCH   1   6
ATOM      3  C   LIG    1        7.475  20.286  28.261  0.00  0.00    +0.117 A 
ATOM      4  C   LIG    1        7.967  20.153  29.551  0.00  0.00    +0.046 A 
ATOM      5  C   LIG    1        7.211  19.484  30.520  0.00  0.00    +0.011 A 
ATOM      6  C   LIG    1        5.956  18.943  30.205  0.00  0.00    -0.025 A 
ATOM      7  C   LIG    1        5.489  19.081  28.886  0.00  0.00    +0.011 A 
ATOM      8  C   LIG    1        6.243  19.750  27.916  0.00  0.00    +0.046 A 
BRANCH   3   9
ATOM      9  O   LIG    1        8.238  20.961  27.355  0.00  0.00    -0.507 OA
ATOM     10  H   LIG    1        8.232  20.469  26.518  0.00  0.00    +0.292 HD
ENDBRANCH   3   9
ENDBRANCH   1   6
BRANCH   2  11
ATOM     11  C   LIG    1        2.867  17.646  32.216  0.00  0.00    -0.018 A 
ATOM     12  C   LIG    1        2.571  16.301  31.942  0.00  0.00    +0.053 A 
ATOM     13  C   LIG    1        1.768  15.558  32.808  0.00  0.00    +0.121 A 
ATOM     14  C   LIG    1        1.242  16.129  33.958  0.00  0.00    +0.090 A 
ATOM     15  C   LIG    1        1.527  17.460  34.231  0.00  0.00    +0.121 A 
ATOM     16  C   LIG    1        2.328  18.221  33.377  0.00  0.00    +0.053 A 
BRANCH  13  17
ATOM     17  O   LIG    1        1.525  14.255  32.487  0.00  0.00    -0.507 OA
ATOM     18  H   LIG    1        0.917  13.883  33.148  0.00  0.00    +0.292 HD
ENDBRANCH  13  17
BRANCH  15  19
ATOM     19  O   LIG    1        0.997  17.995  35.371  0.00  0.00    -0.507 OA
ATOM     20  H   LIG    1        0.759  18.922  35.200  0.00  0.00    +0.292 HD
ENDBRANCH  15  19
ENDBRANCH   2  11
TORSDOF 5
ENDMDL
MODEL 3
REMARK VINA RESULT:      -8.8      2.733      8.823
REMARK  Name = 
REMARK                            x       y       z     vdW  Elec       q    Type
REMARK                         _______ _______ _______ _____ _____    ______ ____
ROOT
ATOM      1  C   LIG    1        6.999  19.922  28.391  0.00  0.00    +0.008 C 
ATOM      2  C   LIG    1        6.954  20.063  27.056  0.00  0.00    +0.009 C 
ENDROOT
BRANCH   1   6
ATOM      3  C   LIG    1        4.289  17.489  30.652  0.00  0.00    +0.117 A 
ATOM      4  C   LIG    1        5.376  18.059  31.300  0.00  0.00    +0.046 A 
ATOM      5  C   LIG    1        6.268  18.868  30.587  0.00  0.00    +0.011 A 
ATOM      6  C   LIG    1        6.079  19.113  29.219  0.00  0.00    -0.025 A 
ATOM      7  C   LIG    1        4.962  18.536  28.592  0.00  0.00    +0.011 A 
ATOM      8  C   LIG    1        4.069  17.725  29.302  0.00  0.00    +0.046 A 
BRANCH   3   9
ATOM      9  O   LIG    1        3.457  16.695  31.382  0.00  0.00    -0.507 OA
ATOM     10  H   LIG    1        2.553  16.798  31.043  0.00  0.00    +0.292 HD
ENDBRANCH   3   9
ENDBRANCH   1   6
BRANCH   2  11
ATOM     11  C   LIG    1        7.843  20.914  26.233  0.00  0.00    -0.018 A 
ATOM     12  C   LIG    1        7.844  22.297  26.478  0.00  0.00    +0.053 A 
ATOM     13  C   LIG    1        8.677  23.148  25.753  0.00  0.00    +0.121 A 
ATOM     14  C   LIG    1        9.522  22.652  24.771  0.00  0.00    +0.090 A 
ATOM     15  C   LIG    1        9.522  21.286  24.520  0.00  0.00    +0.121 A 
ATOM     16  C   LIG    1        8.695  20.417  25.235  0.00  0.00    +0.053 A 
BRANCH  13  17
ATOM     17  O   LIG    1        8.634  24.480  26.046  0.00  0.00    -0.507 OA
ATOM     18  H   LIG    1        9.542  24.790  26.200  0.00  0.00    +0.292 HD
ENDBRANCH  13  17
BRANCH  15  19
ATOM     19  O   LIG    1       10.366  20.825  23.550  0.00  0.00    -0.507 OA
ATOM     20  H   LIG    1        9.916  20.120  23.054  0.00  0.00    +0.292 HD
ENDBRANCH  15  19
ENDBRANCH   2  11
TORSDOF 5
ENDMDL
MODEL 4
REMARK VINA RESULT:      -8.8      1.158      7.467
REMARK  Name = 
REMARK                            x       y       z     vdW  Elec       q    Type
REMARK                         _______ _______ _______ _____ _____    ______ ____
ROOT
ATOM      1  C   LIG    1        3.928  18.473  31.136  0.00  0.00    +0.008 C 
ATOM      2  C   LIG    1        5.142  18.162  30.650  0.00  0.00    +0.009 C 
ENDROOT
BRANCH   1   6
ATOM      3  C   LIG    1        1.603  15.905  33.660  0.00  0.00    +0.117 A 
ATOM      4  C   LIG    1        1.864  17.200  34.083  0.00  0.00    +0.046 A 
ATOM      5  C   LIG    1        2.609  18.062  33.272  0.00  0.00    +0.011 A 
ATOM      6  C   LIG    1        3.100  17.634  32.030  0.00  0.00    -0.025 A 
ATOM      7  C   LIG    1        2.808  16.322  31.620  0.00  0.00    +0.011 A 
ATOM      8  C   LIG    1        2.064  15.457  32.431  0.00  0.00    +0.046 A 
BRANCH   3   9
ATOM      9  O   LIG    1        0.888  15.095  34.491  0.00  0.00    -0.507 OA
ATOM     10  H   LIG    1       -0.013  15.009  34.141  0.00  0.00    +0.292 HD
ENDBRANCH   3   9
ENDBRANCH   1   6
BRANCH   2  11
ATOM     11  C   LIG    1        5.948  18.978  29.715  0.00  0.00    -0.018 A 
ATOM     12  C   LIG    1        7.170  19.493  30.175  0.00  0.00    +0.053 A 
ATOM     13  C   LIG    1        7.986  20.249  29.334  0.00  0.00    +0.121 A 
ATOM     14  C   LIG    1        7.611  20.512  28.024  0.00  0.00    +0.090 A 
ATOM     15  C   LIG    1        6.401  20.009  27.565  0.00  0.00    +0.121 A 
ATOM     16  C   LIG    1        5.569  19.250  28.392  0.00  0.00    +0.053 A 
BRANCH  13  17
ATOM     17  O   LIG    1        9.164  20.714  29.842  0.00  0.00    -0.507 OA
ATOM     18  H   LIG    1        9.124  21.684  29.872  0.00  0.00    +0.292 HD
ENDBRANCH  13  17
BRANCH  15  19
ATOM     19  O   LIG    1        6.057  20.282  26.271  0.00  0.00    -0.507 OA
ATOM     20  H   LIG    1        5.744  21.200  26.217  0.00  0.00    +0.292 HD
ENDBRANCH  15  19
ENDBRANCH   2  11
TORSDOF 5
ENDMDL
MODEL 5
REMARK VINA RESULT:      -8.8      2.795      9.036
REMARK  Name = 
REMARK                            x       y       z     vdW  Elec       q    Type
REMARK                         _______ _______ _______ _____ _____    ______ ____
ROOT
ATOM      1  C   LIG    1        6.906  19.927  28.398  0.00  0.00    +0.008 C 
ATOM      2  C   LIG    1        6.899  20.123  27.068  0.00  0.00    +0.009 C 
ENDROOT
BRANCH   1   6
ATOM      3  C   LIG    1        4.206  17.318  30.466  0.00  0.00    +0.117 A 
ATOM      4  C   LIG    1        5.229  17.925  31.180  0.00  0.00    +0.046 A 
ATOM      5  C   LIG    1        6.115  18.790  30.531  0.00  0.00    +0.011 A 
ATOM      6  C   LIG    1        5.985  19.057  29.161  0.00  0.00    -0.025 A 
ATOM      7  C   LIG    1        4.930  18.441  28.465  0.00  0.00    +0.011 A 
ATOM      8  C   LIG    1        4.043  17.573  29.111  0.00  0.00    +0.046 A 
BRANCH   3   9
ATOM      9  O   LIG    1        3.377  16.469  31.136  0.00  0.00    -0.507 OA
ATOM     10  H   LIG    1        2.710  16.994  31.607  0.00  0.00    +0.292 HD
ENDBRANCH   3   9
ENDBRANCH   1   6
BRANCH   2  11
ATOM     11  C   LIG    1        7.786  21.034  26.311  0.00  0.00    -0.018 A 
ATOM     12  C   LIG    1        8.625  20.475  25.334  0.00  0.00    +0.053 A 
ATOM     13  C   LIG    1        9.466  21.284  24.571  0.00  0.00    +0.121 A 
ATOM     14  C   LIG    1        9.497  22.658  24.758  0.00  0.00    +0.090 A 
ATOM     15  C   LIG    1        8.674  23.217  25.727  0.00  0.00    +0.121 A 
ATOM     16  C   LIG    1        7.824  22.424  26.503  0.00  0.00    +0.053 A 
BRANCH  13  17
ATOM     17  O   LIG    1       10.250  20.678  23.633  0.00  0.00    -0.507 OA
ATOM     18  H   LIG    1       10.120  19.717  23.697  0.00  0.00    +0.292 HD
ENDBRANCH  13  17
BRANCH  15  19
ATOM     19  O   LIG    1        8.723  24.572  25.890  0.00  0.00    -0.507 OA
ATOM     20  H   LIG    1        9.653  24.855  25.873  0.00  0.00    +0.292 HD
ENDBRANCH  15  19
ENDBRANCH   2  11
TORSDOF 5
ENDMDL
MODEL 6
REMARK VINA RESULT:      -8.7      1.154      7.584
REMARK  Name = 
REMARK                            x       y       z     vdW  Elec       q    Type
REMARK                         _______ _______ _______ _____ _____    ______ ____
ROOT
ATOM      1  C   LIG    1        3.932  18.420  31.290  0.00  0.00    +0.008 C 
ATOM      2  C   LIG    1        5.115  18.055  30.768  0.00  0.00    +0.009 C 
ENDROOT
BRANCH   1   6
ATOM      3  C   LIG    1        1.462  15.865  33.687  0.00  0.00    +0.117 A 
ATOM      4  C   LIG    1        1.723  17.153  34.133  0.00  0.00    +0.046 A 
ATOM      5  C   LIG    1        2.515  18.010  33.363  0.00  0.00    +0.011 A 
ATOM      6  C   LIG    1        3.053  17.586  32.139  0.00  0.00    -0.025 A 
ATOM      7  C   LIG    1        2.761  16.282  31.705  0.00  0.00    +0.011 A 
ATOM      8  C   LIG    1        1.970  15.421  32.475  0.00  0.00    +0.046 A 
BRANCH   3   9
ATOM      9  O   LIG    1        0.700  15.059  34.479  0.00  0.00    -0.507 OA
ATOM     10  H   LIG    1        1.266  14.677  35.169  0.00  0.00    +0.292 HD
ENDBRANCH   3   9
ENDBRANCH   1   6
BRANCH   2  11
ATOM     11  C   LIG    1        5.969  18.870  29.876  0.00  0.00    -0.018 A 
ATOM     12  C   LIG    1        5.500  19.141  28.581  0.00  0.00    +0.053 A 
ATOM     13  C   LIG    1        6.248  19.924  27.702  0.00  0.00    +0.121 A 
ATOM     14  C   LIG    1        7.472  20.453  28.083  0.00  0.00    +0.090 A 
ATOM     15  C   LIG    1        7.944  20.184  29.361  0.00  0.00    +0.121 A 
ATOM     16  C   LIG    1        7.211  19.402  30.257  0.00  0.00    +0.053 A 
BRANCH  13  17
ATOM     17  O   LIG    1        5.730  20.155  26.461  0.00  0.00    -0.507 OA
ATOM     18  H   LIG    1        5.884  21.087  26.232  0.00  0.00    +0.292 HD
ENDBRANCH  13  17
BRANCH  15  19
ATOM     19  O   LIG    1        9.152  20.719  29.711  0.00  0.00    -0.507 OA
ATOM     20  H   LIG    1        9.639  20.946  28.902  0.00  0.00    +0.292 HD
ENDBRANCH  15  19
ENDBRANCH   2  11
TORSDOF 5
ENDMDL
MODEL 7
REMARK VINA RESULT:      -8.1      2.900      4.653
REMARK  Name = 
REMARK                            x       y       z     vdW  Elec       q    Type
REMARK                         _______ _______ _______ _____ _____    ______ ____
ROOT
ATOM      1  C   LIG    1        6.139  20.923  27.344  0.00  0.00    +0.008 C 
ATOM      2  C   LIG    1        6.031  19.782  28.046  0.00  0.00    +0.009 C 
ENDROOT
BRANCH   1   6
ATOM      3  C   LIG    1        9.455  22.196  24.944  0.00  0.00    +0.117 A 
ATOM      4  C   LIG    1        9.108  20.852  24.947  0.00  0.00    +0.046 A 
ATOM      5  C   LIG    1        8.022  20.414  25.712  0.00  0.00    +0.011 A 
ATOM      6  C   LIG    1        7.273  21.317  26.480  0.00  0.00    -0.025 A 
ATOM      7  C   LIG    1        7.638  22.674  26.447  0.00  0.00    +0.011 A 
ATOM      8  C   LIG    1        8.725  23.115  25.684  0.00  0.00    +0.046 A 
BRANCH   3   9
ATOM      9  O   LIG    1       10.531  22.574  24.199  0.00  0.00    -0.507 OA
ATOM     10  H   LIG    1       11.333  22.203  24.601  0.00  0.00    +0.292 HD
ENDBRANCH   3   9
ENDBRANCH   1   6
BRANCH   2  11
ATOM     11  C   LIG    1        4.921  19.411  28.951  0.00  0.00    -0.018 A 
ATOM     12  C   LIG    1        4.949  18.137  29.541  0.00  0.00    +0.053 A 
ATOM     13  C   LIG    1        3.944  17.738  30.422  0.00  0.00    +0.121 A 
ATOM     14  C   LIG    1        2.892  18.587  30.735  0.00  0.00    +0.090 A 
ATOM     15  C   LIG    1        2.856  19.846  30.151  0.00  0.00    +0.121 A 
ATOM     16  C   LIG    1        3.852  20.265  29.266  0.00  0.00    +0.053 A 
BRANCH  13  17
ATOM     17  O   LIG    1        4.036  16.491  30.966  0.00  0.00    -0.507 OA
ATOM     18  H   LIG    1        4.960  16.196  30.906  0.00  0.00    +0.292 HD
ENDBRANCH  13  17
BRANCH  15  19
ATOM     19  O   LIG    1        1.810  20.661  30.478  0.00  0.00    -0.507 OA
ATOM     20  H   LIG    1        1.882  21.483  29.965  0.00  0.00    +0.292 HD
ENDBRANCH  15  19
ENDBRANCH   2  11
TORSDOF 5
ENDMDL
MODEL 8
REMARK VINA RESULT:      -8.1      2.923      4.472
REMARK  Name = 
REMARK                            x       y       z     vdW  Elec       q    Type
REMARK                         _______ _______ _______ _____ _____    ______ ____
ROOT
ATOM      1  C   LIG    1        6.454  20.276  27.055  0.00  0.00    +0.008 C 
ATOM      2  C   LIG    1        6.374  20.222  28.395  0.00  0.00    +0.009 C 
ENDROOT
BRANCH   1   6
ATOM      3  C   LIG    1        9.543  22.310  24.889  0.00  0.00    +0.117 A 
ATOM      4  C   LIG    1        9.368  20.949  24.685  0.00  0.00    +0.046 A 
ATOM      5  C   LIG    1        8.359  20.265  25.370  0.00  0.00    +0.011 A 
ATOM      6  C   LIG    1        7.515  20.937  26.265  0.00  0.00    -0.025 A 
ATOM      7  C   LIG    1        7.705  22.319  26.441  0.00  0.00    +0.011 A 
ATOM      8  C   LIG    1        8.715  23.005  25.759  0.00  0.00    +0.046 A 
BRANCH   3   9
ATOM      9  O   LIG    1       10.550  22.931  24.214  0.00  0.00    -0.507 OA
ATOM     10  H   LIG    1       11.042  22.264  23.708  0.00  0.00    +0.292 HD
ENDBRANCH   3   9
ENDBRANCH   1   6
BRANCH   2  11
ATOM     11  C   LIG    1        5.286  19.605  29.186  0.00  0.00    -0.018 A 
ATOM     12  C   LIG    1        4.134  20.370  29.430  0.00  0.00    +0.053 A 
ATOM     13  C   LIG    1        3.064  19.837  30.148  0.00  0.00    +0.121 A 
ATOM     14  C   LIG    1        3.110  18.540  30.638  0.00  0.00    +0.090 A 
ATOM     15  C   LIG    1        4.249  17.780  30.405  0.00  0.00    +0.121 A 
ATOM     16  C   LIG    1        5.332  18.296  29.689  0.00  0.00    +0.053 A 
BRANCH  13  17
ATOM     17  O   LIG    1        1.972  20.631  30.343  0.00  0.00    -0.507 OA
ATOM     18  H   LIG    1        2.105  21.141  31.159  0.00  0.00    +0.292 HD
ENDBRANCH  13  17
BRANCH  15  19
ATOM     19  O   LIG    1        4.267  16.506  30.898  0.00  0.00    -0.507 OA
ATOM     20  H   LIG    1        4.371  16.546  31.863  0.00  0.00    +0.292 HD
ENDBRANCH  15  19
ENDBRANCH   2  11
TORSDOF 5
ENDMDL
MODEL 9
REMARK VINA RESULT:      -7.6      1.853      7.527
REMARK  Name = 
REMARK                            x       y       z     vdW  Elec       q    Type
REMARK                         _______ _______ _______ _____ _____    ______ ____
ROOT
ATOM      1  C   LIG    1        3.086  18.800  30.644  0.00  0.00    +0.008 C 
ATOM      2  C   LIG    1        4.273  19.420  30.519  0.00  0.00    +0.009 C 
ENDROOT
BRANCH   1   6
ATOM      3  C   LIG    1        1.136  18.081  34.393  0.00  0.00    +0.117 A 
ATOM      4  C   LIG    1        0.358  18.312  33.267  0.00  0.00    +0.046 A 
ATOM      5  C   LIG    1        0.970  18.537  32.030  0.00  0.00    +0.011 A 
ATOM      6  C   LIG    1        2.367  18.531  31.908  0.00  0.00    -0.025 A 
ATOM      7  C   LIG    1        3.130  18.280  33.061  0.00  0.00    +0.011 A 
ATOM      8  C   LIG    1        2.520  18.057  34.301  0.00  0.00    +0.046 A 
BRANCH   3   9
ATOM      9  O   LIG    1        0.497  17.885  35.580  0.00  0.00    -0.507 OA
ATOM     10  H   LIG    1        0.905  18.457  36.250  0.00  0.00    +0.292 HD
ENDBRANCH   3   9
ENDBRANCH   1   6
BRANCH   2  11
ATOM     11  C   LIG    1        5.017  19.642  29.259  0.00  0.00    -0.018 A 
ATOM     12  C   LIG    1        4.318  19.510  28.048  0.00  0.00    +0.053 A 
ATOM     13  C   LIG    1        4.957  19.731  26.829  0.00  0.00    +0.121 A 
ATOM     14  C   LIG    1        6.298  20.084  26.781  0.00  0.00    +0.090 A 
ATOM     15  C   LIG    1        6.996  20.212  27.974  0.00  0.00    +0.121 A 
ATOM     16  C   LIG    1        6.374  19.994  29.206  0.00  0.00    +0.053 A 
BRANCH  13  17
ATOM     17  O   LIG    1        4.218  19.594  25.690  0.00  0.00    -0.507 OA
ATOM     18  H   LIG    1        4.826  19.481  24.941  0.00  0.00    +0.292 HD
ENDBRANCH  13  17
BRANCH  15  19
ATOM     19  O   LIG    1        8.315  20.562  27.898  0.00  0.00    -0.507 OA
ATOM     20  H   LIG    1        8.506  21.212  28.595  0.00  0.00    +0.292 HD
ENDBRANCH  15  19
ENDBRANCH   2  11
TORSDOF 5
ENDMDL
