MODEL 1
REMARK VINA RESULT:      -8.2      0.000      0.000
REMARK  Name = 
REMARK                            x       y       z     vdW  Elec       q    Type
REMARK                         _______ _______ _______ _____ _____    ______ ____
ROOT
ATOM      1  C   LIG    1       23.335 -16.776  18.588  0.00  0.00    +0.008 C 
ATOM      2  C   LIG    1       22.357 -15.918  18.926  0.00  0.00    +0.009 C 
ENDROOT
BRANCH   1   6
ATOM      3  C   LIG    1       27.556 -16.109  18.924  0.00  0.00    +0.117 A 
ATOM      4  C   LIG    1       26.980 -16.130  17.661  0.00  0.00    +0.046 A 
ATOM      5  C   LIG    1       25.603 -16.333  17.526  0.00  0.00    +0.011 A 
ATOM      6  C   LIG    1       24.790 -16.516  18.653  0.00  0.00    -0.025 A 
ATOM      7  C   LIG    1       25.397 -16.475  19.920  0.00  0.00    +0.011 A 
ATOM      8  C   LIG    1       26.775 -16.274  20.058  0.00  0.00    +0.046 A 
BRANCH   3   9
ATOM      9  O   LIG    1       28.904 -15.926  19.006  0.00  0.00    -0.507 OA
ATOM     10  H   LIG    1       29.316 -16.767  19.263  0.00  0.00    +0.292 HD
ENDBRANCH   3   9
ENDBRANCH   1   6
BRANCH   2  11
ATOM     11  C   LIG    1       20.902 -16.159  18.812  0.00  0.00    -0.018 A 
ATOM     12  C   LIG    1       20.463 -17.484  18.656  0.00  0.00    +0.053 A 
ATOM     13  C   LIG    1       19.102 -17.778  18.566  0.00  0.00    +0.121 A 
ATOM     14  C   LIG    1       18.150 -16.771  18.628  0.00  0.00    +0.090 A 
ATOM     15  C   LIG    1       18.578 -15.458  18.777  0.00  0.00    +0.121 A 
ATOM     16  C   LIG    1       19.935 -15.143  18.868  0.00  0.00    +0.053 A 
BRANCH  13  17
ATOM     17  O   LIG    1       18.744 -19.086  18.423  0.00  0.00    -0.507 OA
ATOM     18  H   LIG    1       19.403 -19.526  17.861  0.00  0.00    +0.292 HD
ENDBRANCH  13  17
BRANCH  15  19
ATOM     19  O   LIG    1       17.619 -14.487  18.836  0.00  0.00    -0.507 OA
ATOM     20  H   LIG    1       17.829 -13.885  19.570  0.00  0.00    +0.292 HD
ENDBRANCH  15  19
ENDBRANCH   2  11
TORSDOF 5
ENDMDL
MODEL 2
REMARK VINA RESULT:      -8.1      0.163      2.005
REMARK  Name = 
REMARK                            x       y       z     vdW  Elec       q    Type
REMARK                         _______ _______ _______ _____ _____    ______ ____
ROOT
ATOM      1  C   LIG    1       23.359 -16.797  18.491  0.00  0.00    +0.008 C 
ATOM      2  C   LIG    1       22.345 -16.083  19.009  0.00  0.00    +0.009 C 
ENDROOT
BRANCH   1   6
ATOM      3  C   LIG    1       27.538 -15.961  18.946  0.00  0.00    +0.117 A 
ATOM      4  C   LIG    1       27.002 -16.012  17.667  0.00  0.00    +0.046 A 
ATOM      5  C   LIG    1       25.638 -16.271  17.493  0.00  0.00    +0.011 A 
ATOM      6  C   LIG    1       24.799 -16.480  18.597  0.00  0.00    -0.025 A 
ATOM      7  C   LIG    1       25.367 -16.407  19.881  0.00  0.00    +0.011 A 
ATOM      8  C   LIG    1       26.731 -16.151  20.058  0.00  0.00    +0.046 A 
BRANCH   3   9
ATOM      9  O   LIG    1       28.875 -15.724  19.067  0.00  0.00    -0.507 OA
ATOM     10  H   LIG    1       29.030 -15.239  19.894  0.00  0.00    +0.292 HD
ENDBRANCH   3   9
ENDBRANCH   1   6
BRANCH   2  11
ATOM     11  C   LIG    1       20.902 -16.372  18.858  0.00  0.00    -0.018 A 
ATOM     12  C   LIG    1       20.004 -15.293  18.911  0.00  0.00    +0.053 A 
ATOM     13  C   LIG    1       18.634 -15.498  18.751  0.00  0.00    +0.121 A 
ATOM     14  C   LIG    1       18.124 -16.770  18.538  0.00  0.00    +0.090 A 
ATOM     15  C   LIG    1       19.005 -17.842  18.491  0.00  0.00    +0.121 A 
ATOM     16  C   LIG    1       20.381 -17.658  18.649  0.00  0.00    +0.053 A 
BRANCH  13  17
ATOM     17  O   LIG    1       17.818 -14.406  18.806  0.00  0.00    -0.507 OA
ATOM     18  H   LIG    1       17.744 -14.033  17.911  0.00  0.00    +0.292 HD
ENDBRANCH  13  17
BRANCH  15  19
ATOM     19  O   LIG    1       18.476 -19.084  18.278  0.00  0.00    -0.507 OA
ATOM     20  H   LIG    1       18.378 -19.532  19.135  0.00  0.00    +0.292 HD
ENDBRANCH  15  19
ENDBRANCH   2  11
TORSDOF 5
ENDMDL
MODEL 3
REMARK VINA RESULT:      -8.1      2.505      7.704
REMARK  Name = 
REMARK                            x       y       z     vdW  Elec       q    Type
REMARK                         _______ _______ _______ _____ _____    ______ ____
ROOT
ATOM      1  C   LIG    1       20.025 -15.400  18.438  0.00  0.00    +0.008 C 
ATOM      2  C   LIG    1       20.964 -15.754  17.544  0.00  0.00    +0.009 C 
ENDROOT
BRANCH   1   6
ATOM      3  C   LIG    1       15.819 -16.186  18.173  0.00  0.00    +0.117 A 
ATOM      4  C   LIG    1       16.265 -14.878  18.046  0.00  0.00    +0.046 A 
ATOM      5  C   LIG    1       17.633 -14.597  18.115  0.00  0.00    +0.011 A 
ATOM      6  C   LIG    1       18.568 -15.623  18.313  0.00  0.00    -0.025 A 
ATOM      7  C   LIG    1       18.090 -16.940  18.424  0.00  0.00    +0.011 A 
ATOM      8  C   LIG    1       16.721 -17.224  18.356  0.00  0.00    +0.046 A 
BRANCH   3   9
ATOM      9  O   LIG    1       14.476 -16.410  18.116  0.00  0.00    -0.507 OA
ATOM     10  H   LIG    1       14.250 -17.102  18.758  0.00  0.00    +0.292 HD
ENDBRANCH   3   9
ENDBRANCH   1   6
BRANCH   2  11
ATOM     11  C   LIG    1       22.416 -15.484  17.644  0.00  0.00    -0.018 A 
ATOM     12  C   LIG    1       23.290 -16.303  16.912  0.00  0.00    +0.053 A 
ATOM     13  C   LIG    1       24.667 -16.083  16.946  0.00  0.00    +0.121 A 
ATOM     14  C   LIG    1       25.206 -15.055  17.704  0.00  0.00    +0.090 A 
ATOM     15  C   LIG    1       24.347 -14.245  18.435  0.00  0.00    +0.121 A 
ATOM     16  C   LIG    1       22.966 -14.448  18.415  0.00  0.00    +0.053 A 
BRANCH  13  17
ATOM     17  O   LIG    1       25.460 -16.911  16.205  0.00  0.00    -0.507 OA
ATOM     18  H   LIG    1       25.286 -17.827  16.476  0.00  0.00    +0.292 HD
ENDBRANCH  13  17
BRANCH  15  19
ATOM     19  O   LIG    1       24.905 -13.238  19.171  0.00  0.00    -0.507 OA
ATOM     20  H   LIG    1       24.582 -13.304  20.085  0.00  0.00    +0.292 HD
ENDBRANCH  15  19
ENDBRANCH   2  11
TORSDOF 5
ENDMDL
MODEL 4
REMARK VINA RESULT:      -8.0      3.252      4.885
REMARK  Name = 
REMARK                            x       y       z     vdW  Elec       q    Type
REMARK                         _______ _______ _______ _____ _____    ______ ____
ROOT
ATOM      1  C   LIG    1       18.678 -15.611  18.400  0.00  0.00    +0.008 C 
ATOM      2  C   LIG    1       17.645 -14.756  18.307  0.00  0.00    +0.009 C 
ENDROOT
BRANCH   1   6
ATOM      3  C   LIG    1       22.857 -14.800  17.896  0.00  0.00    +0.117 A 
ATOM      4  C   LIG    1       21.971 -14.378  16.915  0.00  0.00    +0.046 A 
ATOM      5  C   LIG    1       20.601 -14.619  17.062  0.00  0.00    +0.011 A 
ATOM      6  C   LIG    1       20.106 -15.285  18.193  0.00  0.00    -0.025 A 
ATOM      7  C   LIG    1       21.025 -15.687  19.178  0.00  0.00    +0.011 A 
ATOM      8  C   LIG    1       22.396 -15.449  19.032  0.00  0.00    +0.046 A 
BRANCH   3   9
ATOM      9  O   LIG    1       24.185 -14.560  17.702  0.00  0.00    -0.507 OA
ATOM     10  H   LIG    1       24.573 -15.319  17.240  0.00  0.00    +0.292 HD
ENDBRANCH   3   9
ENDBRANCH   1   6
BRANCH   2  11
ATOM     11  C   LIG    1       16.212 -15.093  18.462  0.00  0.00    -0.018 A 
ATOM     12  C   LIG    1       15.884 -16.308  19.084  0.00  0.00    +0.053 A 
ATOM     13  C   LIG    1       14.552 -16.671  19.281  0.00  0.00    +0.121 A 
ATOM     14  C   LIG    1       13.520 -15.843  18.866  0.00  0.00    +0.090 A 
ATOM     15  C   LIG    1       13.837 -14.643  18.245  0.00  0.00    +0.121 A 
ATOM     16  C   LIG    1       15.164 -14.261  18.038  0.00  0.00    +0.053 A 
BRANCH  13  17
ATOM     17  O   LIG    1       14.303 -17.861  19.900  0.00  0.00    -0.507 OA
ATOM     18  H   LIG    1       13.535 -18.275  19.473  0.00  0.00    +0.292 HD
ENDBRANCH  13  17
BRANCH  15  19
ATOM     19  O   LIG    1       12.800 -13.846  17.848  0.00  0.00    -0.507 OA
ATOM     20  H   LIG    1       12.147 -14.393  17.380  0.00  0.00    +0.292 HD
ENDBRANCH  15  19
ENDBRANCH   2  11
TORSDOF 5
ENDMDL
MODEL 5
REMARK VINA RESULT:      -8.0      2.396      7.859
REMARK  Name = 
REMARK                            x       y       z     vdW  Elec       q    Type
REMARK                         _______ _______ _______ _____ _____    ______ ____
ROOT
ATOM      1  C   LIG    1       20.213 -15.461  18.323  0.00  0.00    +0.008 C 
ATOM      2  C   LIG    1       21.134 -15.989  17.499  0.00  0.00    +0.009 C 
ENDROOT
BRANCH   1   6
ATOM      3  C   LIG    1       16.005 -16.275  18.263  0.00  0.00    +0.117 A 
ATOM      4  C   LIG    1       16.434 -14.961  18.138  0.00  0.00    +0.046 A 
ATOM      5  C   LIG    1       17.803 -14.671  18.142  0.00  0.00    +0.011 A 
ATOM      6  C   LIG    1       18.754 -15.694  18.270  0.00  0.00    -0.025 A 
ATOM      7  C   LIG    1       18.291 -17.017  18.380  0.00  0.00    +0.011 A 
ATOM      8  C   LIG    1       16.923 -17.309  18.378  0.00  0.00    +0.046 A 
BRANCH   3   9
ATOM      9  O   LIG    1       14.663 -16.509  18.271  0.00  0.00    -0.507 OA
ATOM     10  H   LIG    1       14.206 -15.686  18.509  0.00  0.00    +0.292 HD
ENDBRANCH   3   9
ENDBRANCH   1   6
BRANCH   2  11
ATOM     11  C   LIG    1       22.588 -15.715  17.519  0.00  0.00    -0.018 A 
ATOM     12  C   LIG    1       23.042 -14.617  18.267  0.00  0.00    +0.053 A 
ATOM     13  C   LIG    1       24.403 -14.322  18.345  0.00  0.00    +0.121 A 
ATOM     14  C   LIG    1       25.341 -15.103  17.685  0.00  0.00    +0.090 A 
ATOM     15  C   LIG    1       24.898 -16.187  16.940  0.00  0.00    +0.121 A 
ATOM     16  C   LIG    1       23.540 -16.500  16.848  0.00  0.00    +0.053 A 
BRANCH  13  17
ATOM     17  O   LIG    1       24.777 -13.245  19.094  0.00  0.00    -0.507 OA
ATOM     18  H   LIG    1       25.748 -13.204  19.111  0.00  0.00    +0.292 HD
ENDBRANCH  13  17
BRANCH  15  19
ATOM     19  O   LIG    1       25.843 -16.941  16.302  0.00  0.00    -0.507 OA
ATOM     20  H   LIG    1       26.357 -16.364  15.713  0.00  0.00    +0.292 HD
ENDBRANCH  15  19
ENDBRANCH   2  11
TORSDOF 5
ENDMDL
MODEL 6
REMARK VINA RESULT:      -7.9      3.233      5.301
REMARK  Name = 
REMARK                            x       y       z     vdW  Elec       q    Type
REMARK                         _______ _______ _______ _____ _____    ______ ____
ROOT
ATOM      1  C   LIG    1       18.673 -14.894  18.081  0.00  0.00    +0.008 C 
ATOM      2  C   LIG    1       17.812 -15.743  18.667  0.00  0.00    +0.009 C 
ENDROOT
BRANCH   1   6
ATOM      3  C   LIG    1       22.942 -15.177  17.814  0.00  0.00    +0.117 A 
ATOM      4  C   LIG    1       22.309 -15.663  18.949  0.00  0.00    +0.046 A 
ATOM      5  C   LIG    1       20.916 -15.594  19.054  0.00  0.00    +0.011 A 
ATOM      6  C   LIG    1       20.144 -15.038  18.024  0.00  0.00    -0.025 A 
ATOM      7  C   LIG    1       20.810 -14.567  16.880  0.00  0.00    +0.011 A 
ATOM      8  C   LIG    1       22.204 -14.633  16.773  0.00  0.00    +0.046 A 
BRANCH   3   9
ATOM      9  O   LIG    1       24.302 -15.249  17.763  0.00  0.00    -0.507 OA
ATOM     10  H   LIG    1       24.561 -15.606  16.898  0.00  0.00    +0.292 HD
ENDBRANCH   3   9
ENDBRANCH   1   6
BRANCH   2  11
ATOM     11  C   LIG    1       16.345 -15.573  18.769  0.00  0.00    -0.018 A 
ATOM     12  C   LIG    1       15.790 -14.359  18.332  0.00  0.00    +0.053 A 
ATOM     13  C   LIG    1       14.413 -14.148  18.380  0.00  0.00    +0.121 A 
ATOM     14  C   LIG    1       13.558 -15.127  18.861  0.00  0.00    +0.090 A 
ATOM     15  C   LIG    1       14.100 -16.328  19.300  0.00  0.00    +0.121 A 
ATOM     16  C   LIG    1       15.477 -16.560  19.261  0.00  0.00    +0.053 A 
BRANCH  13  17
ATOM     17  O   LIG    1       13.939 -12.949  17.932  0.00  0.00    -0.507 OA
ATOM     18  H   LIG    1       13.243 -13.119  17.276  0.00  0.00    +0.292 HD
ENDBRANCH  13  17
BRANCH  15  19
ATOM     19  O   LIG    1       13.235 -17.276  19.767  0.00  0.00    -0.507 OA
ATOM     20  H   LIG    1       12.436 -16.834  20.099  0.00  0.00    +0.292 HD
ENDBRANCH  15  19
ENDBRANCH   2  11
TORSDOF 5
ENDMDL
MODEL 7
REMARK VINA RESULT:      -7.8      1.920      7.352
REMARK  Name = 
REMARK                            x       y       z     vdW  Elec       q    Type
REMARK                         _______ _______ _______ _____ _____    ______ ____
ROOT
ATOM      1  C   LIG    1       21.229 -15.503  19.019  0.00  0.00    +0.008 C 
ATOM      2  C   LIG    1       22.414 -16.115  18.859  0.00  0.00    +0.009 C 
ENDROOT
BRANCH   1   6
ATOM      3  C   LIG    1       17.416 -17.349  18.366  0.00  0.00    +0.117 A 
ATOM      4  C   LIG    1       17.494 -15.963  18.385  0.00  0.00    +0.046 A 
ATOM      5  C   LIG    1       18.728 -15.337  18.583  0.00  0.00    +0.011 A 
ATOM      6  C   LIG    1       19.896 -16.092  18.764  0.00  0.00    -0.025 A 
ATOM      7  C   LIG    1       19.790 -17.493  18.725  0.00  0.00    +0.011 A 
ATOM      8  C   LIG    1       18.556 -18.122  18.528  0.00  0.00    +0.046 A 
BRANCH   3   9
ATOM      9  O   LIG    1       16.189 -17.916  18.187  0.00  0.00    -0.507 OA
ATOM     10  H   LIG    1       16.225 -18.493  17.407  0.00  0.00    +0.292 HD
ENDBRANCH   3   9
ENDBRANCH   1   6
BRANCH   2  11
ATOM     11  C   LIG    1       23.749 -15.510  19.064  0.00  0.00    -0.018 A 
ATOM     12  C   LIG    1       24.760 -16.314  19.614  0.00  0.00    +0.053 A 
ATOM     13  C   LIG    1       26.045 -15.808  19.808  0.00  0.00    +0.121 A 
ATOM     14  C   LIG    1       26.355 -14.500  19.467  0.00  0.00    +0.090 A 
ATOM     15  C   LIG    1       25.359 -13.698  18.927  0.00  0.00    +0.121 A 
ATOM     16  C   LIG    1       24.065 -14.185  18.725  0.00  0.00    +0.053 A 
BRANCH  13  17
ATOM     17  O   LIG    1       26.983 -16.644  20.339  0.00  0.00    -0.507 OA
ATOM     18  H   LIG    1       27.814 -16.526  19.849  0.00  0.00    +0.292 HD
ENDBRANCH  13  17
BRANCH  15  19
ATOM     19  O   LIG    1       25.692 -12.414  18.598  0.00  0.00    -0.507 OA
ATOM     20  H   LIG    1       26.611 -12.251  18.869  0.00  0.00    +0.292 HD
ENDBRANCH  15  19
ENDBRANCH   2  11
TORSDOF 5
ENDMDL
MODEL 8
REMARK VINA RESULT:      -7.7      2.188      3.035
REMARK  Name = 
REMARK                            x       y       z     vdW  Elec       q    Type
REMARK                         _______ _______ _______ _____ _____    ______ ____
ROOT
ATOM      1  C   LIG    1       20.564 -15.213  17.467  0.00  0.00    +0.008 C 
ATOM      2  C   LIG    1       19.759 -15.998  18.202  0.00  0.00    +0.009 C 
ENDROOT
BRANCH   1   6
ATOM      3  C   LIG    1       24.849 -15.261  17.570  0.00  0.00    +0.117 A 
ATOM      4  C   LIG    1       24.191 -16.132  16.714  0.00  0.00    +0.046 A 
ATOM      5  C   LIG    1       22.794 -16.126  16.653  0.00  0.00    +0.011 A 
ATOM      6  C   LIG    1       22.043 -15.248  17.448  0.00  0.00    -0.025 A 
ATOM      7  C   LIG    1       22.736 -14.367  18.295  0.00  0.00    +0.011 A 
ATOM      8  C   LIG    1       24.134 -14.372  18.360  0.00  0.00    +0.046 A 
BRANCH   3   9
ATOM      9  O   LIG    1       26.211 -15.313  17.610  0.00  0.00    -0.507 OA
ATOM     10  H   LIG    1       26.487 -16.242  17.542  0.00  0.00    +0.292 HD
ENDBRANCH   3   9
ENDBRANCH   1   6
BRANCH   2  11
ATOM     11  C   LIG    1       18.281 -15.927  18.262  0.00  0.00    -0.018 A 
ATOM     12  C   LIG    1       17.573 -17.116  18.499  0.00  0.00    +0.053 A 
ATOM     13  C   LIG    1       16.182 -17.110  18.589  0.00  0.00    +0.121 A 
ATOM     14  C   LIG    1       15.463 -15.933  18.447  0.00  0.00    +0.090 A 
ATOM     15  C   LIG    1       16.157 -14.754  18.207  0.00  0.00    +0.121 A 
ATOM     16  C   LIG    1       17.550 -14.738  18.112  0.00  0.00    +0.053 A 
BRANCH  13  17
ATOM     17  O   LIG    1       15.557 -18.299  18.829  0.00  0.00    -0.507 OA
ATOM     18  H   LIG    1       14.608 -18.189  18.649  0.00  0.00    +0.292 HD
ENDBRANCH  13  17
BRANCH  15  19
ATOM     19  O   LIG    1       15.424 -13.608  18.073  0.00  0.00    -0.507 OA
ATOM     20  H   LIG    1       14.799 -13.549  18.814  0.00  0.00    +0.292 HD
ENDBRANCH  15  19
ENDBRANCH   2  11
TORSDOF 5
ENDMDL
MODEL 9
REMARK VINA RESULT:      -7.7      3.227      8.528
REMARK  Name = 
REMARK                            x       y       z     vdW  Elec       q    Type
REMARK                         _______ _______ _______ _____ _____    ______ ____
ROOT
ATOM      1  C   LIG    1       18.210 -14.808  18.072  0.00  0.00    +0.008 C 
ATOM      2  C   LIG    1       19.248 -15.398  18.690  0.00  0.00    +0.009 C 
ENDROOT
BRANCH   1   6
ATOM      3  C   LIG    1       14.173 -14.445  19.466  0.00  0.00    +0.117 A 
ATOM      4  C   LIG    1       15.171 -14.753  20.379  0.00  0.00    +0.046 A 
ATOM      5  C   LIG    1       16.498 -14.864  19.952  0.00  0.00    +0.011 A 
ATOM      6  C   LIG    1       16.838 -14.668  18.606  0.00  0.00    -0.025 A 
ATOM      7  C   LIG    1       15.809 -14.343  17.705  0.00  0.00    +0.011 A 
ATOM      8  C   LIG    1       14.480 -14.233  18.129  0.00  0.00    +0.046 A 
BRANCH   3   9
ATOM      9  O   LIG    1       12.892 -14.365  19.924  0.00  0.00    -0.507 OA
ATOM     10  H   LIG    1       12.492 -15.249  19.884  0.00  0.00    +0.292 HD
ENDBRANCH   3   9
ENDBRANCH   1   6
BRANCH   2  11
ATOM     11  C   LIG    1       20.607 -15.584  18.135  0.00  0.00    -0.018 A 
ATOM     12  C   LIG    1       21.558 -14.577  18.368  0.00  0.00    +0.053 A 
ATOM     13  C   LIG    1       22.862 -14.706  17.892  0.00  0.00    +0.121 A 
ATOM     14  C   LIG    1       23.253 -15.829  17.177  0.00  0.00    +0.090 A 
ATOM     15  C   LIG    1       22.316 -16.826  16.939  0.00  0.00    +0.121 A 
ATOM     16  C   LIG    1       21.004 -16.716  17.406  0.00  0.00    +0.053 A 
BRANCH  13  17
ATOM     17  O   LIG    1       23.738 -13.695  18.159  0.00  0.00    -0.507 OA
ATOM     18  H   LIG    1       23.728 -13.524  19.116  0.00  0.00    +0.292 HD
ENDBRANCH  13  17
BRANCH  15  19
ATOM     19  O   LIG    1       22.728 -17.921  16.233  0.00  0.00    -0.507 OA
ATOM     20  H   LIG    1       22.010 -18.198  15.640  0.00  0.00    +0.292 HD
ENDBRANCH  15  19
ENDBRANCH   2  11
TORSDOF 5
ENDMDL
