MODEL 1
REMARK VINA RESULT:      -8.1      0.000      0.000
REMARK  Name = 
REMARK                            x       y       z     vdW  Elec       q    Type
REMARK                         _______ _______ _______ _____ _____    ______ ____
ROOT
ATOM      1  C   LIG    1       14.374   1.038  -6.201  0.00  0.00    +0.008 C 
ATOM      2  C   LIG    1       15.199   1.199  -5.152  0.00  0.00    +0.009 C 
ENDROOT
BRANCH   1   6
ATOM      3  C   LIG    1       15.347  -0.162 -10.199  0.00  0.00    +0.117 A 
ATOM      4  C   LIG    1       16.378   0.076  -9.303  0.00  0.00    +0.046 A 
ATOM      5  C   LIG    1       16.087   0.456  -7.989  0.00  0.00    +0.011 A 
ATOM      6  C   LIG    1       14.759   0.601  -7.561  0.00  0.00    -0.025 A 
ATOM      7  C   LIG    1       13.734   0.339  -8.486  0.00  0.00    +0.011 A 
ATOM      8  C   LIG    1       14.023  -0.040  -9.801  0.00  0.00    +0.046 A 
BRANCH   3   9
ATOM      9  O   LIG    1       15.678  -0.513 -11.474  0.00  0.00    -0.507 OA
ATOM     10  H   LIG    1       16.642  -0.453 -11.571  0.00  0.00    +0.292 HD
ENDBRANCH   3   9
ENDBRANCH   1   6
BRANCH   2  11
ATOM     11  C   LIG    1       14.822   1.686  -3.807  0.00  0.00    -0.018 A 
ATOM     12  C   LIG    1       13.455   1.818  -3.513  0.00  0.00    +0.053 A 
ATOM     13  C   LIG    1       13.036   2.249  -2.255  0.00  0.00    +0.121 A 
ATOM     14  C   LIG    1       13.956   2.560  -1.264  0.00  0.00    +0.090 A 
ATOM     15  C   LIG    1       15.309   2.436  -1.550  0.00  0.00    +0.121 A 
ATOM     16  C   LIG    1       15.750   2.007  -2.804  0.00  0.00    +0.053 A 
BRANCH  13  17
ATOM     17  O   LIG    1       11.693   2.349  -2.032  0.00  0.00    -0.507 OA
ATOM     18  H   LIG    1       11.417   3.261  -2.224  0.00  0.00    +0.292 HD
ENDBRANCH  13  17
BRANCH  15  19
ATOM     19  O   LIG    1       16.194   2.747  -0.556  0.00  0.00    -0.507 OA
ATOM     20  H   LIG    1       17.038   2.302  -0.739  0.00  0.00    +0.292 HD
ENDBRANCH  15  19
ENDBRANCH   2  11
TORSDOF 5
ENDMDL
MODEL 2
REMARK VINA RESULT:      -8.1      1.256      7.520
REMARK  Name = 
REMARK                            x       y       z     vdW  Elec       q    Type
REMARK                         _______ _______ _______ _____ _____    ______ ____
ROOT
ATOM      1  C   LIG    1       14.239   0.887  -6.086  0.00  0.00    +0.008 C 
ATOM      2  C   LIG    1       15.034   1.318  -7.081  0.00  0.00    +0.009 C 
ENDROOT
BRANCH   1   6
ATOM      3  C   LIG    1       14.309   2.460  -2.100  0.00  0.00    +0.117 A 
ATOM      4  C   LIG    1       13.083   2.202  -2.695  0.00  0.00    +0.046 A 
ATOM      5  C   LIG    1       13.034   1.677  -3.991  0.00  0.00    +0.011 A 
ATOM      6  C   LIG    1       14.212   1.404  -4.701  0.00  0.00    -0.025 A 
ATOM      7  C   LIG    1       15.440   1.661  -4.067  0.00  0.00    +0.011 A 
ATOM      8  C   LIG    1       15.492   2.189  -2.772  0.00  0.00    +0.046 A 
BRANCH   3   9
ATOM      9  O   LIG    1       14.309   2.988  -0.843  0.00  0.00    -0.507 OA
ATOM     10  H   LIG    1       15.222   3.211  -0.600  0.00  0.00    +0.292 HD
ENDBRANCH   3   9
ENDBRANCH   1   6
BRANCH   2  11
ATOM     11  C   LIG    1       15.098   0.766  -8.453  0.00  0.00    -0.018 A 
ATOM     12  C   LIG    1       14.219  -0.277  -8.786  0.00  0.00    +0.053 A 
ATOM     13  C   LIG    1       14.215  -0.822 -10.069  0.00  0.00    +0.121 A 
ATOM     14  C   LIG    1       15.079  -0.351 -11.047  0.00  0.00    +0.090 A 
ATOM     15  C   LIG    1       15.954   0.677 -10.723  0.00  0.00    +0.121 A 
ATOM     16  C   LIG    1       15.975   1.236  -9.443  0.00  0.00    +0.053 A 
BRANCH  13  17
ATOM     17  O   LIG    1       13.330  -1.828 -10.328  0.00  0.00    -0.507 OA
ATOM     18  H   LIG    1       12.489  -1.433 -10.611  0.00  0.00    +0.292 HD
ENDBRANCH  13  17
BRANCH  15  19
ATOM     19  O   LIG    1       16.792   1.123 -11.705  0.00  0.00    -0.507 OA
ATOM     20  H   LIG    1       16.262   1.550 -12.399  0.00  0.00    +0.292 HD
ENDBRANCH  15  19
ENDBRANCH   2  11
TORSDOF 5
ENDMDL
MODEL 3
REMARK VINA RESULT:      -8.0      0.140      2.003
REMARK  Name = 
REMARK                            x       y       z     vdW  Elec       q    Type
REMARK                         _______ _______ _______ _____ _____    ______ ____
ROOT
ATOM      1  C   LIG    1       14.320   1.039  -6.199  0.00  0.00    +0.008 C 
ATOM      2  C   LIG    1       15.096   1.157  -5.108  0.00  0.00    +0.009 C 
ENDROOT
BRANCH   1   6
ATOM      3  C   LIG    1       15.452  -0.122 -10.167  0.00  0.00    +0.117 A 
ATOM      4  C   LIG    1       16.448   0.152  -9.240  0.00  0.00    +0.046 A 
ATOM      5  C   LIG    1       16.104   0.521  -7.936  0.00  0.00    +0.011 A 
ATOM      6  C   LIG    1       14.760   0.617  -7.546  0.00  0.00    -0.025 A 
ATOM      7  C   LIG    1       13.773   0.319  -8.501  0.00  0.00    +0.011 A 
ATOM      8  C   LIG    1       14.113  -0.047  -9.808  0.00  0.00    +0.046 A 
BRANCH   3   9
ATOM      9  O   LIG    1       15.833  -0.460 -11.431  0.00  0.00    -0.507 OA
ATOM     10  H   LIG    1       16.788  -0.631 -11.431  0.00  0.00    +0.292 HD
ENDBRANCH   3   9
ENDBRANCH   1   6
BRANCH   2  11
ATOM     11  C   LIG    1       14.666   1.629  -3.773  0.00  0.00    -0.018 A 
ATOM     12  C   LIG    1       15.660   1.966  -2.841  0.00  0.00    +0.053 A 
ATOM     13  C   LIG    1       15.319   2.440  -1.575  0.00  0.00    +0.121 A 
ATOM     14  C   LIG    1       13.990   2.588  -1.204  0.00  0.00    +0.090 A 
ATOM     15  C   LIG    1       13.002   2.252  -2.119  0.00  0.00    +0.121 A 
ATOM     16  C   LIG    1       13.323   1.775  -3.392  0.00  0.00    +0.053 A 
BRANCH  13  17
ATOM     17  O   LIG    1       16.334   2.756  -0.720  0.00  0.00    -0.507 OA
ATOM     18  H   LIG    1       17.178   2.560  -1.160  0.00  0.00    +0.292 HD
ENDBRANCH  13  17
BRANCH  15  19
ATOM     19  O   LIG    1       11.702   2.410  -1.728  0.00  0.00    -0.507 OA
ATOM     20  H   LIG    1       11.316   3.153  -2.221  0.00  0.00    +0.292 HD
ENDBRANCH  15  19
ENDBRANCH   2  11
TORSDOF 5
ENDMDL
MODEL 4
REMARK VINA RESULT:      -8.0      1.271      7.696
REMARK  Name = 
REMARK                            x       y       z     vdW  Elec       q    Type
REMARK                         _______ _______ _______ _____ _____    ______ ____
ROOT
ATOM      1  C   LIG    1       14.148   0.865  -5.981  0.00  0.00    +0.008 C 
ATOM      2  C   LIG    1       14.909   1.254  -7.019  0.00  0.00    +0.009 C 
ENDROOT
BRANCH   1   6
ATOM      3  C   LIG    1       14.457   2.487  -2.026  0.00  0.00    +0.117 A 
ATOM      4  C   LIG    1       13.199   2.344  -2.594  0.00  0.00    +0.046 A 
ATOM      5  C   LIG    1       13.071   1.806  -3.878  0.00  0.00    +0.011 A 
ATOM      6  C   LIG    1       14.201   1.405  -4.605  0.00  0.00    -0.025 A 
ATOM      7  C   LIG    1       15.461   1.547  -4.000  0.00  0.00    +0.011 A 
ATOM      8  C   LIG    1       15.592   2.087  -2.716  0.00  0.00    +0.046 A 
BRANCH   3   9
ATOM      9  O   LIG    1       14.535   3.033  -0.780  0.00  0.00    -0.507 OA
ATOM     10  H   LIG    1       14.183   2.395  -0.139  0.00  0.00    +0.292 HD
ENDBRANCH   3   9
ENDBRANCH   1   6
BRANCH   2  11
ATOM     11  C   LIG    1       14.892   0.678  -8.382  0.00  0.00    -0.018 A 
ATOM     12  C   LIG    1       15.798   1.191  -9.325  0.00  0.00    +0.053 A 
ATOM     13  C   LIG    1       15.848   0.673 -10.619  0.00  0.00    +0.121 A 
ATOM     14  C   LIG    1       15.005  -0.357 -11.008  0.00  0.00    +0.090 A 
ATOM     15  C   LIG    1       14.103  -0.865 -10.082  0.00  0.00    +0.121 A 
ATOM     16  C   LIG    1       14.037  -0.361  -8.781  0.00  0.00    +0.053 A 
BRANCH  13  17
ATOM     17  O   LIG    1       16.756   1.212 -11.483  0.00  0.00    -0.507 OA
ATOM     18  H   LIG    1       17.605   1.303 -11.019  0.00  0.00    +0.292 HD
ENDBRANCH  13  17
BRANCH  15  19
ATOM     19  O   LIG    1       13.286  -1.881 -10.491  0.00  0.00    -0.507 OA
ATOM     20  H   LIG    1       13.648  -2.264 -11.307  0.00  0.00    +0.292 HD
ENDBRANCH  15  19
ENDBRANCH   2  11
TORSDOF 5
ENDMDL
MODEL 5
REMARK VINA RESULT:      -7.4     11.561     14.855
REMARK  Name = 
REMARK                            x       y       z     vdW  Elec       q    Type
REMARK                         _______ _______ _______ _____ _____    ______ ____
ROOT
ATOM      1  C   LIG    1        2.845   6.447  -3.055  0.00  0.00    +0.008 C 
ATOM      2  C   LIG    1        3.061   7.595  -3.721  0.00  0.00    +0.009 C 
ENDROOT
BRANCH   1   6
ATOM      3  C   LIG    1       -0.009   5.938   0.102  0.00  0.00    +0.117 A 
ATOM      4  C   LIG    1       -0.341   5.509  -1.175  0.00  0.00    +0.046 A 
ATOM      5  C   LIG    1        0.578   5.653  -2.220  0.00  0.00    +0.011 A 
ATOM      6  C   LIG    1        1.838   6.226  -1.995  0.00  0.00    -0.025 A 
ATOM      7  C   LIG    1        2.153   6.637  -0.688  0.00  0.00    +0.011 A 
ATOM      8  C   LIG    1        1.235   6.497   0.358  0.00  0.00    +0.046 A 
BRANCH   3   9
ATOM      9  O   LIG    1       -0.942   5.794   1.085  0.00  0.00    -0.507 OA
ATOM     10  H   LIG    1       -1.680   5.268   0.738  0.00  0.00    +0.292 HD
ENDBRANCH   3   9
ENDBRANCH   1   6
BRANCH   2  11
ATOM     11  C   LIG    1        4.103   7.831  -4.745  0.00  0.00    -0.018 A 
ATOM     12  C   LIG    1        4.709   6.712  -5.339  0.00  0.00    +0.053 A 
ATOM     13  C   LIG    1        5.680   6.870  -6.327  0.00  0.00    +0.121 A 
ATOM     14  C   LIG    1        6.072   8.133  -6.747  0.00  0.00    +0.090 A 
ATOM     15  C   LIG    1        5.480   9.243  -6.160  0.00  0.00    +0.121 A 
ATOM     16  C   LIG    1        4.506   9.107  -5.168  0.00  0.00    +0.053 A 
BRANCH  13  17
ATOM     17  O   LIG    1        6.224   5.741  -6.868  0.00  0.00    -0.507 OA
ATOM     18  H   LIG    1        7.192   5.815  -6.824  0.00  0.00    +0.292 HD
ENDBRANCH  13  17
BRANCH  15  19
ATOM     19  O   LIG    1        5.884  10.474  -6.593  0.00  0.00    -0.507 OA
ATOM     20  H   LIG    1        6.005  10.442  -7.557  0.00  0.00    +0.292 HD
ENDBRANCH  15  19
ENDBRANCH   2  11
TORSDOF 5
ENDMDL
MODEL 6
REMARK VINA RESULT:      -7.3     11.582     14.910
REMARK  Name = 
REMARK                            x       y       z     vdW  Elec       q    Type
REMARK                         _______ _______ _______ _____ _____    ______ ____
ROOT
ATOM      1  C   LIG    1        3.054   6.893  -2.621  0.00  0.00    +0.008 C 
ATOM      2  C   LIG    1        2.929   7.010  -3.954  0.00  0.00    +0.009 C 
ENDROOT
BRANCH   1   6
ATOM      3  C   LIG    1       -0.012   5.983   0.233  0.00  0.00    +0.117 A 
ATOM      4  C   LIG    1       -0.181   5.576  -1.083  0.00  0.00    +0.046 A 
ATOM      5  C   LIG    1        0.811   5.850  -2.030  0.00  0.00    +0.011 A 
ATOM      6  C   LIG    1        1.981   6.533  -1.669  0.00  0.00    -0.025 A 
ATOM      7  C   LIG    1        2.133   6.920  -0.326  0.00  0.00    +0.011 A 
ATOM      8  C   LIG    1        1.141   6.649   0.623  0.00  0.00    +0.046 A 
BRANCH   3   9
ATOM      9  O   LIG    1       -1.012   5.710   1.118  0.00  0.00    -0.507 OA
ATOM     10  H   LIG    1       -0.811   4.871   1.564  0.00  0.00    +0.292 HD
ENDBRANCH   3   9
ENDBRANCH   1   6
BRANCH   2  11
ATOM     11  C   LIG    1        3.989   7.421  -4.902  0.00  0.00    -0.018 A 
ATOM     12  C   LIG    1        4.235   8.795  -5.060  0.00  0.00    +0.053 A 
ATOM     13  C   LIG    1        5.237   9.244  -5.919  0.00  0.00    +0.121 A 
ATOM     14  C   LIG    1        6.013   8.348  -6.639  0.00  0.00    +0.090 A 
ATOM     15  C   LIG    1        5.771   6.989  -6.492  0.00  0.00    +0.121 A 
ATOM     16  C   LIG    1        4.772   6.518  -5.636  0.00  0.00    +0.053 A 
BRANCH  13  17
ATOM     17  O   LIG    1        5.429  10.591  -6.021  0.00  0.00    -0.507 OA
ATOM     18  H   LIG    1        5.656  10.801  -6.942  0.00  0.00    +0.292 HD
ENDBRANCH  13  17
BRANCH  15  19
ATOM     19  O   LIG    1        6.552   6.129  -7.211  0.00  0.00    -0.507 OA
ATOM     20  H   LIG    1        7.378   6.581  -7.449  0.00  0.00    +0.292 HD
ENDBRANCH  15  19
ENDBRANCH   2  11
TORSDOF 5
ENDMDL
MODEL 7
REMARK VINA RESULT:      -7.0      1.650      7.432
REMARK  Name = 
REMARK                            x       y       z     vdW  Elec       q    Type
REMARK                         _______ _______ _______ _____ _____    ______ ____
ROOT
ATOM      1  C   LIG    1       14.150   1.160  -5.834  0.00  0.00    +0.008 C 
ATOM      2  C   LIG    1       13.565   0.684  -6.947  0.00  0.00    +0.009 C 
ENDROOT
BRANCH   1   6
ATOM      3  C   LIG    1       12.105   1.849  -2.131  0.00  0.00    +0.117 A 
ATOM      4  C   LIG    1       13.451   2.173  -2.222  0.00  0.00    +0.046 A 
ATOM      5  C   LIG    1       14.137   1.970  -3.423  0.00  0.00    +0.011 A 
ATOM      6  C   LIG    1       13.482   1.441  -4.544  0.00  0.00    -0.025 A 
ATOM      7  C   LIG    1       12.115   1.136  -4.428  0.00  0.00    +0.011 A 
ATOM      8  C   LIG    1       11.426   1.336  -3.227  0.00  0.00    +0.046 A 
BRANCH   3   9
ATOM      9  O   LIG    1       11.481   2.047  -0.935  0.00  0.00    -0.507 OA
ATOM     10  H   LIG    1       11.714   1.317  -0.339  0.00  0.00    +0.292 HD
ENDBRANCH   3   9
ENDBRANCH   1   6
BRANCH   2  11
ATOM     11  C   LIG    1       14.222   0.453  -8.252  0.00  0.00    -0.018 A 
ATOM     12  C   LIG    1       13.645  -0.486  -9.123  0.00  0.00    +0.053 A 
ATOM     13  C   LIG    1       14.203  -0.730 -10.377  0.00  0.00    +0.121 A 
ATOM     14  C   LIG    1       15.341  -0.055 -10.795  0.00  0.00    +0.090 A 
ATOM     15  C   LIG    1       15.919   0.870  -9.937  0.00  0.00    +0.121 A 
ATOM     16  C   LIG    1       15.376   1.130  -8.676  0.00  0.00    +0.053 A 
BRANCH  13  17
ATOM     17  O   LIG    1       13.589  -1.649 -11.177  0.00  0.00    -0.507 OA
ATOM     18  H   LIG    1       12.812  -1.232 -11.585  0.00  0.00    +0.292 HD
ENDBRANCH  13  17
BRANCH  15  19
ATOM     19  O   LIG    1       17.037   1.522 -10.374  0.00  0.00    -0.507 OA
ATOM     20  H   LIG    1       17.568   0.908 -10.909  0.00  0.00    +0.292 HD
ENDBRANCH  15  19
ENDBRANCH   2  11
TORSDOF 5
ENDMDL
MODEL 8
REMARK VINA RESULT:      -6.9      1.528      7.657
REMARK  Name = 
REMARK                            x       y       z     vdW  Elec       q    Type
REMARK                         _______ _______ _______ _____ _____    ______ ____
ROOT
ATOM      1  C   LIG    1       14.323   1.073  -6.046  0.00  0.00    +0.008 C 
ATOM      2  C   LIG    1       13.629   0.680  -7.128  0.00  0.00    +0.009 C 
ENDROOT
BRANCH   1   6
ATOM      3  C   LIG    1       12.598   1.862  -2.203  0.00  0.00    +0.117 A 
ATOM      4  C   LIG    1       13.908   2.252  -2.440  0.00  0.00    +0.046 A 
ATOM      5  C   LIG    1       14.490   2.017  -3.690  0.00  0.00    +0.011 A 
ATOM      6  C   LIG    1       13.764   1.390  -4.714  0.00  0.00    -0.025 A 
ATOM      7  C   LIG    1       12.434   1.020  -4.451  0.00  0.00    +0.011 A 
ATOM      8  C   LIG    1       11.851   1.252  -3.200  0.00  0.00    +0.046 A 
BRANCH   3   9
ATOM      9  O   LIG    1       12.078   2.095  -0.964  0.00  0.00    -0.507 OA
ATOM     10  H   LIG    1       12.804   2.327  -0.363  0.00  0.00    +0.292 HD
ENDBRANCH   3   9
ENDBRANCH   1   6
BRANCH   2  11
ATOM     11  C   LIG    1       14.182   0.412  -8.475  0.00  0.00    -0.018 A 
ATOM     12  C   LIG    1       15.353   1.087  -8.852  0.00  0.00    +0.053 A 
ATOM     13  C   LIG    1       15.936   0.860 -10.099  0.00  0.00    +0.121 A 
ATOM     14  C   LIG    1       15.373  -0.036 -10.996  0.00  0.00    +0.090 A 
ATOM     15  C   LIG    1       14.211  -0.703 -10.631  0.00  0.00    +0.121 A 
ATOM     16  C   LIG    1       13.612  -0.489  -9.387  0.00  0.00    +0.053 A 
BRANCH  13  17
ATOM     17  O   LIG    1       17.078   1.543 -10.400  0.00  0.00    -0.507 OA
ATOM     18  H   LIG    1       17.829   0.930 -10.333  0.00  0.00    +0.292 HD
ENDBRANCH  13  17
BRANCH  15  19
ATOM     19  O   LIG    1       13.679  -1.581 -11.532  0.00  0.00    -0.507 OA
ATOM     20  H   LIG    1       13.233  -1.076 -12.233  0.00  0.00    +0.292 HD
ENDBRANCH  15  19
ENDBRANCH   2  11
TORSDOF 5
ENDMDL
MODEL 9
REMARK VINA RESULT:      -6.8     10.834     12.782
REMARK  Name = 
REMARK                            x       y       z     vdW  Elec       q    Type
REMARK                         _______ _______ _______ _____ _____    ______ ____
ROOT
ATOM      1  C   LIG    1        3.865   6.949  -4.460  0.00  0.00    +0.008 C 
ATOM      2  C   LIG    1        4.004   6.528  -3.191  0.00  0.00    +0.009 C 
ENDROOT
BRANCH   1   6
ATOM      3  C   LIG    1        7.040   7.664  -7.248  0.00  0.00    +0.117 A 
ATOM      4  C   LIG    1        6.765   6.357  -6.869  0.00  0.00    +0.046 A 
ATOM      5  C   LIG    1        5.725   6.097  -5.970  0.00  0.00    +0.011 A 
ATOM      6  C   LIG    1        4.952   7.142  -5.444  0.00  0.00    -0.025 A 
ATOM      7  C   LIG    1        5.243   8.453  -5.857  0.00  0.00    +0.011 A 
ATOM      8  C   LIG    1        6.284   8.717  -6.754  0.00  0.00    +0.046 A 
BRANCH   3   9
ATOM      9  O   LIG    1        8.074   7.872  -8.112  0.00  0.00    -0.507 OA
ATOM     10  H   LIG    1        8.096   8.813  -8.348  0.00  0.00    +0.292 HD
ENDBRANCH   3   9
ENDBRANCH   1   6
BRANCH   2  11
ATOM     11  C   LIG    1        2.923   6.385  -2.190  0.00  0.00    -0.018 A 
ATOM     12  C   LIG    1        3.171   6.832  -0.883  0.00  0.00    +0.053 A 
ATOM     13  C   LIG    1        2.184   6.747   0.098  0.00  0.00    +0.121 A 
ATOM     14  C   LIG    1        0.935   6.217  -0.191  0.00  0.00    +0.090 A 
ATOM     15  C   LIG    1        0.685   5.769  -1.481  0.00  0.00    +0.121 A 
ATOM     16  C   LIG    1        1.660   5.845  -2.478  0.00  0.00    +0.053 A 
BRANCH  13  17
ATOM     17  O   LIG    1        2.489   7.206   1.347  0.00  0.00    -0.507 OA
ATOM     18  H   LIG    1        1.739   7.732   1.672  0.00  0.00    +0.292 HD
ENDBRANCH  13  17
BRANCH  15  19
ATOM     19  O   LIG    1       -0.554   5.254  -1.739  0.00  0.00    -0.507 OA
ATOM     20  H   LIG    1       -1.201   5.979  -1.734  0.00  0.00    +0.292 HD
ENDBRANCH  15  19
ENDBRANCH   2  11
TORSDOF 5
ENDMDL
