MODEL 1
REMARK VINA RESULT:      -8.6      0.000      0.000
REMARK  Name = 
REMARK                            x       y       z     vdW  Elec       q    Type
REMARK                         _______ _______ _______ _____ _____    ______ ____
ROOT
ATOM      1  C   LIG    1        1.930  31.013   4.360  0.00  0.00    +0.008 C 
ATOM      2  C   LIG    1        1.775  32.019   5.237  0.00  0.00    +0.009 C 
ENDROOT
BRANCH   1   6
ATOM      3  C   LIG    1        3.631  27.200   5.329  0.00  0.00    +0.117 A 
ATOM      4  C   LIG    1        2.351  27.245   4.794  0.00  0.00    +0.046 A 
ATOM      5  C   LIG    1        1.780  28.476   4.458  0.00  0.00    +0.011 A 
ATOM      6  C   LIG    1        2.484  29.673   4.653  0.00  0.00    -0.025 A 
ATOM      7  C   LIG    1        3.783  29.596   5.183  0.00  0.00    +0.011 A 
ATOM      8  C   LIG    1        4.357  28.366   5.522  0.00  0.00    +0.046 A 
BRANCH   3   9
ATOM      9  O   LIG    1        4.141  25.979   5.659  0.00  0.00    -0.507 OA
ATOM     10  H   LIG    1        3.611  25.294   5.222  0.00  0.00    +0.292 HD
ENDBRANCH   3   9
ENDBRANCH   1   6
BRANCH   2  11
ATOM     11  C   LIG    1        1.270  33.377   4.933  0.00  0.00    -0.018 A 
ATOM     12  C   LIG    1        0.028  33.490   4.289  0.00  0.00    +0.053 A 
ATOM     13  C   LIG    1       -0.512  34.742   3.997  0.00  0.00    +0.121 A 
ATOM     14  C   LIG    1        0.163  35.905   4.333  0.00  0.00    +0.090 A 
ATOM     15  C   LIG    1        1.395  35.801   4.966  0.00  0.00    +0.121 A 
ATOM     16  C   LIG    1        1.954  34.557   5.266  0.00  0.00    +0.053 A 
BRANCH  13  17
ATOM     17  O   LIG    1       -1.727  34.780   3.377  0.00  0.00    -0.507 OA
ATOM     18  H   LIG    1       -2.056  35.694   3.401  0.00  0.00    +0.292 HD
ENDBRANCH  13  17
BRANCH  15  19
ATOM     19  O   LIG    1        2.038  36.963   5.287  0.00  0.00    -0.507 OA
ATOM     20  H   LIG    1        2.262  37.434   4.467  0.00  0.00    +0.292 HD
ENDBRANCH  15  19
ENDBRANCH   2  11
TORSDOF 5
ENDMDL
MODEL 2
REMARK VINA RESULT:      -8.4      0.237      2.012
REMARK  Name = 
REMARK                            x       y       z     vdW  Elec       q    Type
REMARK                         _______ _______ _______ _____ _____    ______ ____
ROOT
ATOM      1  C   LIG    1        1.567  31.017   4.492  0.00  0.00    +0.008 C 
ATOM      2  C   LIG    1        1.705  32.135   5.226  0.00  0.00    +0.009 C 
ENDROOT
BRANCH   1   6
ATOM      3  C   LIG    1        3.489  27.295   5.398  0.00  0.00    +0.117 A 
ATOM      4  C   LIG    1        2.227  27.273   4.823  0.00  0.00    +0.046 A 
ATOM      5  C   LIG    1        1.584  28.474   4.506  0.00  0.00    +0.011 A 
ATOM      6  C   LIG    1        2.200  29.708   4.761  0.00  0.00    -0.025 A 
ATOM      7  C   LIG    1        3.485  29.700   5.330  0.00  0.00    +0.011 A 
ATOM      8  C   LIG    1        4.129  28.500   5.650  0.00  0.00    +0.046 A 
BRANCH   3   9
ATOM      9  O   LIG    1        4.070  26.101   5.706  0.00  0.00    -0.507 OA
ATOM     10  H   LIG    1        3.959  25.499   4.953  0.00  0.00    +0.292 HD
ENDBRANCH   3   9
ENDBRANCH   1   6
BRANCH   2  11
ATOM     11  C   LIG    1        1.114  33.458   4.927  0.00  0.00    -0.018 A 
ATOM     12  C   LIG    1        1.881  34.601   5.208  0.00  0.00    +0.053 A 
ATOM     13  C   LIG    1        1.389  35.875   4.926  0.00  0.00    +0.121 A 
ATOM     14  C   LIG    1        0.133  36.046   4.365  0.00  0.00    +0.090 A 
ATOM     15  C   LIG    1       -0.633  34.921   4.090  0.00  0.00    +0.121 A 
ATOM     16  C   LIG    1       -0.159  33.636   4.365  0.00  0.00    +0.053 A 
BRANCH  13  17
ATOM     17  O   LIG    1        2.189  36.942   5.217  0.00  0.00    -0.507 OA
ATOM     18  H   LIG    1        2.069  37.170   6.154  0.00  0.00    +0.292 HD
ENDBRANCH  13  17
BRANCH  15  19
ATOM     19  O   LIG    1       -1.866  35.119   3.536  0.00  0.00    -0.507 OA
ATOM     20  H   LIG    1       -1.927  36.039   3.229  0.00  0.00    +0.292 HD
ENDBRANCH  15  19
ENDBRANCH   2  11
TORSDOF 5
ENDMDL
MODEL 3
REMARK VINA RESULT:      -7.1      1.421      7.367
REMARK  Name = 
REMARK                            x       y       z     vdW  Elec       q    Type
REMARK                         _______ _______ _______ _____ _____    ______ ____
ROOT
ATOM      1  C   LIG    1        1.815  32.399   4.281  0.00  0.00    +0.008 C 
ATOM      2  C   LIG    1        1.792  31.531   5.306  0.00  0.00    +0.009 C 
ENDROOT
BRANCH   1   6
ATOM      3  C   LIG    1       -0.502  35.999   4.057  0.00  0.00    +0.117 A 
ATOM      4  C   LIG    1        0.827  36.082   4.449  0.00  0.00    +0.046 A 
ATOM      5  C   LIG    1        1.607  34.923   4.518  0.00  0.00    +0.011 A 
ATOM      6  C   LIG    1        1.065  33.671   4.194  0.00  0.00    -0.025 A 
ATOM      7  C   LIG    1       -0.279  33.619   3.785  0.00  0.00    +0.011 A 
ATOM      8  C   LIG    1       -1.063  34.776   3.718  0.00  0.00    +0.046 A 
BRANCH   3   9
ATOM      9  O   LIG    1       -1.229  37.151   4.021  0.00  0.00    -0.507 OA
ATOM     10  H   LIG    1       -2.161  36.925   3.869  0.00  0.00    +0.292 HD
ENDBRANCH   3   9
ENDBRANCH   1   6
BRANCH   2  11
ATOM     11  C   LIG    1        2.502  30.233   5.372  0.00  0.00    -0.018 A 
ATOM     12  C   LIG    1        1.731  29.059   5.361  0.00  0.00    +0.053 A 
ATOM     13  C   LIG    1        2.342  27.806   5.397  0.00  0.00    +0.121 A 
ATOM     14  C   LIG    1        3.723  27.688   5.445  0.00  0.00    +0.090 A 
ATOM     15  C   LIG    1        4.491  28.845   5.460  0.00  0.00    +0.121 A 
ATOM     16  C   LIG    1        3.899  30.109   5.426  0.00  0.00    +0.053 A 
BRANCH  13  17
ATOM     17  O   LIG    1        1.535  26.706   5.376  0.00  0.00    -0.507 OA
ATOM     18  H   LIG    1        0.954  26.765   4.600  0.00  0.00    +0.292 HD
ENDBRANCH  13  17
BRANCH  15  19
ATOM     19  O   LIG    1        5.849  28.699   5.506  0.00  0.00    -0.507 OA
ATOM     20  H   LIG    1        6.184  29.147   6.300  0.00  0.00    +0.292 HD
ENDBRANCH  15  19
ENDBRANCH   2  11
TORSDOF 5
ENDMDL
MODEL 4
REMARK VINA RESULT:      -7.1      1.399      7.615
REMARK  Name = 
REMARK                            x       y       z     vdW  Elec       q    Type
REMARK                         _______ _______ _______ _____ _____    ______ ____
ROOT
ATOM      1  C   LIG    1        2.043  32.533   4.283  0.00  0.00    +0.008 C 
ATOM      2  C   LIG    1        1.732  31.399   4.932  0.00  0.00    +0.009 C 
ENDROOT
BRANCH   1   6
ATOM      3  C   LIG    1       -0.508  35.972   4.074  0.00  0.00    +0.117 A 
ATOM      4  C   LIG    1        0.814  36.142   4.459  0.00  0.00    +0.046 A 
ATOM      5  C   LIG    1        1.670  35.038   4.522  0.00  0.00    +0.011 A 
ATOM      6  C   LIG    1        1.210  33.753   4.200  0.00  0.00    -0.025 A 
ATOM      7  C   LIG    1       -0.130  33.612   3.800  0.00  0.00    +0.011 A 
ATOM      8  C   LIG    1       -0.989  34.714   3.737  0.00  0.00    +0.046 A 
BRANCH   3   9
ATOM      9  O   LIG    1       -1.310  37.073   4.044  0.00  0.00    -0.507 OA
ATOM     10  H   LIG    1       -1.452  37.379   4.954  0.00  0.00    +0.292 HD
ENDBRANCH   3   9
ENDBRANCH   1   6
BRANCH   2  11
ATOM     11  C   LIG    1        2.541  30.160   4.971  0.00  0.00    -0.018 A 
ATOM     12  C   LIG    1        3.935  30.287   5.084  0.00  0.00    +0.053 A 
ATOM     13  C   LIG    1        4.750  29.158   5.150  0.00  0.00    +0.121 A 
ATOM     14  C   LIG    1        4.206  27.883   5.103  0.00  0.00    +0.090 A 
ATOM     15  C   LIG    1        2.829  27.750   4.986  0.00  0.00    +0.121 A 
ATOM     16  C   LIG    1        1.995  28.869   4.918  0.00  0.00    +0.053 A 
BRANCH  13  17
ATOM     17  O   LIG    1        6.096  29.352   5.267  0.00  0.00    -0.507 OA
ATOM     18  H   LIG    1        6.506  28.510   5.527  0.00  0.00    +0.292 HD
ENDBRANCH  13  17
BRANCH  15  19
ATOM     19  O   LIG    1        2.320  26.483   4.944  0.00  0.00    -0.507 OA
ATOM     20  H   LIG    1        3.046  25.850   5.074  0.00  0.00    +0.292 HD
ENDBRANCH  15  19
ENDBRANCH   2  11
TORSDOF 5
ENDMDL
MODEL 5
REMARK VINA RESULT:      -6.3     11.939     12.799
REMARK  Name = 
REMARK                            x       y       z     vdW  Elec       q    Type
REMARK                         _______ _______ _______ _____ _____    ______ ____
ROOT
ATOM      1  C   LIG    1        3.921  20.205   8.552  0.00  0.00    +0.008 C 
ATOM      2  C   LIG    1        4.010  21.407   9.147  0.00  0.00    +0.009 C 
ENDROOT
BRANCH   1   6
ATOM      3  C   LIG    1        3.401  19.632   4.336  0.00  0.00    +0.117 A 
ATOM      4  C   LIG    1        4.416  18.943   4.984  0.00  0.00    +0.046 A 
ATOM      5  C   LIG    1        4.598  19.104   6.362  0.00  0.00    +0.011 A 
ATOM      6  C   LIG    1        3.765  19.954   7.102  0.00  0.00    -0.025 A 
ATOM      7  C   LIG    1        2.736  20.628   6.422  0.00  0.00    +0.011 A 
ATOM      8  C   LIG    1        2.553  20.471   5.044  0.00  0.00    +0.046 A 
BRANCH   3   9
ATOM      9  O   LIG    1        3.273  19.459   2.990  0.00  0.00    -0.507 OA
ATOM     10  H   LIG    1        4.139  19.600   2.575  0.00  0.00    +0.292 HD
ENDBRANCH   3   9
ENDBRANCH   1   6
BRANCH   2  11
ATOM     11  C   LIG    1        4.113  21.660  10.601  0.00  0.00    -0.018 A 
ATOM     12  C   LIG    1        3.190  21.025  11.448  0.00  0.00    +0.053 A 
ATOM     13  C   LIG    1        3.251  21.204  12.829  0.00  0.00    +0.121 A 
ATOM     14  C   LIG    1        4.221  22.013  13.401  0.00  0.00    +0.090 A 
ATOM     15  C   LIG    1        5.134  22.648  12.570  0.00  0.00    +0.121 A 
ATOM     16  C   LIG    1        5.090  22.482  11.183  0.00  0.00    +0.053 A 
BRANCH  13  17
ATOM     17  O   LIG    1        2.328  20.553  13.595  0.00  0.00    -0.507 OA
ATOM     18  H   LIG    1        1.643  21.189  13.858  0.00  0.00    +0.292 HD
ENDBRANCH  13  17
BRANCH  15  19
ATOM     19  O   LIG    1        6.080  23.438  13.159  0.00  0.00    -0.507 OA
ATOM     20  H   LIG    1        6.893  22.917  13.277  0.00  0.00    +0.292 HD
ENDBRANCH  15  19
ENDBRANCH   2  11
TORSDOF 5
ENDMDL
MODEL 6
REMARK VINA RESULT:      -6.2     11.892     12.897
REMARK  Name = 
REMARK                            x       y       z     vdW  Elec       q    Type
REMARK                         _______ _______ _______ _____ _____    ______ ____
ROOT
ATOM      1  C   LIG    1        3.860  20.141   8.447  0.00  0.00    +0.008 C 
ATOM      2  C   LIG    1        3.854  21.326   9.081  0.00  0.00    +0.009 C 
ENDROOT
BRANCH   1   6
ATOM      3  C   LIG    1        3.355  19.672   4.216  0.00  0.00    +0.117 A 
ATOM      4  C   LIG    1        4.343  18.938   4.858  0.00  0.00    +0.046 A 
ATOM      5  C   LIG    1        4.519  19.064   6.239  0.00  0.00    +0.011 A 
ATOM      6  C   LIG    1        3.708  19.925   6.992  0.00  0.00    -0.025 A 
ATOM      7  C   LIG    1        2.706  20.645   6.319  0.00  0.00    +0.011 A 
ATOM      8  C   LIG    1        2.529  20.523   4.936  0.00  0.00    +0.046 A 
BRANCH   3   9
ATOM      9  O   LIG    1        3.231  19.531   2.866  0.00  0.00    -0.507 OA
ATOM     10  H   LIG    1        3.396  20.392   2.448  0.00  0.00    +0.292 HD
ENDBRANCH   3   9
ENDBRANCH   1   6
BRANCH   2  11
ATOM     11  C   LIG    1        3.954  21.539  10.542  0.00  0.00    -0.018 A 
ATOM     12  C   LIG    1        4.980  22.371  11.018  0.00  0.00    +0.053 A 
ATOM     13  C   LIG    1        5.111  22.630  12.382  0.00  0.00    +0.121 A 
ATOM     14  C   LIG    1        4.236  22.072  13.302  0.00  0.00    +0.090 A 
ATOM     15  C   LIG    1        3.222  21.244  12.838  0.00  0.00    +0.121 A 
ATOM     16  C   LIG    1        3.073  20.971  11.476  0.00  0.00    +0.053 A 
BRANCH  13  17
ATOM     17  O   LIG    1        6.125  23.453  12.777  0.00  0.00    -0.507 OA
ATOM     18  H   LIG    1        6.768  23.519  12.051  0.00  0.00    +0.292 HD
ENDBRANCH  13  17
BRANCH  15  19
ATOM     19  O   LIG    1        2.372  20.709  13.765  0.00  0.00    -0.507 OA
ATOM     20  H   LIG    1        1.458  20.913  13.505  0.00  0.00    +0.292 HD
ENDBRANCH  15  19
ENDBRANCH   2  11
TORSDOF 5
ENDMDL
MODEL 7
REMARK VINA RESULT:      -5.8      1.776      7.330
REMARK  Name = 
REMARK                            x       y       z     vdW  Elec       q    Type
REMARK                         _______ _______ _______ _____ _____    ______ ____
ROOT
ATOM      1  C   LIG    1        1.180  31.513   5.241  0.00  0.00    +0.008 C 
ATOM      2  C   LIG    1        1.659  30.675   4.306  0.00  0.00    +0.009 C 
ENDROOT
BRANCH   1   6
ATOM      3  C   LIG    1       -1.444  34.799   4.412  0.00  0.00    +0.117 A 
ATOM      4  C   LIG    1       -1.211  34.446   5.734  0.00  0.00    +0.046 A 
ATOM      5  C   LIG    1       -0.349  33.386   6.031  0.00  0.00    +0.011 A 
ATOM      6  C   LIG    1        0.288  32.669   5.007  0.00  0.00    -0.025 A 
ATOM      7  C   LIG    1        0.046  33.058   3.679  0.00  0.00    +0.011 A 
ATOM      8  C   LIG    1       -0.818  34.118   3.379  0.00  0.00    +0.046 A 
BRANCH   3   9
ATOM      9  O   LIG    1       -2.305  35.828   4.170  0.00  0.00    -0.507 OA
ATOM     10  H   LIG    1       -2.710  36.098   5.010  0.00  0.00    +0.292 HD
ENDBRANCH   3   9
ENDBRANCH   1   6
BRANCH   2  11
ATOM     11  C   LIG    1        2.593  29.550   4.533  0.00  0.00    -0.018 A 
ATOM     12  C   LIG    1        2.147  28.252   4.233  0.00  0.00    +0.053 A 
ATOM     13  C   LIG    1        2.988  27.153   4.402  0.00  0.00    +0.121 A 
ATOM     14  C   LIG    1        4.283  27.313   4.872  0.00  0.00    +0.090 A 
ATOM     15  C   LIG    1        4.729  28.592   5.176  0.00  0.00    +0.121 A 
ATOM     16  C   LIG    1        3.902  29.706   5.014  0.00  0.00    +0.053 A 
BRANCH  13  17
ATOM     17  O   LIG    1        2.495  25.921   4.084  0.00  0.00    -0.507 OA
ATOM     18  H   LIG    1        2.447  25.850   3.116  0.00  0.00    +0.292 HD
ENDBRANCH  13  17
BRANCH  15  19
ATOM     19  O   LIG    1        6.009  28.720   5.635  0.00  0.00    -0.507 OA
ATOM     20  H   LIG    1        6.316  27.854   5.952  0.00  0.00    +0.292 HD
ENDBRANCH  15  19
ENDBRANCH   2  11
TORSDOF 5
ENDMDL
