MODEL 1
REMARK VINA RESULT:      -6.9      0.000      0.000
REMARK  Name = 
REMARK                            x       y       z     vdW  Elec       q    Type
REMARK                         _______ _______ _______ _____ _____    ______ ____
ROOT
ATOM      1  C   LIG    1      -46.838  11.283 -43.565  0.00  0.00    +0.008 C 
ATOM      2  C   LIG    1      -48.055  11.114 -43.019  0.00  0.00    +0.009 C 
ENDROOT
BRANCH   1   6
ATOM      3  C   LIG    1      -46.133  11.790 -47.763  0.00  0.00    +0.117 A 
ATOM      4  C   LIG    1      -45.482  12.628 -46.869  0.00  0.00    +0.046 A 
ATOM      5  C   LIG    1      -45.685  12.474 -45.494  0.00  0.00    +0.011 A 
ATOM      6  C   LIG    1      -46.542  11.480 -45.001  0.00  0.00    -0.025 A 
ATOM      7  C   LIG    1      -47.177  10.635 -45.928  0.00  0.00    +0.011 A 
ATOM      8  C   LIG    1      -46.977  10.788 -47.305  0.00  0.00    +0.046 A 
BRANCH   3   9
ATOM      9  O   LIG    1      -45.919  11.987 -49.094  0.00  0.00    -0.507 OA
ATOM     10  H   LIG    1      -46.477  12.724 -49.392  0.00  0.00    +0.292 HD
ENDBRANCH   3   9
ENDBRANCH   1   6
BRANCH   2  11
ATOM     11  C   LIG    1      -48.347  10.865 -41.590  0.00  0.00    -0.018 A 
ATOM     12  C   LIG    1      -49.397  11.583 -40.996  0.00  0.00    +0.053 A 
ATOM     13  C   LIG    1      -49.737  11.375 -39.660  0.00  0.00    +0.121 A 
ATOM     14  C   LIG    1      -49.046  10.457 -38.884  0.00  0.00    +0.090 A 
ATOM     15  C   LIG    1      -48.002   9.747 -39.462  0.00  0.00    +0.121 A 
ATOM     16  C   LIG    1      -47.646   9.941 -40.799  0.00  0.00    +0.053 A 
BRANCH  13  17
ATOM     17  O   LIG    1      -50.773  12.101 -39.148  0.00  0.00    -0.507 OA
ATOM     18  H   LIG    1      -51.487  11.488 -38.907  0.00  0.00    +0.292 HD
ENDBRANCH  13  17
BRANCH  15  19
ATOM     19  O   LIG    1      -47.340   8.848 -38.676  0.00  0.00    -0.507 OA
ATOM     20  H   LIG    1      -46.403   9.104 -38.628  0.00  0.00    +0.292 HD
ENDBRANCH  15  19
ENDBRANCH   2  11
TORSDOF 5
ENDMDL
MODEL 2
REMARK VINA RESULT:      -6.9      0.408      2.043
REMARK  Name = 
REMARK                            x       y       z     vdW  Elec       q    Type
REMARK                         _______ _______ _______ _____ _____    ______ ____
ROOT
ATOM      1  C   LIG    1      -47.149  11.590 -43.548  0.00  0.00    +0.008 C 
ATOM      2  C   LIG    1      -47.759  10.540 -42.972  0.00  0.00    +0.009 C 
ENDROOT
BRANCH   1   6
ATOM      3  C   LIG    1      -46.073  11.825 -47.690  0.00  0.00    +0.117 A 
ATOM      4  C   LIG    1      -45.439  12.665 -46.786  0.00  0.00    +0.046 A 
ATOM      5  C   LIG    1      -45.764  12.599 -45.427  0.00  0.00    +0.011 A 
ATOM      6  C   LIG    1      -46.725  11.690 -44.962  0.00  0.00    -0.025 A 
ATOM      7  C   LIG    1      -47.340  10.841 -45.897  0.00  0.00    +0.011 A 
ATOM      8  C   LIG    1      -47.018  10.907 -47.258  0.00  0.00    +0.046 A 
BRANCH   3   9
ATOM      9  O   LIG    1      -45.738  11.937 -49.007  0.00  0.00    -0.507 OA
ATOM     10  H   LIG    1      -45.844  11.069 -49.429  0.00  0.00    +0.292 HD
ENDBRANCH   3   9
ENDBRANCH   1   6
BRANCH   2  11
ATOM     11  C   LIG    1      -48.136  10.419 -41.546  0.00  0.00    -0.018 A 
ATOM     12  C   LIG    1      -47.402   9.531 -40.743  0.00  0.00    +0.053 A 
ATOM     13  C   LIG    1      -47.694   9.391 -39.387  0.00  0.00    +0.121 A 
ATOM     14  C   LIG    1      -48.715  10.121 -38.798  0.00  0.00    +0.090 A 
ATOM     15  C   LIG    1      -49.449  10.997 -39.588  0.00  0.00    +0.121 A 
ATOM     16  C   LIG    1      -49.173  11.152 -40.948  0.00  0.00    +0.053 A 
BRANCH  13  17
ATOM     17  O   LIG    1      -46.937   8.517 -38.662  0.00  0.00    -0.507 OA
ATOM     18  H   LIG    1      -47.520   7.822 -38.313  0.00  0.00    +0.292 HD
ENDBRANCH  13  17
BRANCH  15  19
ATOM     19  O   LIG    1      -50.448  11.705 -38.982  0.00  0.00    -0.507 OA
ATOM     20  H   LIG    1      -50.808  11.175 -38.251  0.00  0.00    +0.292 HD
ENDBRANCH  15  19
ENDBRANCH   2  11
TORSDOF 5
ENDMDL
MODEL 3
REMARK VINA RESULT:      -6.7      6.363      8.095
REMARK  Name = 
REMARK                            x       y       z     vdW  Elec       q    Type
REMARK                         _______ _______ _______ _____ _____    ______ ____
ROOT
ATOM      1  C   LIG    1      -49.365   7.336 -46.542  0.00  0.00    +0.008 C 
ATOM      2  C   LIG    1      -50.569   6.820 -46.238  0.00  0.00    +0.009 C 
ENDROOT
BRANCH   1   6
ATOM      3  C   LIG    1      -45.718   6.340 -44.522  0.00  0.00    +0.117 A 
ATOM      4  C   LIG    1      -45.710   7.376 -45.446  0.00  0.00    +0.046 A 
ATOM      5  C   LIG    1      -46.890   7.729 -46.108  0.00  0.00    +0.011 A 
ATOM      6  C   LIG    1      -48.089   7.047 -45.852  0.00  0.00    -0.025 A 
ATOM      7  C   LIG    1      -48.071   6.012 -44.902  0.00  0.00    +0.011 A 
ATOM      8  C   LIG    1      -46.891   5.657 -44.239  0.00  0.00    +0.046 A 
BRANCH   3   9
ATOM      9  O   LIG    1      -44.541   6.020 -43.914  0.00  0.00    -0.507 OA
ATOM     10  H   LIG    1      -44.005   6.825 -43.833  0.00  0.00    +0.292 HD
ENDBRANCH   3   9
ENDBRANCH   1   6
BRANCH   2  11
ATOM     11  C   LIG    1      -51.854   7.148 -46.894  0.00  0.00    -0.018 A 
ATOM     12  C   LIG    1      -52.684   6.086 -47.285  0.00  0.00    +0.053 A 
ATOM     13  C   LIG    1      -53.919   6.331 -47.886  0.00  0.00    +0.121 A 
ATOM     14  C   LIG    1      -54.356   7.627 -48.114  0.00  0.00    +0.090 A 
ATOM     15  C   LIG    1      -53.538   8.683 -47.734  0.00  0.00    +0.121 A 
ATOM     16  C   LIG    1      -52.297   8.459 -47.131  0.00  0.00    +0.053 A 
BRANCH  13  17
ATOM     17  O   LIG    1      -54.680   5.253 -48.235  0.00  0.00    -0.507 OA
ATOM     18  H   LIG    1      -55.333   5.539 -48.895  0.00  0.00    +0.292 HD
ENDBRANCH  13  17
BRANCH  15  19
ATOM     19  O   LIG    1      -53.994   9.949 -47.968  0.00  0.00    -0.507 OA
ATOM     20  H   LIG    1      -53.538  10.561 -47.366  0.00  0.00    +0.292 HD
ENDBRANCH  15  19
ENDBRANCH   2  11
TORSDOF 5
ENDMDL
MODEL 4
REMARK VINA RESULT:      -6.7      3.273      4.264
REMARK  Name = 
REMARK                            x       y       z     vdW  Elec       q    Type
REMARK                         _______ _______ _______ _____ _____    ______ ____
ROOT
ATOM      1  C   LIG    1      -44.611  12.183 -42.589  0.00  0.00    +0.008 C 
ATOM      2  C   LIG    1      -45.011  10.995 -42.106  0.00  0.00    +0.009 C 
ENDROOT
BRANCH   1   6
ATOM      3  C   LIG    1      -40.921  12.931 -44.638  0.00  0.00    +0.117 A 
ATOM      4  C   LIG    1      -41.343  13.832 -43.670  0.00  0.00    +0.046 A 
ATOM      5  C   LIG    1      -42.537  13.603 -42.979  0.00  0.00    +0.011 A 
ATOM      6  C   LIG    1      -43.319  12.471 -43.249  0.00  0.00    -0.025 A 
ATOM      7  C   LIG    1      -42.859  11.568 -44.223  0.00  0.00    +0.011 A 
ATOM      8  C   LIG    1      -41.666  11.795 -44.918  0.00  0.00    +0.046 A 
BRANCH   3   9
ATOM      9  O   LIG    1      -39.760  13.203 -45.299  0.00  0.00    -0.507 OA
ATOM     10  H   LIG    1      -39.680  12.593 -46.049  0.00  0.00    +0.292 HD
ENDBRANCH   3   9
ENDBRANCH   1   6
BRANCH   2  11
ATOM     11  C   LIG    1      -46.281  10.718 -41.399  0.00  0.00    -0.018 A 
ATOM     12  C   LIG    1      -46.322   9.624 -40.520  0.00  0.00    +0.053 A 
ATOM     13  C   LIG    1      -47.483   9.327 -39.806  0.00  0.00    +0.121 A 
ATOM     14  C   LIG    1      -48.624  10.102 -39.948  0.00  0.00    +0.090 A 
ATOM     15  C   LIG    1      -48.592  11.182 -40.819  0.00  0.00    +0.121 A 
ATOM     16  C   LIG    1      -47.440  11.496 -41.543  0.00  0.00    +0.053 A 
BRANCH  13  17
ATOM     17  O   LIG    1      -47.452   8.254 -38.964  0.00  0.00    -0.507 OA
ATOM     18  H   LIG    1      -46.662   7.726 -39.166  0.00  0.00    +0.292 HD
ENDBRANCH  13  17
BRANCH  15  19
ATOM     19  O   LIG    1      -49.730  11.929 -40.937  0.00  0.00    -0.507 OA
ATOM     20  H   LIG    1      -50.270  11.805 -40.139  0.00  0.00    +0.292 HD
ENDBRANCH  15  19
ENDBRANCH   2  11
TORSDOF 5
ENDMDL
MODEL 5
REMARK VINA RESULT:      -6.7      6.339      7.950
REMARK  Name = 
REMARK                            x       y       z     vdW  Elec       q    Type
REMARK                         _______ _______ _______ _____ _____    ______ ____
ROOT
ATOM      1  C   LIG    1      -49.301   7.165 -46.423  0.00  0.00    +0.008 C 
ATOM      2  C   LIG    1      -50.496   6.652 -46.085  0.00  0.00    +0.009 C 
ENDROOT
BRANCH   1   6
ATOM      3  C   LIG    1      -45.634   6.386 -44.345  0.00  0.00    +0.117 A 
ATOM      4  C   LIG    1      -45.698   7.475 -45.203  0.00  0.00    +0.046 A 
ATOM      5  C   LIG    1      -46.887   7.757 -45.882  0.00  0.00    +0.011 A 
ATOM      6  C   LIG    1      -48.023   6.953 -45.709  0.00  0.00    -0.025 A 
ATOM      7  C   LIG    1      -47.934   5.866 -44.823  0.00  0.00    +0.011 A 
ATOM      8  C   LIG    1      -46.745   5.579 -44.143  0.00  0.00    +0.046 A 
BRANCH   3   9
ATOM      9  O   LIG    1      -44.449   6.138 -43.717  0.00  0.00    -0.507 OA
ATOM     10  H   LIG    1      -43.755   6.050 -44.390  0.00  0.00    +0.292 HD
ENDBRANCH   3   9
ENDBRANCH   1   6
BRANCH   2  11
ATOM     11  C   LIG    1      -51.784   6.906 -46.768  0.00  0.00    -0.018 A 
ATOM     12  C   LIG    1      -52.142   8.239 -47.026  0.00  0.00    +0.053 A 
ATOM     13  C   LIG    1      -53.331   8.542 -47.689  0.00  0.00    +0.121 A 
ATOM     14  C   LIG    1      -54.190   7.536 -48.106  0.00  0.00    +0.090 A 
ATOM     15  C   LIG    1      -53.845   6.216 -47.849  0.00  0.00    +0.121 A 
ATOM     16  C   LIG    1      -52.659   5.892 -47.187  0.00  0.00    +0.053 A 
BRANCH  13  17
ATOM     17  O   LIG    1      -53.615   9.857 -47.914  0.00  0.00    -0.507 OA
ATOM     18  H   LIG    1      -52.810  10.294 -48.240  0.00  0.00    +0.292 HD
ENDBRANCH  13  17
BRANCH  15  19
ATOM     19  O   LIG    1      -54.708   5.245 -48.273  0.00  0.00    -0.507 OA
ATOM     20  H   LIG    1      -55.339   5.054 -47.559  0.00  0.00    +0.292 HD
ENDBRANCH  15  19
ENDBRANCH   2  11
TORSDOF 5
ENDMDL
MODEL 6
REMARK VINA RESULT:      -6.6      3.245      3.926
REMARK  Name = 
REMARK                            x       y       z     vdW  Elec       q    Type
REMARK                         _______ _______ _______ _____ _____    ______ ____
ROOT
ATOM      1  C   LIG    1      -44.489  12.172 -42.399  0.00  0.00    +0.008 C 
ATOM      2  C   LIG    1      -45.152  11.006 -42.313  0.00  0.00    +0.009 C 
ENDROOT
BRANCH   1   6
ATOM      3  C   LIG    1      -40.975  13.050 -44.691  0.00  0.00    +0.117 A 
ATOM      4  C   LIG    1      -41.691  11.896 -44.979  0.00  0.00    +0.046 A 
ATOM      5  C   LIG    1      -42.848  11.594 -44.254  0.00  0.00    +0.011 A 
ATOM      6  C   LIG    1      -43.300  12.445 -43.234  0.00  0.00    -0.025 A 
ATOM      7  C   LIG    1      -42.564  13.614 -42.974  0.00  0.00    +0.011 A 
ATOM      8  C   LIG    1      -41.405  13.917 -43.697  0.00  0.00    +0.046 A 
BRANCH   3   9
ATOM      9  O   LIG    1      -39.844  13.294 -45.411  0.00  0.00    -0.507 OA
ATOM     10  H   LIG    1      -39.952  12.912 -46.297  0.00  0.00    +0.292 HD
ENDBRANCH   3   9
ENDBRANCH   1   6
BRANCH   2  11
ATOM     11  C   LIG    1      -46.310  10.718 -41.438  0.00  0.00    -0.018 A 
ATOM     12  C   LIG    1      -47.480  11.473 -41.623  0.00  0.00    +0.053 A 
ATOM     13  C   LIG    1      -48.613  11.232 -40.846  0.00  0.00    +0.121 A 
ATOM     14  C   LIG    1      -48.613  10.245 -39.872  0.00  0.00    +0.090 A 
ATOM     15  C   LIG    1      -47.458   9.499 -39.680  0.00  0.00    +0.121 A 
ATOM     16  C   LIG    1      -46.312   9.724 -40.447  0.00  0.00    +0.053 A 
BRANCH  13  17
ATOM     17  O   LIG    1      -49.718  11.996 -41.083  0.00  0.00    -0.507 OA
ATOM     18  H   LIG    1      -49.678  12.320 -41.998  0.00  0.00    +0.292 HD
ENDBRANCH  13  17
BRANCH  15  19
ATOM     19  O   LIG    1      -47.486   8.532 -38.715  0.00  0.00    -0.507 OA
ATOM     20  H   LIG    1      -48.397   8.205 -38.627  0.00  0.00    +0.292 HD
ENDBRANCH  15  19
ENDBRANCH   2  11
TORSDOF 5
ENDMDL
MODEL 7
REMARK VINA RESULT:      -6.5     10.762     12.518
REMARK  Name = 
REMARK                            x       y       z     vdW  Elec       q    Type
REMARK                         _______ _______ _______ _____ _____    ______ ____
ROOT
ATOM      1  C   LIG    1      -47.326  17.012 -34.401  0.00  0.00    +0.008 C 
ATOM      2  C   LIG    1      -48.494  17.671 -34.316  0.00  0.00    +0.009 C 
ENDROOT
BRANCH   1   6
ATOM      3  C   LIG    1      -45.104  15.144 -31.247  0.00  0.00    +0.117 A 
ATOM      4  C   LIG    1      -45.263  16.522 -31.228  0.00  0.00    +0.046 A 
ATOM      5  C   LIG    1      -45.994  17.154 -32.239  0.00  0.00    +0.011 A 
ATOM      6  C   LIG    1      -46.574  16.412 -33.278  0.00  0.00    -0.025 A 
ATOM      7  C   LIG    1      -46.410  15.016 -33.264  0.00  0.00    +0.011 A 
ATOM      8  C   LIG    1      -45.677  14.381 -32.255  0.00  0.00    +0.046 A 
BRANCH   3   9
ATOM      9  O   LIG    1      -44.369  14.573 -30.252  0.00  0.00    -0.507 OA
ATOM     10  H   LIG    1      -44.191  13.648 -30.489  0.00  0.00    +0.292 HD
ENDBRANCH   3   9
ENDBRANCH   1   6
BRANCH   2  11
ATOM     11  C   LIG    1      -49.220  18.317 -35.432  0.00  0.00    -0.018 A 
ATOM     12  C   LIG    1      -48.591  19.380 -36.100  0.00  0.00    +0.053 A 
ATOM     13  C   LIG    1      -49.214  20.014 -37.175  0.00  0.00    +0.121 A 
ATOM     14  C   LIG    1      -50.468  19.611 -37.610  0.00  0.00    +0.090 A 
ATOM     15  C   LIG    1      -51.097  18.564 -36.951  0.00  0.00    +0.121 A 
ATOM     16  C   LIG    1      -50.491  17.917 -35.872  0.00  0.00    +0.053 A 
BRANCH  13  17
ATOM     17  O   LIG    1      -48.545  21.035 -37.784  0.00  0.00    -0.507 OA
ATOM     18  H   LIG    1      -49.197  21.643 -38.169  0.00  0.00    +0.292 HD
ENDBRANCH  13  17
BRANCH  15  19
ATOM     19  O   LIG    1      -52.330  18.187 -37.402  0.00  0.00    -0.507 OA
ATOM     20  H   LIG    1      -52.986  18.368 -36.708  0.00  0.00    +0.292 HD
ENDBRANCH  15  19
ENDBRANCH   2  11
TORSDOF 5
ENDMDL
MODEL 8
REMARK VINA RESULT:      -6.4     10.794     12.477
REMARK  Name = 
REMARK                            x       y       z     vdW  Elec       q    Type
REMARK                         _______ _______ _______ _____ _____    ______ ____
ROOT
ATOM      1  C   LIG    1      -47.313  17.014 -34.418  0.00  0.00    +0.008 C 
ATOM      2  C   LIG    1      -48.477  17.680 -34.333  0.00  0.00    +0.009 C 
ENDROOT
BRANCH   1   6
ATOM      3  C   LIG    1      -45.096  15.148 -31.260  0.00  0.00    +0.117 A 
ATOM      4  C   LIG    1      -45.253  16.527 -31.243  0.00  0.00    +0.046 A 
ATOM      5  C   LIG    1      -45.983  17.158 -32.255  0.00  0.00    +0.011 A 
ATOM      6  C   LIG    1      -46.563  16.415 -33.293  0.00  0.00    -0.025 A 
ATOM      7  C   LIG    1      -46.401  15.019 -33.277  0.00  0.00    +0.011 A 
ATOM      8  C   LIG    1      -45.669  14.385 -32.267  0.00  0.00    +0.046 A 
BRANCH   3   9
ATOM      9  O   LIG    1      -44.362  14.578 -30.263  0.00  0.00    -0.507 OA
ATOM     10  H   LIG    1      -44.855  13.820 -29.909  0.00  0.00    +0.292 HD
ENDBRANCH   3   9
ENDBRANCH   1   6
BRANCH   2  11
ATOM     11  C   LIG    1      -49.201  18.325 -35.451  0.00  0.00    -0.018 A 
ATOM     12  C   LIG    1      -50.490  17.859 -35.758  0.00  0.00    +0.053 A 
ATOM     13  C   LIG    1      -51.233  18.443 -36.784  0.00  0.00    +0.121 A 
ATOM     14  C   LIG    1      -50.718  19.494 -37.528  0.00  0.00    +0.090 A 
ATOM     15  C   LIG    1      -49.442  19.956 -37.233  0.00  0.00    +0.121 A 
ATOM     16  C   LIG    1      -48.682  19.386 -36.210  0.00  0.00    +0.053 A 
BRANCH  13  17
ATOM     17  O   LIG    1      -52.481  17.947 -37.025  0.00  0.00    -0.507 OA
ATOM     18  H   LIG    1      -52.579  17.814 -37.983  0.00  0.00    +0.292 HD
ENDBRANCH  13  17
BRANCH  15  19
ATOM     19  O   LIG    1      -48.960  20.994 -37.980  0.00  0.00    -0.507 OA
ATOM     20  H   LIG    1      -48.701  20.656 -38.854  0.00  0.00    +0.292 HD
ENDBRANCH  15  19
ENDBRANCH   2  11
TORSDOF 5
ENDMDL
MODEL 9
REMARK VINA RESULT:      -6.3      1.308      1.681
REMARK  Name = 
REMARK                            x       y       z     vdW  Elec       q    Type
REMARK                         _______ _______ _______ _____ _____    ______ ____
ROOT
ATOM      1  C   LIG    1      -45.885  11.288 -43.135  0.00  0.00    +0.008 C 
ATOM      2  C   LIG    1      -47.203  11.326 -42.874  0.00  0.00    +0.009 C 
ENDROOT
BRANCH   1   6
ATOM      3  C   LIG    1      -43.918  11.933 -46.887  0.00  0.00    +0.117 A 
ATOM      4  C   LIG    1      -45.228  12.363 -46.737  0.00  0.00    +0.046 A 
ATOM      5  C   LIG    1      -45.888  12.176 -45.518  0.00  0.00    +0.011 A 
ATOM      6  C   LIG    1      -45.241  11.556 -44.438  0.00  0.00    -0.025 A 
ATOM      7  C   LIG    1      -43.909  11.144 -44.614  0.00  0.00    +0.011 A 
ATOM      8  C   LIG    1      -43.247  11.328 -45.833  0.00  0.00    +0.046 A 
BRANCH   3   9
ATOM      9  O   LIG    1      -43.320  12.120 -48.098  0.00  0.00    -0.507 OA
ATOM     10  H   LIG    1      -42.404  11.805 -48.044  0.00  0.00    +0.292 HD
ENDBRANCH   3   9
ENDBRANCH   1   6
BRANCH   2  11
ATOM     11  C   LIG    1      -47.852  11.007 -41.583  0.00  0.00    -0.018 A 
ATOM     12  C   LIG    1      -49.017  11.711 -41.239  0.00  0.00    +0.053 A 
ATOM     13  C   LIG    1      -49.688  11.438 -40.047  0.00  0.00    +0.121 A 
ATOM     14  C   LIG    1      -49.221  10.468 -39.172  0.00  0.00    +0.090 A 
ATOM     15  C   LIG    1      -48.066   9.772 -39.504  0.00  0.00    +0.121 A 
ATOM     16  C   LIG    1      -47.380  10.030 -40.693  0.00  0.00    +0.053 A 
BRANCH  13  17
ATOM     17  O   LIG    1      -50.818  12.153 -39.777  0.00  0.00    -0.507 OA
ATOM     18  H   LIG    1      -50.559  12.988 -39.354  0.00  0.00    +0.292 HD
ENDBRANCH  13  17
BRANCH  15  19
ATOM     19  O   LIG    1      -47.630   8.821 -38.626  0.00  0.00    -0.507 OA
ATOM     20  H   LIG    1      -48.144   8.895 -37.804  0.00  0.00    +0.292 HD
ENDBRANCH  15  19
ENDBRANCH   2  11
TORSDOF 5
ENDMDL
