MODEL 1
REMARK VINA RESULT:      -7.0      0.000      0.000
REMARK  Name = 
REMARK                            x       y       z     vdW  Elec       q    Type
REMARK                         _______ _______ _______ _____ _____    ______ ____
ROOT
ATOM      1  C   LIG    1       25.720 -26.677 -11.266  0.00  0.00    +0.008 C 
ATOM      2  C   LIG    1       24.750 -27.607 -11.311  0.00  0.00    +0.009 C 
ENDROOT
BRANCH   1   6
ATOM      3  C   LIG    1       25.535 -22.596 -12.563  0.00  0.00    +0.117 A 
ATOM      4  C   LIG    1       24.354 -23.318 -12.457  0.00  0.00    +0.046 A 
ATOM      5  C   LIG    1       24.387 -24.648 -12.023  0.00  0.00    +0.011 A 
ATOM      6  C   LIG    1       25.601 -25.266 -11.692  0.00  0.00    -0.025 A 
ATOM      7  C   LIG    1       26.779 -24.506 -11.795  0.00  0.00    +0.011 A 
ATOM      8  C   LIG    1       26.750 -23.176 -12.230  0.00  0.00    +0.046 A 
BRANCH   3   9
ATOM      9  O   LIG    1       25.457 -21.309 -13.006  0.00  0.00    -0.507 OA
ATOM     10  H   LIG    1       26.356 -20.985 -13.175  0.00  0.00    +0.292 HD
ENDBRANCH   3   9
ENDBRANCH   1   6
BRANCH   2  11
ATOM     11  C   LIG    1       24.883 -29.031 -10.934  0.00  0.00    -0.018 A 
ATOM     12  C   LIG    1       26.174 -29.538 -10.716  0.00  0.00    +0.053 A 
ATOM     13  C   LIG    1       26.363 -30.866 -10.335  0.00  0.00    +0.121 A 
ATOM     14  C   LIG    1       25.283 -31.719 -10.164  0.00  0.00    +0.090 A 
ATOM     15  C   LIG    1       24.004 -31.226 -10.383  0.00  0.00    +0.121 A 
ATOM     16  C   LIG    1       23.793 -29.899 -10.766  0.00  0.00    +0.053 A 
BRANCH  13  17
ATOM     17  O   LIG    1       27.643 -31.292 -10.131  0.00  0.00    -0.507 OA
ATOM     18  H   LIG    1       28.167 -31.080 -10.922  0.00  0.00    +0.292 HD
ENDBRANCH  13  17
BRANCH  15  19
ATOM     19  O   LIG    1       22.958 -32.087 -10.206  0.00  0.00    -0.507 OA
ATOM     20  H   LIG    1       22.932 -32.360  -9.273  0.00  0.00    +0.292 HD
ENDBRANCH  15  19
ENDBRANCH   2  11
TORSDOF 5
ENDMDL
MODEL 2
REMARK VINA RESULT:      -6.9      1.319      2.511
REMARK  Name = 
REMARK                            x       y       z     vdW  Elec       q    Type
REMARK                         _______ _______ _______ _____ _____    ______ ____
ROOT
ATOM      1  C   LIG    1       24.808 -26.880 -11.872  0.00  0.00    +0.008 C 
ATOM      2  C   LIG    1       24.460 -27.471 -10.716  0.00  0.00    +0.009 C 
ENDROOT
BRANCH   1   6
ATOM      3  C   LIG    1       25.633 -22.702 -12.358  0.00  0.00    +0.117 A 
ATOM      4  C   LIG    1       26.690 -23.568 -12.118  0.00  0.00    +0.046 A 
ATOM      5  C   LIG    1       26.448 -24.938 -11.969  0.00  0.00    +0.011 A 
ATOM      6  C   LIG    1       25.147 -25.452 -12.059  0.00  0.00    -0.025 A 
ATOM      7  C   LIG    1       24.097 -24.553 -12.317  0.00  0.00    +0.011 A 
ATOM      8  C   LIG    1       24.336 -23.182 -12.465  0.00  0.00    +0.046 A 
BRANCH   3   9
ATOM      9  O   LIG    1       25.913 -21.373 -12.479  0.00  0.00    -0.507 OA
ATOM     10  H   LIG    1       26.426 -21.238 -13.292  0.00  0.00    +0.292 HD
ENDBRANCH   3   9
ENDBRANCH   1   6
BRANCH   2  11
ATOM     11  C   LIG    1       24.071 -28.888 -10.539  0.00  0.00    -0.018 A 
ATOM     12  C   LIG    1       22.946 -29.355 -11.237  0.00  0.00    +0.053 A 
ATOM     13  C   LIG    1       22.543 -30.686 -11.130  0.00  0.00    +0.121 A 
ATOM     14  C   LIG    1       23.242 -31.580 -10.332  0.00  0.00    +0.090 A 
ATOM     15  C   LIG    1       24.353 -31.123  -9.635  0.00  0.00    +0.121 A 
ATOM     16  C   LIG    1       24.772 -29.794  -9.728  0.00  0.00    +0.053 A 
BRANCH  13  17
ATOM     17  O   LIG    1       21.445 -31.076 -11.840  0.00  0.00    -0.507 OA
ATOM     18  H   LIG    1       21.730 -31.704 -12.525  0.00  0.00    +0.292 HD
ENDBRANCH  13  17
BRANCH  15  19
ATOM     19  O   LIG    1       25.023 -32.025  -8.858  0.00  0.00    -0.507 OA
ATOM     20  H   LIG    1       25.053 -32.878  -9.324  0.00  0.00    +0.292 HD
ENDBRANCH  15  19
ENDBRANCH   2  11
TORSDOF 5
ENDMDL
MODEL 3
REMARK VINA RESULT:      -6.6      0.475      2.040
REMARK  Name = 
REMARK                            x       y       z     vdW  Elec       q    Type
REMARK                         _______ _______ _______ _____ _____    ______ ____
ROOT
ATOM      1  C   LIG    1       25.595 -26.748 -11.471  0.00  0.00    +0.008 C 
ATOM      2  C   LIG    1       24.596 -27.484 -10.953  0.00  0.00    +0.009 C 
ENDROOT
BRANCH   1   6
ATOM      3  C   LIG    1       25.584 -22.595 -12.531  0.00  0.00    +0.117 A 
ATOM      4  C   LIG    1       24.377 -23.278 -12.491  0.00  0.00    +0.046 A 
ATOM      5  C   LIG    1       24.353 -24.630 -12.135  0.00  0.00    +0.011 A 
ATOM      6  C   LIG    1       25.537 -25.311 -11.816  0.00  0.00    -0.025 A 
ATOM      7  C   LIG    1       26.743 -24.591 -11.851  0.00  0.00    +0.011 A 
ATOM      8  C   LIG    1       26.771 -23.238 -12.209  0.00  0.00    +0.046 A 
BRANCH   3   9
ATOM      9  O   LIG    1       25.562 -21.283 -12.901  0.00  0.00    -0.507 OA
ATOM     10  H   LIG    1       25.951 -20.754 -12.186  0.00  0.00    +0.292 HD
ENDBRANCH   3   9
ENDBRANCH   1   6
BRANCH   2  11
ATOM     11  C   LIG    1       24.638 -28.933 -10.656  0.00  0.00    -0.018 A 
ATOM     12  C   LIG    1       23.422 -29.635 -10.628  0.00  0.00    +0.053 A 
ATOM     13  C   LIG    1       23.398 -31.007 -10.378  0.00  0.00    +0.121 A 
ATOM     14  C   LIG    1       24.571 -31.711 -10.149  0.00  0.00    +0.090 A 
ATOM     15  C   LIG    1       25.776 -31.022 -10.170  0.00  0.00    +0.121 A 
ATOM     16  C   LIG    1       25.822 -29.648 -10.418  0.00  0.00    +0.053 A 
BRANCH  13  17
ATOM     17  O   LIG    1       22.184 -31.629 -10.372  0.00  0.00    -0.507 OA
ATOM     18  H   LIG    1       21.547 -31.066 -10.843  0.00  0.00    +0.292 HD
ENDBRANCH  13  17
BRANCH  15  19
ATOM     19  O   LIG    1       26.916 -31.740  -9.944  0.00  0.00    -0.507 OA
ATOM     20  H   LIG    1       27.030 -31.852  -8.985  0.00  0.00    +0.292 HD
ENDBRANCH  15  19
ENDBRANCH   2  11
TORSDOF 5
ENDMDL
MODEL 4
REMARK VINA RESULT:      -6.1      1.611      7.297
REMARK  Name = 
REMARK                            x       y       z     vdW  Elec       q    Type
REMARK                         _______ _______ _______ _____ _____    ______ ____
ROOT
ATOM      1  C   LIG    1       24.895 -27.825 -11.920  0.00  0.00    +0.008 C 
ATOM      2  C   LIG    1       24.430 -26.575 -11.754  0.00  0.00    +0.009 C 
ENDROOT
BRANCH   1   6
ATOM      3  C   LIG    1       23.230 -31.482 -10.428  0.00  0.00    +0.117 A 
ATOM      4  C   LIG    1       22.447 -30.336 -10.415  0.00  0.00    +0.046 A 
ATOM      5  C   LIG    1       22.963 -29.133 -10.908  0.00  0.00    +0.011 A 
ATOM      6  C   LIG    1       24.267 -29.067 -11.419  0.00  0.00    -0.025 A 
ATOM      7  C   LIG    1       25.032 -30.246 -11.434  0.00  0.00    +0.011 A 
ATOM      8  C   LIG    1       24.519 -31.450 -10.940  0.00  0.00    +0.046 A 
BRANCH   3   9
ATOM      9  O   LIG    1       22.692 -32.627  -9.921  0.00  0.00    -0.507 OA
ATOM     10  H   LIG    1       22.645 -33.288 -10.631  0.00  0.00    +0.292 HD
ENDBRANCH   3   9
ENDBRANCH   1   6
BRANCH   2  11
ATOM     11  C   LIG    1       25.085 -25.328 -12.210  0.00  0.00    -0.018 A 
ATOM     12  C   LIG    1       26.457 -25.374 -12.504  0.00  0.00    +0.053 A 
ATOM     13  C   LIG    1       27.125 -24.238 -12.961  0.00  0.00    +0.121 A 
ATOM     14  C   LIG    1       26.454 -23.037 -13.134  0.00  0.00    +0.090 A 
ATOM     15  C   LIG    1       25.098 -22.983 -12.839  0.00  0.00    +0.121 A 
ATOM     16  C   LIG    1       24.410 -24.109 -12.380  0.00  0.00    +0.053 A 
BRANCH  13  17
ATOM     17  O   LIG    1       28.457 -24.353 -13.236  0.00  0.00    -0.507 OA
ATOM     18  H   LIG    1       28.717 -23.614 -13.810  0.00  0.00    +0.292 HD
ENDBRANCH  13  17
BRANCH  15  19
ATOM     19  O   LIG    1       24.461 -21.788 -13.020  0.00  0.00    -0.507 OA
ATOM     20  H   LIG    1       23.530 -21.960 -13.238  0.00  0.00    +0.292 HD
ENDBRANCH  15  19
ENDBRANCH   2  11
TORSDOF 5
ENDMDL
MODEL 5
REMARK VINA RESULT:      -5.5      1.375      7.615
REMARK  Name = 
REMARK                            x       y       z     vdW  Elec       q    Type
REMARK                         _______ _______ _______ _____ _____    ______ ____
ROOT
ATOM      1  C   LIG    1       25.095 -27.816 -11.098  0.00  0.00    +0.008 C 
ATOM      2  C   LIG    1       25.914 -26.977 -11.753  0.00  0.00    +0.009 C 
ENDROOT
BRANCH   1   6
ATOM      3  C   LIG    1       25.844 -31.893 -10.005  0.00  0.00    +0.117 A 
ATOM      4  C   LIG    1       26.922 -31.035 -10.171  0.00  0.00    +0.046 A 
ATOM      5  C   LIG    1       26.703 -29.698 -10.515  0.00  0.00    +0.011 A 
ATOM      6  C   LIG    1       25.403 -29.206 -10.695  0.00  0.00    -0.025 A 
ATOM      7  C   LIG    1       24.329 -30.092 -10.506  0.00  0.00    +0.011 A 
ATOM      8  C   LIG    1       24.545 -31.431 -10.164  0.00  0.00    +0.046 A 
BRANCH   3   9
ATOM      9  O   LIG    1       26.105 -33.192  -9.688  0.00  0.00    -0.507 OA
ATOM     10  H   LIG    1       26.566 -33.216  -8.833  0.00  0.00    +0.292 HD
ENDBRANCH   3   9
ENDBRANCH   1   6
BRANCH   2  11
ATOM     11  C   LIG    1       25.588 -25.605 -12.202  0.00  0.00    -0.018 A 
ATOM     12  C   LIG    1       24.412 -25.013 -11.712  0.00  0.00    +0.053 A 
ATOM     13  C   LIG    1       24.063 -23.714 -12.079  0.00  0.00    +0.121 A 
ATOM     14  C   LIG    1       24.864 -22.975 -12.937  0.00  0.00    +0.090 A 
ATOM     15  C   LIG    1       26.025 -23.556 -13.429  0.00  0.00    +0.121 A 
ATOM     16  C   LIG    1       26.393 -24.856 -13.074  0.00  0.00    +0.053 A 
BRANCH  13  17
ATOM     17  O   LIG    1       22.911 -23.197 -11.562  0.00  0.00    -0.507 OA
ATOM     18  H   LIG    1       22.549 -22.556 -12.197  0.00  0.00    +0.292 HD
ENDBRANCH  13  17
BRANCH  15  19
ATOM     19  O   LIG    1       26.797 -22.805 -14.270  0.00  0.00    -0.507 OA
ATOM     20  H   LIG    1       27.648 -22.625 -13.835  0.00  0.00    +0.292 HD
ENDBRANCH  15  19
ENDBRANCH   2  11
TORSDOF 5
ENDMDL
MODEL 6
REMARK VINA RESULT:      -5.5      1.528      7.499
REMARK  Name = 
REMARK                            x       y       z     vdW  Elec       q    Type
REMARK                         _______ _______ _______ _____ _____    ______ ____
ROOT
ATOM      1  C   LIG    1       25.102 -27.916 -11.657  0.00  0.00    +0.008 C 
ATOM      2  C   LIG    1       24.638 -26.658 -11.560  0.00  0.00    +0.009 C 
ENDROOT
BRANCH   1   6
ATOM      3  C   LIG    1       23.428 -31.408  -9.822  0.00  0.00    +0.117 A 
ATOM      4  C   LIG    1       22.628 -30.645 -10.661  0.00  0.00    +0.046 A 
ATOM      5  C   LIG    1       23.155 -29.508 -11.282  0.00  0.00    +0.011 A 
ATOM      6  C   LIG    1       24.487 -29.125 -11.069  0.00  0.00    -0.025 A 
ATOM      7  C   LIG    1       25.278 -29.925 -10.226  0.00  0.00    +0.011 A 
ATOM      8  C   LIG    1       24.753 -31.062  -9.602  0.00  0.00    +0.046 A 
BRANCH   3   9
ATOM      9  O   LIG    1       22.867 -32.497  -9.224  0.00  0.00    -0.507 OA
ATOM     10  H   LIG    1       23.006 -33.270  -9.795  0.00  0.00    +0.292 HD
ENDBRANCH   3   9
ENDBRANCH   1   6
BRANCH   2  11
ATOM     11  C   LIG    1       25.281 -25.441 -12.105  0.00  0.00    -0.018 A 
ATOM     12  C   LIG    1       24.479 -24.307 -12.309  0.00  0.00    +0.053 A 
ATOM     13  C   LIG    1       25.031 -23.123 -12.796  0.00  0.00    +0.121 A 
ATOM     14  C   LIG    1       26.383 -23.036 -13.093  0.00  0.00    +0.090 A 
ATOM     15  C   LIG    1       27.181 -24.156 -12.899  0.00  0.00    +0.121 A 
ATOM     16  C   LIG    1       26.647 -25.351 -12.412  0.00  0.00    +0.053 A 
BRANCH  13  17
ATOM     17  O   LIG    1       24.197 -22.056 -12.964  0.00  0.00    -0.507 OA
ATOM     18  H   LIG    1       23.631 -22.227 -13.735  0.00  0.00    +0.292 HD
ENDBRANCH  13  17
BRANCH  15  19
ATOM     19  O   LIG    1       28.509 -24.042 -13.197  0.00  0.00    -0.507 OA
ATOM     20  H   LIG    1       28.629 -24.193 -14.150  0.00  0.00    +0.292 HD
ENDBRANCH  15  19
ENDBRANCH   2  11
TORSDOF 5
ENDMDL
MODEL 7
REMARK VINA RESULT:      -5.0      0.750      1.236
REMARK  Name = 
REMARK                            x       y       z     vdW  Elec       q    Type
REMARK                         _______ _______ _______ _____ _____    ______ ____
ROOT
ATOM      1  C   LIG    1       25.605 -27.034 -10.955  0.00  0.00    +0.008 C 
ATOM      2  C   LIG    1       24.680 -27.989 -11.154  0.00  0.00    +0.009 C 
ENDROOT
BRANCH   1   6
ATOM      3  C   LIG    1       25.479 -23.010 -12.427  0.00  0.00    +0.117 A 
ATOM      4  C   LIG    1       26.436 -23.878 -12.933  0.00  0.00    +0.046 A 
ATOM      5  C   LIG    1       26.490 -25.199 -12.478  0.00  0.00    +0.011 A 
ATOM      6  C   LIG    1       25.585 -25.664 -11.513  0.00  0.00    -0.025 A 
ATOM      7  C   LIG    1       24.616 -24.768 -11.029  0.00  0.00    +0.011 A 
ATOM      8  C   LIG    1       24.561 -23.445 -11.481  0.00  0.00    +0.046 A 
BRANCH   3   9
ATOM      9  O   LIG    1       25.475 -21.727 -12.886  0.00  0.00    -0.507 OA
ATOM     10  H   LIG    1       25.308 -21.741 -13.842  0.00  0.00    +0.292 HD
ENDBRANCH   3   9
ENDBRANCH   1   6
BRANCH   2  11
ATOM     11  C   LIG    1       24.726 -29.375 -10.638  0.00  0.00    -0.018 A 
ATOM     12  C   LIG    1       25.957 -30.050 -10.671  0.00  0.00    +0.053 A 
ATOM     13  C   LIG    1       26.070 -31.350 -10.178  0.00  0.00    +0.121 A 
ATOM     14  C   LIG    1       24.972 -32.008  -9.645  0.00  0.00    +0.090 A 
ATOM     15  C   LIG    1       23.750 -31.348  -9.613  0.00  0.00    +0.121 A 
ATOM     16  C   LIG    1       23.616 -30.046 -10.103  0.00  0.00    +0.053 A 
BRANCH  13  17
ATOM     17  O   LIG    1       27.296 -31.945 -10.234  0.00  0.00    -0.507 OA
ATOM     18  H   LIG    1       27.732 -31.675 -11.059  0.00  0.00    +0.292 HD
ENDBRANCH  13  17
BRANCH  15  19
ATOM     19  O   LIG    1       22.686 -32.018  -9.081  0.00  0.00    -0.507 OA
ATOM     20  H   LIG    1       22.405 -31.564  -8.269  0.00  0.00    +0.292 HD
ENDBRANCH  15  19
ENDBRANCH   2  11
TORSDOF 5
ENDMDL
MODEL 8
REMARK VINA RESULT:      -4.9      1.411      7.394
REMARK  Name = 
REMARK                            x       y       z     vdW  Elec       q    Type
REMARK                         _______ _______ _______ _____ _____    ______ ____
ROOT
ATOM      1  C   LIG    1       25.057 -27.825 -10.859  0.00  0.00    +0.008 C 
ATOM      2  C   LIG    1       25.769 -27.000 -11.645  0.00  0.00    +0.009 C 
ENDROOT
BRANCH   1   6
ATOM      3  C   LIG    1       25.900 -31.911  -9.876  0.00  0.00    +0.117 A 
ATOM      4  C   LIG    1       26.921 -31.122 -10.388  0.00  0.00    +0.046 A 
ATOM      5  C   LIG    1       26.674 -29.783 -10.705  0.00  0.00    +0.011 A 
ATOM      6  C   LIG    1       25.404 -29.220 -10.510  0.00  0.00    -0.025 A 
ATOM      7  C   LIG    1       24.394 -30.038  -9.976  0.00  0.00    +0.011 A 
ATOM      8  C   LIG    1       24.637 -31.380  -9.660  0.00  0.00    +0.046 A 
BRANCH   3   9
ATOM      9  O   LIG    1       26.182 -33.216  -9.598  0.00  0.00    -0.507 OA
ATOM     10  H   LIG    1       26.942 -33.490 -10.137  0.00  0.00    +0.292 HD
ENDBRANCH   3   9
ENDBRANCH   1   6
BRANCH   2  11
ATOM     11  C   LIG    1       25.396 -25.622 -12.036  0.00  0.00    -0.018 A 
ATOM     12  C   LIG    1       26.272 -24.915 -12.875  0.00  0.00    +0.053 A 
ATOM     13  C   LIG    1       25.965 -23.622 -13.297  0.00  0.00    +0.121 A 
ATOM     14  C   LIG    1       24.790 -23.002 -12.899  0.00  0.00    +0.090 A 
ATOM     15  C   LIG    1       23.922 -23.694 -12.065  0.00  0.00    +0.121 A 
ATOM     16  C   LIG    1       24.211 -24.990 -11.630  0.00  0.00    +0.053 A 
BRANCH  13  17
ATOM     17  O   LIG    1       26.856 -22.994 -14.118  0.00  0.00    -0.507 OA
ATOM     18  H   LIG    1       26.543 -22.088 -14.275  0.00  0.00    +0.292 HD
ENDBRANCH  13  17
BRANCH  15  19
ATOM     19  O   LIG    1       22.770 -23.061 -11.690  0.00  0.00    -0.507 OA
ATOM     20  H   LIG    1       22.852 -22.115 -11.897  0.00  0.00    +0.292 HD
ENDBRANCH  15  19
ENDBRANCH   2  11
TORSDOF 5
ENDMDL
