MODEL 1
REMARK VINA RESULT:      -8.5      0.000      0.000
REMARK  Name = 
REMARK                            x       y       z     vdW  Elec       q    Type
REMARK                         _______ _______ _______ _____ _____    ______ ____
ROOT
ATOM      1  C   LIG    1       18.319  49.275  16.611  0.00  0.00    +0.008 C 
ATOM      2  C   LIG    1       19.295  48.431  16.233  0.00  0.00    +0.009 C 
ENDROOT
BRANCH   1   6
ATOM      3  C   LIG    1       15.558  48.490  19.794  0.00  0.00    +0.117 A 
ATOM      4  C   LIG    1       16.059  49.776  19.644  0.00  0.00    +0.046 A 
ATOM      5  C   LIG    1       16.951  50.060  18.605  0.00  0.00    +0.011 A 
ATOM      6  C   LIG    1       17.350  49.060  17.707  0.00  0.00    -0.025 A 
ATOM      7  C   LIG    1       16.816  47.771  17.873  0.00  0.00    +0.011 A 
ATOM      8  C   LIG    1       15.925  47.483  18.913  0.00  0.00    +0.046 A 
BRANCH   3   9
ATOM      9  O   LIG    1       14.706  48.255  20.831  0.00  0.00    -0.507 OA
ATOM     10  H   LIG    1       13.929  47.781  20.492  0.00  0.00    +0.292 HD
ENDBRANCH   3   9
ENDBRANCH   1   6
BRANCH   2  11
ATOM     11  C   LIG    1       20.231  48.622  15.103  0.00  0.00    -0.018 A 
ATOM     12  C   LIG    1       20.635  47.486  14.383  0.00  0.00    +0.053 A 
ATOM     13  C   LIG    1       21.496  47.604  13.293  0.00  0.00    +0.121 A 
ATOM     14  C   LIG    1       21.977  48.842  12.894  0.00  0.00    +0.090 A 
ATOM     15  C   LIG    1       21.586  49.969  13.605  0.00  0.00    +0.121 A 
ATOM     16  C   LIG    1       20.724  49.873  14.701  0.00  0.00    +0.053 A 
BRANCH  13  17
ATOM     17  O   LIG    1       21.843  46.462  12.632  0.00  0.00    -0.507 OA
ATOM     18  H   LIG    1       22.548  46.675  11.998  0.00  0.00    +0.292 HD
ENDBRANCH  13  17
BRANCH  15  19
ATOM     19  O   LIG    1       22.072  51.176  13.190  0.00  0.00    -0.507 OA
ATOM     20  H   LIG    1       22.185  51.751  13.966  0.00  0.00    +0.292 HD
ENDBRANCH  15  19
ENDBRANCH   2  11
TORSDOF 5
ENDMDL
MODEL 2
REMARK VINA RESULT:      -8.4      0.160      2.004
REMARK  Name = 
REMARK                            x       y       z     vdW  Elec       q    Type
REMARK                         _______ _______ _______ _____ _____    ______ ____
ROOT
ATOM      1  C   LIG    1       18.253  49.071  16.511  0.00  0.00    +0.008 C 
ATOM      2  C   LIG    1       19.346  48.324  16.276  0.00  0.00    +0.009 C 
ENDROOT
BRANCH   1   6
ATOM      3  C   LIG    1       15.576  48.463  19.803  0.00  0.00    +0.117 A 
ATOM      4  C   LIG    1       16.110  49.728  19.600  0.00  0.00    +0.046 A 
ATOM      5  C   LIG    1       16.976  49.954  18.525  0.00  0.00    +0.011 A 
ATOM      6  C   LIG    1       17.314  48.917  17.644  0.00  0.00    -0.025 A 
ATOM      7  C   LIG    1       16.746  47.651  17.864  0.00  0.00    +0.011 A 
ATOM      8  C   LIG    1       15.881  47.421  18.940  0.00  0.00    +0.046 A 
BRANCH   3   9
ATOM      9  O   LIG    1       14.751  48.284  20.873  0.00  0.00    -0.507 OA
ATOM     10  H   LIG    1       14.792  49.077  21.432  0.00  0.00    +0.292 HD
ENDBRANCH   3   9
ENDBRANCH   1   6
BRANCH   2  11
ATOM     11  C   LIG    1       20.255  48.444  15.115  0.00  0.00    -0.018 A 
ATOM     12  C   LIG    1       20.773  49.713  14.810  0.00  0.00    +0.053 A 
ATOM     13  C   LIG    1       21.655  49.885  13.744  0.00  0.00    +0.121 A 
ATOM     14  C   LIG    1       22.040  48.810  12.956  0.00  0.00    +0.090 A 
ATOM     15  C   LIG    1       21.528  47.553  13.248  0.00  0.00    +0.121 A 
ATOM     16  C   LIG    1       20.643  47.359  14.312  0.00  0.00    +0.053 A 
BRANCH  13  17
ATOM     17  O   LIG    1       22.126  51.144  13.507  0.00  0.00    -0.507 OA
ATOM     18  H   LIG    1       22.947  51.072  12.992  0.00  0.00    +0.292 HD
ENDBRANCH  13  17
BRANCH  15  19
ATOM     19  O   LIG    1       21.925  46.512  12.458  0.00  0.00    -0.507 OA
ATOM     20  H   LIG    1       21.170  45.915  12.324  0.00  0.00    +0.292 HD
ENDBRANCH  15  19
ENDBRANCH   2  11
TORSDOF 5
ENDMDL
MODEL 3
REMARK VINA RESULT:      -7.7      1.512      7.653
REMARK  Name = 
REMARK                            x       y       z     vdW  Elec       q    Type
REMARK                         _______ _______ _______ _____ _____    ______ ____
ROOT
ATOM      1  C   LIG    1       19.792  48.805  15.781  0.00  0.00    +0.008 C 
ATOM      2  C   LIG    1       18.748  49.508  16.254  0.00  0.00    +0.009 C 
ENDROOT
BRANCH   1   6
ATOM      3  C   LIG    1       22.095  49.859  12.324  0.00  0.00    +0.117 A 
ATOM      4  C   LIG    1       22.072  48.533  12.733  0.00  0.00    +0.046 A 
ATOM      5  C   LIG    1       21.318  48.162  13.851  0.00  0.00    +0.011 A 
ATOM      6  C   LIG    1       20.579  49.114  14.568  0.00  0.00    -0.025 A 
ATOM      7  C   LIG    1       20.610  50.447  14.122  0.00  0.00    +0.011 A 
ATOM      8  C   LIG    1       21.365  50.821  13.005  0.00  0.00    +0.046 A 
BRANCH   3   9
ATOM      9  O   LIG    1       22.858  50.177  11.240  0.00  0.00    -0.507 OA
ATOM     10  H   LIG    1       22.839  49.433  10.618  0.00  0.00    +0.292 HD
ENDBRANCH   3   9
ENDBRANCH   1   6
BRANCH   2  11
ATOM     11  C   LIG    1       17.927  49.170  17.438  0.00  0.00    -0.018 A 
ATOM     12  C   LIG    1       17.826  50.124  18.464  0.00  0.00    +0.053 A 
ATOM     13  C   LIG    1       17.048  49.874  19.594  0.00  0.00    +0.121 A 
ATOM     14  C   LIG    1       16.358  48.679  19.734  0.00  0.00    +0.090 A 
ATOM     15  C   LIG    1       16.458  47.730  18.726  0.00  0.00    +0.121 A 
ATOM     16  C   LIG    1       17.232  47.960  17.586  0.00  0.00    +0.053 A 
BRANCH  13  17
ATOM     17  O   LIG    1       16.987  50.846  20.549  0.00  0.00    -0.507 OA
ATOM     18  H   LIG    1       16.450  51.580  20.207  0.00  0.00    +0.292 HD
ENDBRANCH  13  17
BRANCH  15  19
ATOM     19  O   LIG    1       15.766  46.563  18.889  0.00  0.00    -0.507 OA
ATOM     20  H   LIG    1       16.321  45.937  19.384  0.00  0.00    +0.292 HD
ENDBRANCH  15  19
ENDBRANCH   2  11
TORSDOF 5
ENDMDL
MODEL 4
REMARK VINA RESULT:      -7.6      1.511      7.305
REMARK  Name = 
REMARK                            x       y       z     vdW  Elec       q    Type
REMARK                         _______ _______ _______ _____ _____    ______ ____
ROOT
ATOM      1  C   LIG    1       19.461  49.624  15.593  0.00  0.00    +0.008 C 
ATOM      2  C   LIG    1       19.302  48.722  16.576  0.00  0.00    +0.009 C 
ENDROOT
BRANCH   1   6
ATOM      3  C   LIG    1       22.436  49.411  12.515  0.00  0.00    +0.117 A 
ATOM      4  C   LIG    1       21.953  50.656  12.894  0.00  0.00    +0.046 A 
ATOM      5  C   LIG    1       20.992  50.752  13.905  0.00  0.00    +0.011 A 
ATOM      6  C   LIG    1       20.505  49.604  14.546  0.00  0.00    -0.025 A 
ATOM      7  C   LIG    1       21.022  48.358  14.152  0.00  0.00    +0.011 A 
ATOM      8  C   LIG    1       21.982  48.258  13.140  0.00  0.00    +0.046 A 
BRANCH   3   9
ATOM      9  O   LIG    1       23.359  49.363  11.513  0.00  0.00    -0.507 OA
ATOM     10  H   LIG    1       24.240  49.266  11.908  0.00  0.00    +0.292 HD
ENDBRANCH   3   9
ENDBRANCH   1   6
BRANCH   2  11
ATOM     11  C   LIG    1       18.290  48.769  17.655  0.00  0.00    -0.018 A 
ATOM     12  C   LIG    1       17.448  47.657  17.819  0.00  0.00    +0.053 A 
ATOM     13  C   LIG    1       16.491  47.632  18.833  0.00  0.00    +0.121 A 
ATOM     14  C   LIG    1       16.345  48.703  19.702  0.00  0.00    +0.090 A 
ATOM     15  C   LIG    1       17.171  49.807  19.543  0.00  0.00    +0.121 A 
ATOM     16  C   LIG    1       18.136  49.853  18.534  0.00  0.00    +0.053 A 
BRANCH  13  17
ATOM     17  O   LIG    1       15.710  46.518  18.941  0.00  0.00    -0.507 OA
ATOM     18  H   LIG    1       15.298  46.346  18.077  0.00  0.00    +0.292 HD
ENDBRANCH  13  17
BRANCH  15  19
ATOM     19  O   LIG    1       17.008  50.847  20.415  0.00  0.00    -0.507 OA
ATOM     20  H   LIG    1       16.917  51.670  19.906  0.00  0.00    +0.292 HD
ENDBRANCH  15  19
ENDBRANCH   2  11
TORSDOF 5
ENDMDL
MODEL 5
REMARK VINA RESULT:      -7.1      1.776      7.251
REMARK  Name = 
REMARK                            x       y       z     vdW  Elec       q    Type
REMARK                         _______ _______ _______ _____ _____    ______ ____
ROOT
ATOM      1  C   LIG    1       19.424  48.823  15.241  0.00  0.00    +0.008 C 
ATOM      2  C   LIG    1       19.037  49.109  16.496  0.00  0.00    +0.009 C 
ENDROOT
BRANCH   1   6
ATOM      3  C   LIG    1       22.349  51.054  13.041  0.00  0.00    +0.117 A 
ATOM      4  C   LIG    1       22.568  49.701  13.263  0.00  0.00    +0.046 A 
ATOM      5  C   LIG    1       21.622  48.949  13.967  0.00  0.00    +0.011 A 
ATOM      6  C   LIG    1       20.449  49.543  14.455  0.00  0.00    -0.025 A 
ATOM      7  C   LIG    1       20.247  50.911  14.202  0.00  0.00    +0.011 A 
ATOM      8  C   LIG    1       21.193  51.667  13.500  0.00  0.00    +0.046 A 
BRANCH   3   9
ATOM      9  O   LIG    1       23.306  51.751  12.366  0.00  0.00    -0.507 OA
ATOM     10  H   LIG    1       22.907  52.562  12.012  0.00  0.00    +0.292 HD
ENDBRANCH   3   9
ENDBRANCH   1   6
BRANCH   2  11
ATOM     11  C   LIG    1       17.975  48.421  17.264  0.00  0.00    -0.018 A 
ATOM     12  C   LIG    1       17.456  47.224  16.744  0.00  0.00    +0.053 A 
ATOM     13  C   LIG    1       16.471  46.517  17.433  0.00  0.00    +0.121 A 
ATOM     14  C   LIG    1       15.979  46.978  18.646  0.00  0.00    +0.090 A 
ATOM     15  C   LIG    1       16.485  48.163  19.162  0.00  0.00    +0.121 A 
ATOM     16  C   LIG    1       17.471  48.887  18.488  0.00  0.00    +0.053 A 
BRANCH  13  17
ATOM     17  O   LIG    1       16.015  45.358  16.877  0.00  0.00    -0.507 OA
ATOM     18  H   LIG    1       15.860  45.512  15.930  0.00  0.00    +0.292 HD
ENDBRANCH  13  17
BRANCH  15  19
ATOM     19  O   LIG    1       15.984  48.593  20.359  0.00  0.00    -0.507 OA
ATOM     20  H   LIG    1       16.696  49.027  20.858  0.00  0.00    +0.292 HD
ENDBRANCH  15  19
ENDBRANCH   2  11
TORSDOF 5
ENDMDL
MODEL 6
REMARK VINA RESULT:      -6.7      1.202      2.452
REMARK  Name = 
REMARK                            x       y       z     vdW  Elec       q    Type
REMARK                         _______ _______ _______ _____ _____    ______ ____
ROOT
ATOM      1  C   LIG    1       19.382  49.640  16.247  0.00  0.00    +0.008 C 
ATOM      2  C   LIG    1       19.769  49.003  15.129  0.00  0.00    +0.009 C 
ENDROOT
BRANCH   1   6
ATOM      3  C   LIG    1       16.379  48.238  18.965  0.00  0.00    +0.117 A 
ATOM      4  C   LIG    1       16.610  49.603  18.870  0.00  0.00    +0.046 A 
ATOM      5  C   LIG    1       17.575  50.086  17.981  0.00  0.00    +0.011 A 
ATOM      6  C   LIG    1       18.318  49.208  17.179  0.00  0.00    -0.025 A 
ATOM      7  C   LIG    1       18.053  47.832  17.286  0.00  0.00    +0.011 A 
ATOM      8  C   LIG    1       17.089  47.345  18.176  0.00  0.00    +0.046 A 
BRANCH   3   9
ATOM      9  O   LIG    1       15.441  47.812  19.857  0.00  0.00    -0.507 OA
ATOM     10  H   LIG    1       14.943  48.582  20.175  0.00  0.00    +0.292 HD
ENDBRANCH   3   9
ENDBRANCH   1   6
BRANCH   2  11
ATOM     11  C   LIG    1       20.797  49.462  14.169  0.00  0.00    -0.018 A 
ATOM     12  C   LIG    1       21.021  50.843  14.053  0.00  0.00    +0.053 A 
ATOM     13  C   LIG    1       21.993  51.337  13.184  0.00  0.00    +0.121 A 
ATOM     14  C   LIG    1       22.761  50.478  12.412  0.00  0.00    +0.090 A 
ATOM     15  C   LIG    1       22.541  49.111  12.517  0.00  0.00    +0.121 A 
ATOM     16  C   LIG    1       21.572  48.596  13.382  0.00  0.00    +0.053 A 
BRANCH  13  17
ATOM     17  O   LIG    1       22.164  52.689  13.125  0.00  0.00    -0.507 OA
ATOM     18  H   LIG    1       21.320  53.116  13.350  0.00  0.00    +0.292 HD
ENDBRANCH  13  17
BRANCH  15  19
ATOM     19  O   LIG    1       23.313  48.288  11.747  0.00  0.00    -0.507 OA
ATOM     20  H   LIG    1       24.225  48.311  12.082  0.00  0.00    +0.292 HD
ENDBRANCH  15  19
ENDBRANCH   2  11
TORSDOF 5
ENDMDL
MODEL 7
REMARK VINA RESULT:      -6.4      2.468      7.308
REMARK  Name = 
REMARK                            x       y       z     vdW  Elec       q    Type
REMARK                         _______ _______ _______ _____ _____    ______ ____
ROOT
ATOM      1  C   LIG    1       19.845  48.281  14.415  0.00  0.00    +0.008 C 
ATOM      2  C   LIG    1       18.831  48.498  15.270  0.00  0.00    +0.009 C 
ENDROOT
BRANCH   1   6
ATOM      3  C   LIG    1       22.731  51.078  12.923  0.00  0.00    +0.117 A 
ATOM      4  C   LIG    1       21.524  51.558  13.412  0.00  0.00    +0.046 A 
ATOM      5  C   LIG    1       20.571  50.667  13.915  0.00  0.00    +0.011 A 
ATOM      6  C   LIG    1       20.818  49.286  13.936  0.00  0.00    -0.025 A 
ATOM      7  C   LIG    1       22.055  48.829  13.449  0.00  0.00    +0.011 A 
ATOM      8  C   LIG    1       23.009  49.719  12.942  0.00  0.00    +0.046 A 
BRANCH   3   9
ATOM      9  O   LIG    1       23.622  51.981  12.426  0.00  0.00    -0.507 OA
ATOM     10  H   LIG    1       24.403  51.502  12.106  0.00  0.00    +0.292 HD
ENDBRANCH   3   9
ENDBRANCH   1   6
BRANCH   2  11
ATOM     11  C   LIG    1       17.826  47.504  15.708  0.00  0.00    -0.018 A 
ATOM     12  C   LIG    1       17.498  47.456  17.073  0.00  0.00    +0.053 A 
ATOM     13  C   LIG    1       16.541  46.559  17.544  0.00  0.00    +0.121 A 
ATOM     14  C   LIG    1       15.891  45.691  16.679  0.00  0.00    +0.090 A 
ATOM     15  C   LIG    1       16.214  45.729  15.330  0.00  0.00    +0.121 A 
ATOM     16  C   LIG    1       17.170  46.620  14.837  0.00  0.00    +0.053 A 
BRANCH  13  17
ATOM     17  O   LIG    1       16.264  46.569  18.880  0.00  0.00    -0.507 OA
ATOM     18  H   LIG    1       16.804  45.886  19.311  0.00  0.00    +0.292 HD
ENDBRANCH  13  17
BRANCH  15  19
ATOM     19  O   LIG    1       15.557  44.865  14.500  0.00  0.00    -0.507 OA
ATOM     20  H   LIG    1       15.976  43.990  14.565  0.00  0.00    +0.292 HD
ENDBRANCH  15  19
ENDBRANCH   2  11
TORSDOF 5
ENDMDL
MODEL 8
REMARK VINA RESULT:      -5.8      1.382      1.838
REMARK  Name = 
REMARK                            x       y       z     vdW  Elec       q    Type
REMARK                         _______ _______ _______ _____ _____    ______ ____
ROOT
ATOM      1  C   LIG    1       18.825  49.478  17.500  0.00  0.00    +0.008 C 
ATOM      2  C   LIG    1       19.236  48.814  16.406  0.00  0.00    +0.009 C 
ENDROOT
BRANCH   1   6
ATOM      3  C   LIG    1       15.383  48.462  19.843  0.00  0.00    +0.117 A 
ATOM      4  C   LIG    1       15.828  49.776  19.843  0.00  0.00    +0.046 A 
ATOM      5  C   LIG    1       16.941  50.136  19.077  0.00  0.00    +0.011 A 
ATOM      6  C   LIG    1       17.618  49.183  18.303  0.00  0.00    -0.025 A 
ATOM      7  C   LIG    1       17.137  47.862  18.310  0.00  0.00    +0.011 A 
ATOM      8  C   LIG    1       16.025  47.499  19.078  0.00  0.00    +0.046 A 
BRANCH   3   9
ATOM      9  O   LIG    1       14.305  48.154  20.619  0.00  0.00    -0.507 OA
ATOM     10  H   LIG    1       13.959  47.291  20.340  0.00  0.00    +0.292 HD
ENDBRANCH   3   9
ENDBRANCH   1   6
BRANCH   2  11
ATOM     11  C   LIG    1       20.414  49.141  15.572  0.00  0.00    -0.018 A 
ATOM     12  C   LIG    1       21.645  49.338  16.219  0.00  0.00    +0.053 A 
ATOM     13  C   LIG    1       22.796  49.625  15.486  0.00  0.00    +0.121 A 
ATOM     14  C   LIG    1       22.754  49.726  14.103  0.00  0.00    +0.090 A 
ATOM     15  C   LIG    1       21.539  49.538  13.458  0.00  0.00    +0.121 A 
ATOM     16  C   LIG    1       20.374  49.250  14.174  0.00  0.00    +0.053 A 
BRANCH  13  17
ATOM     17  O   LIG    1       23.961  49.797  16.175  0.00  0.00    -0.507 OA
ATOM     18  H   LIG    1       24.597  49.125  15.877  0.00  0.00    +0.292 HD
ENDBRANCH  13  17
BRANCH  15  19
ATOM     19  O   LIG    1       21.527  49.641  12.096  0.00  0.00    -0.507 OA
ATOM     20  H   LIG    1       22.146  48.988  11.727  0.00  0.00    +0.292 HD
ENDBRANCH  15  19
ENDBRANCH   2  11
TORSDOF 5
ENDMDL
