REMARK  Name = 
REMARK                            x       y       z     vdW  Elec       q    Type
REMARK                         _______ _______ _______ _____ _____    ______ ____
ROOT
ATOM      1  C   LIG    1        6.423   0.108  -0.656  0.00  0.00    +0.008 C 
ATOM      2  C   LIG    1        7.251  -0.942  -0.791  0.00  0.00    +0.009 C 
ENDROOT
BRANCH   1   6
ATOM      3  C   LIG    1        2.187   0.086  -0.002  0.00  0.00    +0.117 A 
ATOM      4  C   LIG    1        2.859  -1.126  -0.074  0.00  0.00    +0.046 A 
ATOM      5  C   LIG    1        4.243  -1.145  -0.274  0.00  0.00    +0.011 A 
ATOM      6  C   LIG    1        4.967   0.049  -0.403  0.00  0.00    -0.025 A 
ATOM      7  C   LIG    1        4.263   1.262  -0.311  0.00  0.00    +0.011 A 
ATOM      8  C   LIG    1        2.878   1.284  -0.113  0.00  0.00    +0.046 A 
BRANCH   3   9
ATOM      9  O   LIG    1        0.836   0.056   0.176  0.00  0.00    -0.507 OA
ATOM     10  H   LIG    1        0.501   0.967   0.160  0.00  0.00    +0.292 HD
ENDBRANCH   3   9
ENDBRANCH   1   6
BRANCH   2  11
ATOM     11  C   LIG    1        8.698  -0.884  -1.096  0.00  0.00    -0.018 A 
ATOM     12  C   LIG    1        9.388  -2.097  -1.252  0.00  0.00    +0.053 A 
ATOM     13  C   LIG    1       10.747  -2.108  -1.564  0.00  0.00    +0.121 A 
ATOM     14  C   LIG    1       11.451  -0.924  -1.726  0.00  0.00    +0.090 A 
ATOM     15  C   LIG    1       10.776   0.279  -1.568  0.00  0.00    +0.121 A 
ATOM     16  C   LIG    1        9.415   0.312  -1.255  0.00  0.00    +0.053 A 
BRANCH  13  17
ATOM     17  O   LIG    1       11.355  -3.321  -1.709  0.00  0.00    -0.507 OA
ATOM     18  H   LIG    1       12.289  -3.172  -1.932  0.00  0.00    +0.292 HD
ENDBRANCH  13  17
BRANCH  15  19
ATOM     19  O   LIG    1       11.493   1.430  -1.735  0.00  0.00    -0.507 OA
ATOM     20  H   LIG    1       10.900   2.189  -1.606  0.00  0.00    +0.292 HD
ENDBRANCH  15  19
ENDBRANCH   2  11
TORSDOF 5
