REMARK  Name = 
REMARK                            x       y       z     vdW  Elec       q    Type
REMARK                         _______ _______ _______ _____ _____    ______ ____
ROOT
ATOM      1  C   LIG    1        6.595   0.090  -0.688  0.00  0.00    +0.015 C 
ATOM      2  C   LIG    1        7.324  -1.283  -0.719  0.00  0.00    +0.021 C 
ATOM      3  C   LIG    1        7.287   0.866   0.468  0.00  0.00    +0.021 C 
ENDROOT
BRANCH   1   7
ATOM      4  C   LIG    1        2.312  -0.105   0.129  0.00  0.00    +0.117 A 
ATOM      5  C   LIG    1        3.040  -1.282   0.042  0.00  0.00    +0.046 A 
ATOM      6  C   LIG    1        4.418  -1.239  -0.199  0.00  0.00    +0.008 A 
ATOM      7  C   LIG    1        5.086  -0.013  -0.358  0.00  0.00    -0.037 A 
ATOM      8  C   LIG    1        4.315   1.166  -0.253  0.00  0.00    +0.008 A 
ATOM      9  C   LIG    1        2.940   1.125  -0.011  0.00  0.00    +0.046 A 
BRANCH   4  10
ATOM     10  O   LIG    1        0.970  -0.196   0.346  0.00  0.00    -0.507 OA
ATOM     11  H   LIG    1        0.594   0.699   0.321  0.00  0.00    +0.292 HD
ENDBRANCH   4  10
ENDBRANCH   1   7
BRANCH   1  12
ATOM     12  C   LIG    1        6.759   0.771  -2.071  0.00  0.00    -0.037 A 
ATOM     13  C   LIG    1        6.398   0.076  -3.245  0.00  0.00    +0.008 A 
ATOM     14  C   LIG    1        6.456   0.686  -4.500  0.00  0.00    +0.046 A 
ATOM     15  C   LIG    1        6.854   2.009  -4.602  0.00  0.00    +0.117 A 
ATOM     16  C   LIG    1        7.216   2.727  -3.470  0.00  0.00    +0.046 A 
ATOM     17  C   LIG    1        7.174   2.109  -2.215  0.00  0.00    +0.008 A 
BRANCH  15  18
ATOM     18  O   LIG    1        6.860   2.579  -5.840  0.00  0.00    -0.507 OA
ATOM     19  H   LIG    1        7.080   3.520  -5.745  0.00  0.00    +0.292 HD
ENDBRANCH  15  18
ENDBRANCH   1  12
TORSDOF 4
