MODEL 1
REMARK VINA RESULT:      -8.1      0.000      0.000
REMARK  Name = 
REMARK                            x       y       z     vdW  Elec       q    Type
REMARK                         _______ _______ _______ _____ _____    ______ ____
ROOT
ATOM      1  C   LIG    1       -5.209  -5.611  12.441  0.00  0.00    -0.046 A 
ATOM      2  C   LIG    1       -5.574  -6.897  12.051  0.00  0.00    +0.007 A 
ATOM      3  C   LIG    1       -6.210  -7.116  10.834  0.00  0.00    +0.046 A 
ATOM      4  C   LIG    1       -6.548  -6.056   9.985  0.00  0.00    +0.121 A 
ATOM      5  C   LIG    1       -6.210  -4.762  10.379  0.00  0.00    +0.046 A 
ATOM      6  C   LIG    1       -5.539  -4.540  11.596  0.00  0.00    +0.007 A 
ENDROOT
BRANCH   1   7
ATOM      7  C   LIG    1       -4.488  -5.418  13.755  0.00  0.00    +0.059 C 
BRANCH   7  10
ATOM      8  O   LIG    1       -3.540  -3.980  16.534  0.00  0.00    -0.274 OA
ATOM      9  C   LIG    1       -4.623  -4.292  16.055  0.00  0.00    +0.234 C 
ATOM     10  C   LIG    1       -4.994  -4.225  14.580  0.00  0.00    +0.146 C 
ATOM     11  S   LIG    1       -6.831  -4.275  14.611  0.00  0.00    -0.054 S 
ATOM     12  C   LIG    1       -6.898  -4.670  16.310  0.00  0.00    +0.279 C 
ATOM     13  O   LIG    1       -7.930  -4.813  16.937  0.00  0.00    -0.263 OA
ATOM     14  N   LIG    1       -5.652  -4.733  16.828  0.00  0.00    -0.246 N 
ATOM     15  H   LIG    1       -5.543  -4.787  17.829  0.00  0.00    +0.158 HD
ENDBRANCH   7  10
ENDBRANCH   1   7
BRANCH   4  16
ATOM     16  O   LIG    1       -7.206  -6.203   8.774  0.00  0.00    -0.490 OA
BRANCH  16  17
ATOM     17  C   LIG    1       -8.605  -6.454   8.962  0.00  0.00    +0.248 C 
BRANCH  17  18
ATOM     18  C   LIG    1       -9.516  -5.240   9.073  0.00  0.00    +0.147 C 
BRANCH  18  19
ATOM     19  N   LIG    1      -10.051  -4.965  10.443  0.00  0.00    -0.315 N 
ATOM     20  C   LIG    1       -9.972  -6.147  11.316  0.00  0.00    +0.131 C 
BRANCH  19  21
ATOM     21  C   LIG    1       -9.735  -3.788  11.150  0.00  0.00    +0.121 A 
ATOM     22  C   LIG    1       -8.854  -2.830  10.637  0.00  0.00    +0.043 A 
ATOM     23  C   LIG    1       -8.560  -1.657  11.336  0.00  0.00    +0.005 A 
ATOM     24  C   LIG    1       -9.222  -1.399  12.518  0.00  0.00    +0.020 A 
ATOM     25  C   LIG    1      -10.136  -2.339  12.946  0.00  0.00    +0.113 A 
ATOM     26  N   LIG    1      -10.385  -3.508  12.304  0.00  0.00    -0.240 NA
ENDBRANCH  19  21
ENDBRANCH  18  19
ENDBRANCH  17  18
ENDBRANCH  16  17
ENDBRANCH   4  16
TORSDOF 7
ENDMDL
MODEL 2
REMARK VINA RESULT:      -8.0      1.892      3.868
REMARK  Name = 
REMARK                            x       y       z     vdW  Elec       q    Type
REMARK                         _______ _______ _______ _____ _____    ______ ____
ROOT
ATOM      1  C   LIG    1       -7.540  -3.723  13.079  0.00  0.00    -0.046 A 
ATOM      2  C   LIG    1       -8.304  -4.869  13.288  0.00  0.00    +0.007 A 
ATOM      3  C   LIG    1       -9.353  -5.188  12.434  0.00  0.00    +0.046 A 
ATOM      4  C   LIG    1       -9.711  -4.351  11.371  0.00  0.00    +0.121 A 
ATOM      5  C   LIG    1       -8.970  -3.187  11.170  0.00  0.00    +0.046 A 
ATOM      6  C   LIG    1       -7.887  -2.877  12.014  0.00  0.00    +0.007 A 
ENDROOT
BRANCH   1   7
ATOM      7  C   LIG    1       -6.385  -3.428  14.009  0.00  0.00    +0.059 C 
BRANCH   7  10
ATOM      8  O   LIG    1       -7.308  -4.889  16.785  0.00  0.00    -0.274 OA
ATOM      9  C   LIG    1       -6.228  -4.595  16.287  0.00  0.00    +0.234 C 
ATOM     10  C   LIG    1       -5.891  -4.647  14.803  0.00  0.00    +0.146 C 
ATOM     11  S   LIG    1       -4.053  -4.641  14.794  0.00  0.00    -0.054 S 
ATOM     12  C   LIG    1       -3.940  -4.277  16.497  0.00  0.00    +0.279 C 
ATOM     13  O   LIG    1       -2.891  -4.168  17.104  0.00  0.00    -0.263 OA
ATOM     14  N   LIG    1       -5.173  -4.191  17.044  0.00  0.00    -0.246 N 
ATOM     15  H   LIG    1       -5.259  -4.152  18.047  0.00  0.00    +0.158 HD
ENDBRANCH   7  10
ENDBRANCH   1   7
BRANCH   4  16
ATOM     16  O   LIG    1      -10.762  -4.596  10.503  0.00  0.00    -0.490 OA
BRANCH  16  17
ATOM     17  C   LIG    1      -10.294  -4.931   9.189  0.00  0.00    +0.248 C 
BRANCH  17  18
ATOM     18  C   LIG    1       -9.618  -6.283   9.021  0.00  0.00    +0.147 C 
BRANCH  18  19
ATOM     19  N   LIG    1       -8.151  -6.232   8.728  0.00  0.00    -0.315 N 
ATOM     20  C   LIG    1       -7.792  -5.072   7.898  0.00  0.00    +0.131 C 
BRANCH  19  21
ATOM     21  C   LIG    1       -7.178  -6.470   9.719  0.00  0.00    +0.121 A 
ATOM     22  C   LIG    1       -6.271  -5.481  10.117  0.00  0.00    +0.043 A 
ATOM     23  C   LIG    1       -5.321  -5.720  11.113  0.00  0.00    +0.005 A 
ATOM     24  C   LIG    1       -5.336  -6.927  11.779  0.00  0.00    +0.020 A 
ATOM     25  C   LIG    1       -6.297  -7.842  11.401  0.00  0.00    +0.113 A 
ATOM     26  N   LIG    1       -7.186  -7.642  10.395  0.00  0.00    -0.240 NA
ENDBRANCH  19  21
ENDBRANCH  18  19
ENDBRANCH  17  18
ENDBRANCH  16  17
ENDBRANCH   4  16
TORSDOF 7
ENDMDL
MODEL 3
REMARK VINA RESULT:      -7.7      3.795      6.294
REMARK  Name = 
REMARK                            x       y       z     vdW  Elec       q    Type
REMARK                         _______ _______ _______ _____ _____    ______ ____
ROOT
ATOM      1  C   LIG    1       -9.180  -1.643  12.461  0.00  0.00    -0.046 A 
ATOM      2  C   LIG    1       -9.912  -2.783  12.783  0.00  0.00    +0.007 A 
ATOM      3  C   LIG    1       -9.274  -3.934  13.229  0.00  0.00    +0.046 A 
ATOM      4  C   LIG    1       -7.879  -4.007  13.322  0.00  0.00    +0.121 A 
ATOM      5  C   LIG    1       -7.135  -2.880  12.975  0.00  0.00    +0.046 A 
ATOM      6  C   LIG    1       -7.781  -1.703  12.553  0.00  0.00    +0.007 A 
ENDROOT
BRANCH   1   7
ATOM      7  C   LIG    1       -9.913  -0.400  12.013  0.00  0.00    +0.059 C 
BRANCH   7  10
ATOM      8  O   LIG    1      -13.132   0.109  12.279  0.00  0.00    -0.274 OA
ATOM      9  C   LIG    1      -12.134   0.767  12.543  0.00  0.00    +0.234 C 
ATOM     10  C   LIG    1      -10.824   0.214  13.087  0.00  0.00    +0.146 C 
ATOM     11  S   LIG    1       -9.995   1.706  13.770  0.00  0.00    -0.054 S 
ATOM     12  C   LIG    1      -11.151   2.804  13.060  0.00  0.00    +0.279 C 
ATOM     13  O   LIG    1      -11.122   4.011  13.203  0.00  0.00    -0.263 OA
ATOM     14  N   LIG    1      -12.101   2.118  12.387  0.00  0.00    -0.246 N 
ATOM     15  H   LIG    1      -12.922   2.608  12.068  0.00  0.00    +0.158 HD
ENDBRANCH   7  10
ENDBRANCH   1   7
BRANCH   4  16
ATOM     16  O   LIG    1       -7.181  -5.132  13.731  0.00  0.00    -0.490 OA
BRANCH  16  17
ATOM     17  C   LIG    1       -6.011  -5.346  12.930  0.00  0.00    +0.248 C 
BRANCH  17  18
ATOM     18  C   LIG    1       -5.954  -6.632  12.119  0.00  0.00    +0.147 C 
BRANCH  18  19
ATOM     19  N   LIG    1       -6.298  -6.489  10.669  0.00  0.00    -0.315 N 
ATOM     20  C   LIG    1       -6.553  -7.789  10.030  0.00  0.00    +0.131 C 
BRANCH  19  21
ATOM     21  C   LIG    1       -7.194  -5.507  10.203  0.00  0.00    +0.121 A 
ATOM     22  C   LIG    1       -6.749  -4.302   9.648  0.00  0.00    +0.043 A 
ATOM     23  C   LIG    1       -7.644  -3.341   9.172  0.00  0.00    +0.005 A 
ATOM     24  C   LIG    1       -8.994  -3.626   9.170  0.00  0.00    +0.020 A 
ATOM     25  C   LIG    1       -9.378  -4.857   9.659  0.00  0.00    +0.113 A 
ATOM     26  N   LIG    1       -8.521  -5.773  10.177  0.00  0.00    -0.240 NA
ENDBRANCH  19  21
ENDBRANCH  18  19
ENDBRANCH  17  18
ENDBRANCH  16  17
ENDBRANCH   4  16
TORSDOF 7
ENDMDL
MODEL 4
REMARK VINA RESULT:      -7.6      4.206      5.963
REMARK  Name = 
REMARK                            x       y       z     vdW  Elec       q    Type
REMARK                         _______ _______ _______ _____ _____    ______ ____
ROOT
ATOM      1  C   LIG    1       -7.839  -3.524  13.133  0.00  0.00    -0.046 A 
ATOM      2  C   LIG    1       -7.645  -2.193  12.773  0.00  0.00    +0.007 A 
ATOM      3  C   LIG    1       -8.729  -1.341  12.596  0.00  0.00    +0.046 A 
ATOM      4  C   LIG    1      -10.046  -1.797  12.723  0.00  0.00    +0.121 A 
ATOM      5  C   LIG    1      -10.251  -3.136  13.056  0.00  0.00    +0.046 A 
ATOM      6  C   LIG    1       -9.155  -3.993  13.266  0.00  0.00    +0.007 A 
ENDROOT
BRANCH   1   7
ATOM      7  C   LIG    1       -6.634  -4.410  13.350  0.00  0.00    +0.059 C 
BRANCH   7  10
ATOM      8  O   LIG    1       -3.396  -4.733  13.677  0.00  0.00    -0.274 OA
ATOM      9  C   LIG    1       -4.337  -4.683  14.458  0.00  0.00    +0.234 C 
ATOM     10  C   LIG    1       -5.580  -3.817  14.298  0.00  0.00    +0.146 C 
ATOM     11  S   LIG    1       -6.281  -3.778  15.997  0.00  0.00    -0.054 S 
ATOM     12  C   LIG    1       -5.201  -5.015  16.586  0.00  0.00    +0.279 C 
ATOM     13  O   LIG    1       -5.184  -5.416  17.734  0.00  0.00    -0.263 OA
ATOM     14  N   LIG    1       -4.360  -5.413  15.606  0.00  0.00    -0.246 N 
ATOM     15  H   LIG    1       -3.575  -5.999  15.845  0.00  0.00    +0.158 HD
ENDBRANCH   7  10
ENDBRANCH   1   7
BRANCH   4  16
ATOM     16  O   LIG    1      -11.169  -1.008  12.532  0.00  0.00    -0.490 OA
BRANCH  16  17
ATOM     17  C   LIG    1      -11.144   0.156  13.369  0.00  0.00    +0.248 C 
BRANCH  17  18
ATOM     18  C   LIG    1      -11.161   1.508  12.673  0.00  0.00    +0.147 C 
BRANCH  18  19
ATOM     19  N   LIG    1      -10.519   2.626  13.434  0.00  0.00    -0.315 N 
ATOM     20  C   LIG    1       -9.505   2.141  14.381  0.00  0.00    +0.131 C 
BRANCH  19  21
ATOM     21  C   LIG    1      -10.103   3.818  12.808  0.00  0.00    +0.121 A 
ATOM     22  C   LIG    1       -9.069   4.605  13.329  0.00  0.00    +0.043 A 
ATOM     23  C   LIG    1       -8.650   5.776  12.692  0.00  0.00    +0.005 A 
ATOM     24  C   LIG    1       -9.209   6.115  11.478  0.00  0.00    +0.020 A 
ATOM     25  C   LIG    1      -10.172   5.268  10.970  0.00  0.00    +0.113 A 
ATOM     26  N   LIG    1      -10.627   4.161  11.608  0.00  0.00    -0.240 NA
ENDBRANCH  19  21
ENDBRANCH  18  19
ENDBRANCH  17  18
ENDBRANCH  16  17
ENDBRANCH   4  16
TORSDOF 7
ENDMDL
MODEL 5
REMARK VINA RESULT:      -7.3      3.774      6.127
REMARK  Name = 
REMARK                            x       y       z     vdW  Elec       q    Type
REMARK                         _______ _______ _______ _____ _____    ______ ____
ROOT
ATOM      1  C   LIG    1       -9.611  -1.841  12.124  0.00  0.00    -0.046 A 
ATOM      2  C   LIG    1      -10.394  -2.646  12.947  0.00  0.00    +0.007 A 
ATOM      3  C   LIG    1      -10.575  -3.993  12.658  0.00  0.00    +0.046 A 
ATOM      4  C   LIG    1      -10.024  -4.575  11.510  0.00  0.00    +0.121 A 
ATOM      5  C   LIG    1       -9.261  -3.770  10.664  0.00  0.00    +0.046 A 
ATOM      6  C   LIG    1       -9.050  -2.413  10.972  0.00  0.00    +0.007 A 
ENDROOT
BRANCH   1   7
ATOM      7  C   LIG    1       -9.409  -0.388  12.492  0.00  0.00    +0.059 C 
BRANCH   7  10
ATOM      8  O   LIG    1      -12.646  -0.128  12.111  0.00  0.00    -0.274 OA
ATOM      9  C   LIG    1      -11.765   0.624  12.509  0.00  0.00    +0.234 C 
ATOM     10  C   LIG    1      -10.549   0.212  13.328  0.00  0.00    +0.146 C 
ATOM     11  S   LIG    1       -9.971   1.805  14.042  0.00  0.00    -0.054 S 
ATOM     12  C   LIG    1      -11.041   2.761  13.048  0.00  0.00    +0.279 C 
ATOM     13  O   LIG    1      -11.122   3.974  13.104  0.00  0.00    -0.263 OA
ATOM     14  N   LIG    1      -11.794   1.961  12.262  0.00  0.00    -0.246 N 
ATOM     15  H   LIG    1      -12.570   2.363  11.759  0.00  0.00    +0.158 HD
ENDBRANCH   7  10
ENDBRANCH   1   7
BRANCH   4  16
ATOM     16  O   LIG    1      -10.191  -5.902  11.149  0.00  0.00    -0.490 OA
BRANCH  16  17
ATOM     17  C   LIG    1       -9.048  -6.404  10.443  0.00  0.00    +0.248 C 
BRANCH  17  18
ATOM     18  C   LIG    1       -8.087  -7.288  11.224  0.00  0.00    +0.147 C 
BRANCH  18  19
ATOM     19  N   LIG    1       -6.833  -6.616  11.688  0.00  0.00    -0.315 N 
ATOM     20  C   LIG    1       -5.942  -6.273  10.570  0.00  0.00    +0.131 C 
BRANCH  19  21
ATOM     21  C   LIG    1       -6.843  -5.597  12.662  0.00  0.00    +0.121 A 
ATOM     22  C   LIG    1       -6.202  -4.371  12.457  0.00  0.00    +0.043 A 
ATOM     23  C   LIG    1       -6.231  -3.360  13.420  0.00  0.00    +0.005 A 
ATOM     24  C   LIG    1       -6.984  -3.544  14.561  0.00  0.00    +0.020 A 
ATOM     25  C   LIG    1       -7.659  -4.741  14.684  0.00  0.00    +0.113 A 
ATOM     26  N   LIG    1       -7.589  -5.751  13.781  0.00  0.00    -0.240 NA
ENDBRANCH  19  21
ENDBRANCH  18  19
ENDBRANCH  17  18
ENDBRANCH  16  17
ENDBRANCH   4  16
TORSDOF 7
ENDMDL
MODEL 6
REMARK VINA RESULT:      -7.0      4.633      6.956
REMARK  Name = 
REMARK                            x       y       z     vdW  Elec       q    Type
REMARK                         _______ _______ _______ _____ _____    ______ ____
ROOT
ATOM      1  C   LIG    1       -8.691  -3.318  11.384  0.00  0.00    -0.046 A 
ATOM      2  C   LIG    1       -9.793  -3.732  12.128  0.00  0.00    +0.007 A 
ATOM      3  C   LIG    1      -10.611  -2.803  12.760  0.00  0.00    +0.046 A 
ATOM      4  C   LIG    1      -10.331  -1.432  12.715  0.00  0.00    +0.121 A 
ATOM      5  C   LIG    1       -9.214  -1.010  11.995  0.00  0.00    +0.046 A 
ATOM      6  C   LIG    1       -8.402  -1.946  11.328  0.00  0.00    +0.007 A 
ENDROOT
BRANCH   1   7
ATOM      7  C   LIG    1       -7.845  -4.357  10.682  0.00  0.00    +0.059 C 
BRANCH   7  10
ATOM      8  O   LIG    1       -4.851  -4.829  11.907  0.00  0.00    -0.274 OA
ATOM      9  C   LIG    1       -5.713  -5.563  11.440  0.00  0.00    +0.234 C 
ATOM     10  C   LIG    1       -7.216  -5.395  11.622  0.00  0.00    +0.146 C 
ATOM     11  S   LIG    1       -7.875  -7.054  11.183  0.00  0.00    -0.054 S 
ATOM     12  C   LIG    1       -6.343  -7.616  10.562  0.00  0.00    +0.279 C 
ATOM     13  O   LIG    1       -6.154  -8.734  10.124  0.00  0.00    -0.263 OA
ATOM     14  N   LIG    1       -5.401  -6.656  10.694  0.00  0.00    -0.246 N 
ATOM     15  H   LIG    1       -4.435  -6.897  10.533  0.00  0.00    +0.158 HD
ENDBRANCH   7  10
ENDBRANCH   1   7
BRANCH   4  16
ATOM     16  O   LIG    1      -11.088  -0.458  13.346  0.00  0.00    -0.490 OA
BRANCH  16  17
ATOM     17  C   LIG    1      -10.351   0.761  13.507  0.00  0.00    +0.248 C 
BRANCH  17  18
ATOM     18  C   LIG    1      -10.907   2.000  12.822  0.00  0.00    +0.147 C 
BRANCH  18  19
ATOM     19  N   LIG    1      -10.379   3.304  13.333  0.00  0.00    -0.315 N 
ATOM     20  C   LIG    1       -9.361   3.118  14.377  0.00  0.00    +0.131 C 
BRANCH  19  21
ATOM     21  C   LIG    1      -10.037   4.366  12.471  0.00  0.00    +0.121 A 
ATOM     22  C   LIG    1       -9.067   5.314  12.814  0.00  0.00    +0.043 A 
ATOM     23  C   LIG    1       -8.721   6.353  11.947  0.00  0.00    +0.005 A 
ATOM     24  C   LIG    1       -9.287   6.392  10.690  0.00  0.00    +0.020 A 
ATOM     25  C   LIG    1      -10.184   5.393  10.372  0.00  0.00    +0.113 A 
ATOM     26  N   LIG    1      -10.569   4.414  11.228  0.00  0.00    -0.240 NA
ENDBRANCH  19  21
ENDBRANCH  18  19
ENDBRANCH  17  18
ENDBRANCH  16  17
ENDBRANCH   4  16
TORSDOF 7
ENDMDL
MODEL 7
REMARK VINA RESULT:      -6.9      2.241      4.188
REMARK  Name = 
REMARK                            x       y       z     vdW  Elec       q    Type
REMARK                         _______ _______ _______ _____ _____    ______ ____
ROOT
ATOM      1  C   LIG    1       -7.211  -3.504  14.367  0.00  0.00    -0.046 A 
ATOM      2  C   LIG    1       -8.364  -4.209  14.031  0.00  0.00    +0.007 A 
ATOM      3  C   LIG    1       -9.020  -3.965  12.830  0.00  0.00    +0.046 A 
ATOM      4  C   LIG    1       -8.580  -2.975  11.944  0.00  0.00    +0.121 A 
ATOM      5  C   LIG    1       -7.442  -2.244  12.285  0.00  0.00    +0.046 A 
ATOM      6  C   LIG    1       -6.757  -2.511  13.485  0.00  0.00    +0.007 A 
ENDROOT
BRANCH   1   7
ATOM      7  C   LIG    1       -6.506  -3.823  15.666  0.00  0.00    +0.059 C 
BRANCH   7  10
ATOM      8  O   LIG    1       -3.434  -4.236  16.706  0.00  0.00    -0.274 OA
ATOM      9  C   LIG    1       -4.029  -4.486  15.665  0.00  0.00    +0.234 C 
ATOM     10  C   LIG    1       -5.474  -4.955  15.559  0.00  0.00    +0.146 C 
ATOM     11  S   LIG    1       -5.558  -5.662  13.864  0.00  0.00    -0.054 S 
ATOM     12  C   LIG    1       -3.990  -5.041  13.413  0.00  0.00    +0.279 C 
ATOM     13  O   LIG    1       -3.468  -5.229  12.331  0.00  0.00    -0.263 OA
ATOM     14  N   LIG    1       -3.429  -4.381  14.449  0.00  0.00    -0.246 N 
ATOM     15  H   LIG    1       -2.458  -4.114  14.389  0.00  0.00    +0.158 HD
ENDBRANCH   7  10
ENDBRANCH   1   7
BRANCH   4  16
ATOM     16  O   LIG    1       -9.204  -2.662  10.747  0.00  0.00    -0.490 OA
BRANCH  16  17
ATOM     17  C   LIG    1       -8.257  -2.259   9.749  0.00  0.00    +0.248 C 
BRANCH  17  18
ATOM     18  C   LIG    1       -7.467  -3.362   9.060  0.00  0.00    +0.147 C 
BRANCH  18  19
ATOM     19  N   LIG    1       -8.102  -4.717   9.090  0.00  0.00    -0.315 N 
ATOM     20  C   LIG    1       -8.517  -5.163   7.751  0.00  0.00    +0.131 C 
BRANCH  19  21
ATOM     21  C   LIG    1       -7.564  -5.783   9.838  0.00  0.00    +0.121 A 
ATOM     22  C   LIG    1       -8.364  -6.594  10.651  0.00  0.00    +0.043 A 
ATOM     23  C   LIG    1       -7.826  -7.659  11.376  0.00  0.00    +0.005 A 
ATOM     24  C   LIG    1       -6.492  -7.972  11.217  0.00  0.00    +0.020 A 
ATOM     25  C   LIG    1       -5.761  -7.188  10.348  0.00  0.00    +0.113 A 
ATOM     26  N   LIG    1       -6.262  -6.116   9.684  0.00  0.00    -0.240 NA
ENDBRANCH  19  21
ENDBRANCH  18  19
ENDBRANCH  17  18
ENDBRANCH  16  17
ENDBRANCH   4  16
TORSDOF 7
ENDMDL
MODEL 8
REMARK VINA RESULT:      -6.8      6.704      9.343
REMARK  Name = 
REMARK                            x       y       z     vdW  Elec       q    Type
REMARK                         _______ _______ _______ _____ _____    ______ ____
ROOT
ATOM      1  C   LIG    1      -10.189   4.020  13.232  0.00  0.00    -0.046 A 
ATOM      2  C   LIG    1       -9.512   3.264  14.186  0.00  0.00    +0.007 A 
ATOM      3  C   LIG    1       -9.711   1.892  14.275  0.00  0.00    +0.046 A 
ATOM      4  C   LIG    1      -10.629   1.231  13.450  0.00  0.00    +0.121 A 
ATOM      5  C   LIG    1      -11.332   1.984  12.510  0.00  0.00    +0.046 A 
ATOM      6  C   LIG    1      -11.109   3.368  12.396  0.00  0.00    +0.007 A 
ENDROOT
BRANCH   1   7
ATOM      7  C   LIG    1       -9.919   5.505  13.142  0.00  0.00    +0.059 C 
BRANCH   7  10
ATOM      8  O   LIG    1       -7.053   7.068  13.339  0.00  0.00    -0.274 OA
ATOM      9  C   LIG    1       -7.990   7.088  12.551  0.00  0.00    +0.234 C 
ATOM     10  C   LIG    1       -8.825   5.885  12.133  0.00  0.00    +0.146 C 
ATOM     11  S   LIG    1       -9.636   6.461  10.586  0.00  0.00    -0.054 S 
ATOM     12  C   LIG    1       -9.125   8.115  10.807  0.00  0.00    +0.279 C 
ATOM     13  O   LIG    1       -9.367   9.014  10.025  0.00  0.00    -0.263 OA
ATOM     14  N   LIG    1       -8.384   8.233  11.931  0.00  0.00    -0.246 N 
ATOM     15  H   LIG    1       -7.884   9.093  12.097  0.00  0.00    +0.158 HD
ENDBRANCH   7  10
ENDBRANCH   1   7
BRANCH   4  16
ATOM     16  O   LIG    1      -10.896  -0.127  13.508  0.00  0.00    -0.490 OA
BRANCH  16  17
ATOM     17  C   LIG    1      -10.051  -0.869  12.617  0.00  0.00    +0.248 C 
BRANCH  17  18
ATOM     18  C   LIG    1      -10.093  -2.385  12.727  0.00  0.00    +0.147 C 
BRANCH  18  19
ATOM     19  N   LIG    1       -8.767  -3.071  12.619  0.00  0.00    -0.315 N 
ATOM     20  C   LIG    1       -8.608  -4.130  13.626  0.00  0.00    +0.131 C 
BRANCH  19  21
ATOM     21  C   LIG    1       -8.222  -3.461  11.379  0.00  0.00    +0.121 A 
ATOM     22  C   LIG    1       -8.394  -2.694  10.221  0.00  0.00    +0.043 A 
ATOM     23  C   LIG    1       -7.836  -3.079   9.000  0.00  0.00    +0.005 A 
ATOM     24  C   LIG    1       -7.025  -4.194   8.956  0.00  0.00    +0.020 A 
ATOM     25  C   LIG    1       -6.826  -4.875  10.139  0.00  0.00    +0.113 A 
ATOM     26  N   LIG    1       -7.411  -4.542  11.317  0.00  0.00    -0.240 NA
ENDBRANCH  19  21
ENDBRANCH  18  19
ENDBRANCH  17  18
ENDBRANCH  16  17
ENDBRANCH   4  16
TORSDOF 7
ENDMDL
MODEL 9
REMARK VINA RESULT:      -6.7      6.685      9.355
REMARK  Name = 
REMARK                            x       y       z     vdW  Elec       q    Type
REMARK                         _______ _______ _______ _____ _____    ______ ____
ROOT
ATOM      1  C   LIG    1      -10.195   3.944  13.257  0.00  0.00    -0.046 A 
ATOM      2  C   LIG    1      -11.102   3.346  12.385  0.00  0.00    +0.007 A 
ATOM      3  C   LIG    1      -11.362   1.983  12.456  0.00  0.00    +0.046 A 
ATOM      4  C   LIG    1      -10.691   1.157  13.365  0.00  0.00    +0.121 A 
ATOM      5  C   LIG    1       -9.761   1.741  14.224  0.00  0.00    +0.046 A 
ATOM      6  C   LIG    1       -9.518   3.126  14.176  0.00  0.00    +0.007 A 
ENDROOT
BRANCH   1   7
ATOM      7  C   LIG    1       -9.966   5.436  13.172  0.00  0.00    +0.059 C 
BRANCH   7  10
ATOM      8  O   LIG    1       -7.081   6.959  13.393  0.00  0.00    -0.274 OA
ATOM      9  C   LIG    1       -8.029   7.023  12.620  0.00  0.00    +0.234 C 
ATOM     10  C   LIG    1       -8.883   5.848  12.163  0.00  0.00    +0.146 C 
ATOM     11  S   LIG    1       -9.710   6.498  10.655  0.00  0.00    -0.054 S 
ATOM     12  C   LIG    1       -9.179   8.136  10.940  0.00  0.00    +0.279 C 
ATOM     13  O   LIG    1       -9.422   9.071  10.201  0.00  0.00    -0.263 OA
ATOM     14  N   LIG    1       -8.420   8.197  12.056  0.00  0.00    -0.246 N 
ATOM     15  H   LIG    1       -7.908   9.044  12.251  0.00  0.00    +0.158 HD
ENDBRANCH   7  10
ENDBRANCH   1   7
BRANCH   4  16
ATOM     16  O   LIG    1      -10.882  -0.211  13.467  0.00  0.00    -0.490 OA
BRANCH  16  17
ATOM     17  C   LIG    1       -9.922  -0.937  12.687  0.00  0.00    +0.248 C 
BRANCH  17  18
ATOM     18  C   LIG    1      -10.102  -2.445  12.599  0.00  0.00    +0.147 C 
BRANCH  18  19
ATOM     19  N   LIG    1       -8.888  -3.210  12.172  0.00  0.00    -0.315 N 
ATOM     20  C   LIG    1       -8.224  -2.593  11.013  0.00  0.00    +0.131 C 
BRANCH  19  21
ATOM     21  C   LIG    1       -7.946  -3.701  13.097  0.00  0.00    +0.121 A 
ATOM     22  C   LIG    1       -6.592  -3.353  13.030  0.00  0.00    +0.043 A 
ATOM     23  C   LIG    1       -5.667  -3.830  13.962  0.00  0.00    +0.005 A 
ATOM     24  C   LIG    1       -6.116  -4.589  15.022  0.00  0.00    +0.020 A 
ATOM     25  C   LIG    1       -7.470  -4.843  15.086  0.00  0.00    +0.113 A 
ATOM     26  N   LIG    1       -8.368  -4.434  14.154  0.00  0.00    -0.240 NA
ENDBRANCH  19  21
ENDBRANCH  18  19
ENDBRANCH  17  18
ENDBRANCH  16  17
ENDBRANCH   4  16
TORSDOF 7
ENDMDL
