MODEL 1
REMARK VINA RESULT:      -8.4      0.000      0.000
REMARK  Name = 
REMARK                            x       y       z     vdW  Elec       q    Type
REMARK                         _______ _______ _______ _____ _____    ______ ____
ROOT
ATOM      1  C   LIG    1       60.151  46.619  29.402  0.00  0.00    -0.046 A 
ATOM      2  C   LIG    1       60.966  47.745  29.320  0.00  0.00    +0.007 A 
ATOM      3  C   LIG    1       62.343  47.616  29.183  0.00  0.00    +0.046 A 
ATOM      4  C   LIG    1       62.962  46.361  29.174  0.00  0.00    +0.121 A 
ATOM      5  C   LIG    1       62.157  45.228  29.284  0.00  0.00    +0.046 A 
ATOM      6  C   LIG    1       60.760  45.355  29.391  0.00  0.00    +0.007 A 
ENDROOT
BRANCH   1   7
ATOM      7  C   LIG    1       58.654  46.801  29.515  0.00  0.00    +0.059 C 
BRANCH   7  10
ATOM      8  O   LIG    1       56.435  45.576  27.449  0.00  0.00    -0.274 OA
ATOM      9  C   LIG    1       56.549  45.607  28.668  0.00  0.00    +0.234 C 
ATOM     10  C   LIG    1       57.855  45.491  29.442  0.00  0.00    +0.146 C 
ATOM     11  S   LIG    1       57.296  45.054  31.138  0.00  0.00    -0.054 S 
ATOM     12  C   LIG    1       55.616  45.363  30.779  0.00  0.00    +0.279 C 
ATOM     13  O   LIG    1       54.709  45.209  31.574  0.00  0.00    -0.263 OA
ATOM     14  N   LIG    1       55.471  45.737  29.488  0.00  0.00    -0.246 N 
ATOM     15  H   LIG    1       54.544  45.786  29.096  0.00  0.00    +0.158 HD
ENDBRANCH   7  10
ENDBRANCH   1   7
BRANCH   4  16
ATOM     16  O   LIG    1       64.330  46.165  29.070  0.00  0.00    -0.490 OA
BRANCH  16  17
ATOM     17  C   LIG    1       64.821  45.313  30.114  0.00  0.00    +0.248 C 
BRANCH  17  18
ATOM     18  C   LIG    1       65.164  45.974  31.441  0.00  0.00    +0.147 C 
BRANCH  18  19
ATOM     19  N   LIG    1       64.583  45.314  32.652  0.00  0.00    -0.315 N 
ATOM     20  C   LIG    1       65.624  44.776  33.542  0.00  0.00    +0.131 C 
BRANCH  19  21
ATOM     21  C   LIG    1       63.531  45.892  33.390  0.00  0.00    +0.121 A 
ATOM     22  C   LIG    1       62.352  46.331  32.778  0.00  0.00    +0.043 A 
ATOM     23  C   LIG    1       61.306  46.886  33.519  0.00  0.00    +0.005 A 
ATOM     24  C   LIG    1       61.404  46.921  34.894  0.00  0.00    +0.020 A 
ATOM     25  C   LIG    1       62.556  46.409  35.456  0.00  0.00    +0.113 A 
ATOM     26  N   LIG    1       63.601  45.921  34.742  0.00  0.00    -0.240 NA
ENDBRANCH  19  21
ENDBRANCH  18  19
ENDBRANCH  17  18
ENDBRANCH  16  17
ENDBRANCH   4  16
TORSDOF 7
ENDMDL
MODEL 2
REMARK VINA RESULT:      -8.4      1.452      1.658
REMARK  Name = 
REMARK                            x       y       z     vdW  Elec       q    Type
REMARK                         _______ _______ _______ _____ _____    ______ ____
ROOT
ATOM      1  C   LIG    1       59.575  46.245  28.890  0.00  0.00    -0.046 A 
ATOM      2  C   LIG    1       60.134  47.494  28.629  0.00  0.00    +0.007 A 
ATOM      3  C   LIG    1       61.498  47.707  28.784  0.00  0.00    +0.046 A 
ATOM      4  C   LIG    1       62.347  46.697  29.254  0.00  0.00    +0.121 A 
ATOM      5  C   LIG    1       61.792  45.452  29.544  0.00  0.00    +0.046 A 
ATOM      6  C   LIG    1       60.416  45.224  29.358  0.00  0.00    +0.007 A 
ENDROOT
BRANCH   1   7
ATOM      7  C   LIG    1       58.092  46.044  28.675  0.00  0.00    +0.059 C 
BRANCH   7  10
ATOM      8  O   LIG    1       57.787  45.395  31.865  0.00  0.00    -0.274 OA
ATOM      9  C   LIG    1       56.998  45.611  30.953  0.00  0.00    +0.234 C 
ATOM     10  C   LIG    1       57.212  46.592  29.808  0.00  0.00    +0.146 C 
ATOM     11  S   LIG    1       55.512  46.846  29.156  0.00  0.00    -0.054 S 
ATOM     12  C   LIG    1       54.838  45.550  30.110  0.00  0.00    +0.279 C 
ATOM     13  O   LIG    1       53.661  45.244  30.110  0.00  0.00    -0.263 OA
ATOM     14  N   LIG    1       55.794  44.984  30.879  0.00  0.00    -0.246 N 
ATOM     15  H   LIG    1       55.518  44.337  31.601  0.00  0.00    +0.158 HD
ENDBRANCH   7  10
ENDBRANCH   1   7
BRANCH   4  16
ATOM     16  O   LIG    1       63.709  46.853  29.458  0.00  0.00    -0.490 OA
BRANCH  16  17
ATOM     17  C   LIG    1       64.251  45.778  30.237  0.00  0.00    +0.248 C 
BRANCH  17  18
ATOM     18  C   LIG    1       64.669  46.101  31.664  0.00  0.00    +0.147 C 
BRANCH  18  19
ATOM     19  N   LIG    1       63.742  45.605  32.729  0.00  0.00    -0.315 N 
ATOM     20  C   LIG    1       64.203  44.340  33.320  0.00  0.00    +0.131 C 
BRANCH  19  21
ATOM     21  C   LIG    1       63.201  46.459  33.711  0.00  0.00    +0.121 A 
ATOM     22  C   LIG    1       61.834  46.469  34.011  0.00  0.00    +0.043 A 
ATOM     23  C   LIG    1       61.308  47.306  34.998  0.00  0.00    +0.005 A 
ATOM     24  C   LIG    1       62.170  48.074  35.753  0.00  0.00    +0.020 A 
ATOM     25  C   LIG    1       63.516  47.974  35.469  0.00  0.00    +0.113 A 
ATOM     26  N   LIG    1       64.030  47.208  34.474  0.00  0.00    -0.240 NA
ENDBRANCH  19  21
ENDBRANCH  18  19
ENDBRANCH  17  18
ENDBRANCH  16  17
ENDBRANCH   4  16
TORSDOF 7
ENDMDL
MODEL 3
REMARK VINA RESULT:      -8.2      2.043      2.663
REMARK  Name = 
REMARK                            x       y       z     vdW  Elec       q    Type
REMARK                         _______ _______ _______ _____ _____    ______ ____
ROOT
ATOM      1  C   LIG    1       59.486  46.415  28.601  0.00  0.00    -0.046 A 
ATOM      2  C   LIG    1       59.982  47.096  29.710  0.00  0.00    +0.007 A 
ATOM      3  C   LIG    1       61.312  47.494  29.762  0.00  0.00    +0.046 A 
ATOM      4  C   LIG    1       62.209  47.185  28.732  0.00  0.00    +0.121 A 
ATOM      5  C   LIG    1       61.728  46.479  27.629  0.00  0.00    +0.046 A 
ATOM      6  C   LIG    1       60.374  46.102  27.560  0.00  0.00    +0.007 A 
ENDROOT
BRANCH   1   7
ATOM      7  C   LIG    1       58.025  46.030  28.567  0.00  0.00    +0.059 C 
BRANCH   7  10
ATOM      8  O   LIG    1       57.837  45.238  31.733  0.00  0.00    -0.274 OA
ATOM      9  C   LIG    1       57.017  45.519  30.868  0.00  0.00    +0.234 C 
ATOM     10  C   LIG    1       57.210  46.547  29.762  0.00  0.00    +0.146 C 
ATOM     11  S   LIG    1       55.492  46.877  29.197  0.00  0.00    -0.054 S 
ATOM     12  C   LIG    1       54.822  45.556  30.118  0.00  0.00    +0.279 C 
ATOM     13  O   LIG    1       53.637  45.282  30.156  0.00  0.00    -0.263 OA
ATOM     14  N   LIG    1       55.793  44.928  30.818  0.00  0.00    -0.246 N 
ATOM     15  H   LIG    1       55.529  44.255  31.521  0.00  0.00    +0.158 HD
ENDBRANCH   7  10
ENDBRANCH   1   7
BRANCH   4  16
ATOM     16  O   LIG    1       63.552  47.526  28.735  0.00  0.00    -0.490 OA
BRANCH  16  17
ATOM     17  C   LIG    1       64.375  46.431  28.311  0.00  0.00    +0.248 C 
BRANCH  17  18
ATOM     18  C   LIG    1       64.934  45.525  29.397  0.00  0.00    +0.147 C 
BRANCH  18  19
ATOM     19  N   LIG    1       63.910  44.847  30.253  0.00  0.00    -0.315 N 
ATOM     20  C   LIG    1       63.306  43.688  29.580  0.00  0.00    +0.131 C 
BRANCH  19  21
ATOM     21  C   LIG    1       64.129  44.586  31.621  0.00  0.00    +0.121 A 
ATOM     22  C   LIG    1       64.288  43.284  32.109  0.00  0.00    +0.043 A 
ATOM     23  C   LIG    1       64.521  43.035  33.464  0.00  0.00    +0.005 A 
ATOM     24  C   LIG    1       64.686  44.102  34.322  0.00  0.00    +0.020 A 
ATOM     25  C   LIG    1       64.593  45.366  33.780  0.00  0.00    +0.113 A 
ATOM     26  N   LIG    1       64.309  45.618  32.477  0.00  0.00    -0.240 NA
ENDBRANCH  19  21
ENDBRANCH  18  19
ENDBRANCH  17  18
ENDBRANCH  16  17
ENDBRANCH   4  16
TORSDOF 7
ENDMDL
MODEL 4
REMARK VINA RESULT:      -8.1      1.316      1.603
REMARK  Name = 
REMARK                            x       y       z     vdW  Elec       q    Type
REMARK                         _______ _______ _______ _____ _____    ______ ____
ROOT
ATOM      1  C   LIG    1       59.405  46.680  29.112  0.00  0.00    -0.046 A 
ATOM      2  C   LIG    1       60.027  46.807  27.872  0.00  0.00    +0.007 A 
ATOM      3  C   LIG    1       61.337  46.379  27.688  0.00  0.00    +0.046 A 
ATOM      4  C   LIG    1       62.090  45.855  28.745  0.00  0.00    +0.121 A 
ATOM      5  C   LIG    1       61.485  45.749  29.997  0.00  0.00    +0.046 A 
ATOM      6  C   LIG    1       60.150  46.153  30.179  0.00  0.00    +0.007 A 
ENDROOT
BRANCH   1   7
ATOM      7  C   LIG    1       57.969  47.125  29.263  0.00  0.00    +0.059 C 
BRANCH   7  10
ATOM      8  O   LIG    1       55.001  47.389  27.917  0.00  0.00    -0.274 OA
ATOM      9  C   LIG    1       55.506  46.637  28.741  0.00  0.00    +0.234 C 
ATOM     10  C   LIG    1       56.940  46.125  28.715  0.00  0.00    +0.146 C 
ATOM     11  S   LIG    1       56.883  44.672  29.840  0.00  0.00    -0.054 S 
ATOM     12  C   LIG    1       55.277  45.045  30.414  0.00  0.00    +0.279 C 
ATOM     13  O   LIG    1       54.665  44.367  31.216  0.00  0.00    -0.263 OA
ATOM     14  N   LIG    1       54.802  46.151  29.799  0.00  0.00    -0.246 N 
ATOM     15  H   LIG    1       53.828  46.387  29.907  0.00  0.00    +0.158 HD
ENDBRANCH   7  10
ENDBRANCH   1   7
BRANCH   4  16
ATOM     16  O   LIG    1       63.407  45.438  28.635  0.00  0.00    -0.490 OA
BRANCH  16  17
ATOM     17  C   LIG    1       64.263  46.154  29.534  0.00  0.00    +0.248 C 
BRANCH  17  18
ATOM     18  C   LIG    1       65.024  45.334  30.565  0.00  0.00    +0.147 C 
BRANCH  18  19
ATOM     19  N   LIG    1       64.178  44.694  31.622  0.00  0.00    -0.315 N 
ATOM     20  C   LIG    1       64.332  43.232  31.644  0.00  0.00    +0.131 C 
BRANCH  19  21
ATOM     21  C   LIG    1       64.085  45.217  32.928  0.00  0.00    +0.121 A 
ATOM     22  C   LIG    1       62.997  45.994  33.338  0.00  0.00    +0.043 A 
ATOM     23  C   LIG    1       62.904  46.494  34.639  0.00  0.00    +0.005 A 
ATOM     24  C   LIG    1       63.864  46.138  35.563  0.00  0.00    +0.020 A 
ATOM     25  C   LIG    1       64.877  45.309  35.130  0.00  0.00    +0.113 A 
ATOM     26  N   LIG    1       65.008  44.866  33.854  0.00  0.00    -0.240 NA
ENDBRANCH  19  21
ENDBRANCH  18  19
ENDBRANCH  17  18
ENDBRANCH  16  17
ENDBRANCH   4  16
TORSDOF 7
ENDMDL
MODEL 5
REMARK VINA RESULT:      -7.4      2.039      2.939
REMARK  Name = 
REMARK                            x       y       z     vdW  Elec       q    Type
REMARK                         _______ _______ _______ _____ _____    ______ ____
ROOT
ATOM      1  C   LIG    1       62.145  45.810  28.296  0.00  0.00    -0.046 A 
ATOM      2  C   LIG    1       62.191  44.623  29.024  0.00  0.00    +0.007 A 
ATOM      3  C   LIG    1       63.363  44.221  29.652  0.00  0.00    +0.046 A 
ATOM      4  C   LIG    1       64.546  44.960  29.536  0.00  0.00    +0.121 A 
ATOM      5  C   LIG    1       64.517  46.136  28.786  0.00  0.00    +0.046 A 
ATOM      6  C   LIG    1       63.324  46.562  28.175  0.00  0.00    +0.007 A 
ENDROOT
BRANCH   1   7
ATOM      7  C   LIG    1       60.842  46.232  27.657  0.00  0.00    +0.059 C 
BRANCH   7  10
ATOM      8  O   LIG    1       61.287  47.975  30.386  0.00  0.00    -0.274 OA
ATOM      9  C   LIG    1       60.441  47.176  30.007  0.00  0.00    +0.234 C 
ATOM     10  C   LIG    1       59.921  47.042  28.581  0.00  0.00    +0.146 C 
ATOM     11  S   LIG    1       58.349  46.114  28.798  0.00  0.00    -0.054 S 
ATOM     12  C   LIG    1       58.669  45.752  30.475  0.00  0.00    +0.279 C 
ATOM     13  O   LIG    1       57.909  45.136  31.197  0.00  0.00    -0.263 OA
ATOM     14  N   LIG    1       59.843  46.301  30.860  0.00  0.00    -0.246 N 
ATOM     15  H   LIG    1       60.075  46.317  31.841  0.00  0.00    +0.158 HD
ENDBRANCH   7  10
ENDBRANCH   1   7
BRANCH   4  16
ATOM     16  O   LIG    1       65.753  44.600  30.112  0.00  0.00    -0.490 OA
BRANCH  16  17
ATOM     17  C   LIG    1       66.078  45.442  31.226  0.00  0.00    +0.248 C 
BRANCH  17  18
ATOM     18  C   LIG    1       65.925  44.841  32.615  0.00  0.00    +0.147 C 
BRANCH  18  19
ATOM     19  N   LIG    1       64.514  44.599  33.054  0.00  0.00    -0.315 N 
ATOM     20  C   LIG    1       64.327  43.242  33.590  0.00  0.00    +0.131 C 
BRANCH  19  21
ATOM     21  C   LIG    1       63.787  45.547  33.801  0.00  0.00    +0.121 A 
ATOM     22  C   LIG    1       64.229  46.004  35.047  0.00  0.00    +0.043 A 
ATOM     23  C   LIG    1       63.510  46.957  35.773  0.00  0.00    +0.005 A 
ATOM     24  C   LIG    1       62.387  47.523  35.207  0.00  0.00    +0.020 A 
ATOM     25  C   LIG    1       62.034  47.094  33.945  0.00  0.00    +0.113 A 
ATOM     26  N   LIG    1       62.691  46.127  33.257  0.00  0.00    -0.240 NA
ENDBRANCH  19  21
ENDBRANCH  18  19
ENDBRANCH  17  18
ENDBRANCH  16  17
ENDBRANCH   4  16
TORSDOF 7
ENDMDL
MODEL 6
REMARK VINA RESULT:      -7.1      3.384      6.541
REMARK  Name = 
REMARK                            x       y       z     vdW  Elec       q    Type
REMARK                         _______ _______ _______ _____ _____    ______ ____
ROOT
ATOM      1  C   LIG    1       61.318  46.647  32.079  0.00  0.00    -0.046 A 
ATOM      2  C   LIG    1       60.185  46.086  31.494  0.00  0.00    +0.007 A 
ATOM      3  C   LIG    1       59.754  46.502  30.240  0.00  0.00    +0.046 A 
ATOM      4  C   LIG    1       60.408  47.527  29.545  0.00  0.00    +0.121 A 
ATOM      5  C   LIG    1       61.527  48.114  30.134  0.00  0.00    +0.046 A 
ATOM      6  C   LIG    1       61.984  47.673  31.390  0.00  0.00    +0.007 A 
ENDROOT
BRANCH   1   7
ATOM      7  C   LIG    1       61.774  46.143  33.429  0.00  0.00    +0.059 C 
BRANCH   7  10
ATOM      8  O   LIG    1       64.175  43.926  33.541  0.00  0.00    -0.274 OA
ATOM      9  C   LIG    1       63.895  44.923  34.196  0.00  0.00    +0.234 C 
ATOM     10  C   LIG    1       63.294  46.208  33.643  0.00  0.00    +0.146 C 
ATOM     11  S   LIG    1       63.644  47.434  34.968  0.00  0.00    -0.054 S 
ATOM     12  C   LIG    1       64.171  46.216  36.102  0.00  0.00    +0.279 C 
ATOM     13  O   LIG    1       64.574  46.457  37.224  0.00  0.00    -0.263 OA
ATOM     14  N   LIG    1       64.119  44.990  35.535  0.00  0.00    -0.246 N 
ATOM     15  H   LIG    1       64.549  44.214  36.014  0.00  0.00    +0.158 HD
ENDBRANCH   7  10
ENDBRANCH   1   7
BRANCH   4  16
ATOM     16  O   LIG    1       60.014  48.007  28.307  0.00  0.00    -0.490 OA
BRANCH  16  17
ATOM     17  C   LIG    1       61.050  47.855  27.328  0.00  0.00    +0.248 C 
BRANCH  17  18
ATOM     18  C   LIG    1       61.619  46.457  27.134  0.00  0.00    +0.147 C 
BRANCH  18  19
ATOM     19  N   LIG    1       63.080  46.316  27.426  0.00  0.00    -0.315 N 
ATOM     20  C   LIG    1       63.770  47.615  27.444  0.00  0.00    +0.131 C 
BRANCH  19  21
ATOM     21  C   LIG    1       63.565  45.469  28.443  0.00  0.00    +0.121 A 
ATOM     22  C   LIG    1       62.861  44.333  28.857  0.00  0.00    +0.043 A 
ATOM     23  C   LIG    1       63.356  43.488  29.853  0.00  0.00    +0.005 A 
ATOM     24  C   LIG    1       64.609  43.733  30.377  0.00  0.00    +0.020 A 
ATOM     25  C   LIG    1       65.295  44.823  29.883  0.00  0.00    +0.113 A 
ATOM     26  N   LIG    1       64.798  45.682  28.958  0.00  0.00    -0.240 NA
ENDBRANCH  19  21
ENDBRANCH  18  19
ENDBRANCH  17  18
ENDBRANCH  16  17
ENDBRANCH   4  16
TORSDOF 7
ENDMDL
MODEL 7
REMARK VINA RESULT:      -7.1      1.702      3.441
REMARK  Name = 
REMARK                            x       y       z     vdW  Elec       q    Type
REMARK                         _______ _______ _______ _____ _____    ______ ____
ROOT
ATOM      1  C   LIG    1       59.795  46.848  30.116  0.00  0.00    -0.046 A 
ATOM      2  C   LIG    1       59.904  46.193  31.341  0.00  0.00    +0.007 A 
ATOM      3  C   LIG    1       61.076  46.265  32.083  0.00  0.00    +0.046 A 
ATOM      4  C   LIG    1       62.201  46.951  31.608  0.00  0.00    +0.121 A 
ATOM      5  C   LIG    1       62.112  47.586  30.370  0.00  0.00    +0.046 A 
ATOM      6  C   LIG    1       60.915  47.541  29.631  0.00  0.00    +0.007 A 
ENDROOT
BRANCH   1   7
ATOM      7  C   LIG    1       58.491  46.775  29.355  0.00  0.00    +0.059 C 
BRANCH   7  10
ATOM      8  O   LIG    1       56.471  45.083  27.420  0.00  0.00    -0.274 OA
ATOM      9  C   LIG    1       56.512  45.320  28.620  0.00  0.00    +0.234 C 
ATOM     10  C   LIG    1       57.776  45.420  29.464  0.00  0.00    +0.146 C 
ATOM     11  S   LIG    1       57.145  45.230  31.180  0.00  0.00    -0.054 S 
ATOM     12  C   LIG    1       55.474  45.362  30.695  0.00  0.00    +0.279 C 
ATOM     13  O   LIG    1       54.533  45.280  31.461  0.00  0.00    -0.263 OA
ATOM     14  N   LIG    1       55.383  45.509  29.355  0.00  0.00    -0.246 N 
ATOM     15  H   LIG    1       54.478  45.431  28.917  0.00  0.00    +0.158 HD
ENDBRANCH   7  10
ENDBRANCH   1   7
BRANCH   4  16
ATOM     16  O   LIG    1       63.407  47.036  32.284  0.00  0.00    -0.490 OA
BRANCH  16  17
ATOM     17  C   LIG    1       63.814  45.761  32.799  0.00  0.00    +0.248 C 
BRANCH  17  18
ATOM     18  C   LIG    1       65.066  45.140  32.198  0.00  0.00    +0.147 C 
BRANCH  18  19
ATOM     19  N   LIG    1       64.826  44.179  31.076  0.00  0.00    -0.315 N 
ATOM     20  C   LIG    1       64.194  42.934  31.539  0.00  0.00    +0.131 C 
BRANCH  19  21
ATOM     21  C   LIG    1       64.296  44.588  29.836  0.00  0.00    +0.121 A 
ATOM     22  C   LIG    1       63.122  44.035  29.314  0.00  0.00    +0.043 A 
ATOM     23  C   LIG    1       62.594  44.459  28.092  0.00  0.00    +0.005 A 
ATOM     24  C   LIG    1       63.197  45.508  27.430  0.00  0.00    +0.020 A 
ATOM     25  C   LIG    1       64.310  46.069  28.021  0.00  0.00    +0.113 A 
ATOM     26  N   LIG    1       64.864  45.626  29.178  0.00  0.00    -0.240 NA
ENDBRANCH  19  21
ENDBRANCH  18  19
ENDBRANCH  17  18
ENDBRANCH  16  17
ENDBRANCH   4  16
TORSDOF 7
ENDMDL
MODEL 8
REMARK VINA RESULT:      -7.0      2.073      4.024
REMARK  Name = 
REMARK                            x       y       z     vdW  Elec       q    Type
REMARK                         _______ _______ _______ _____ _____    ______ ____
ROOT
ATOM      1  C   LIG    1       60.014  46.300  32.771  0.00  0.00    -0.046 A 
ATOM      2  C   LIG    1       60.028  46.313  34.164  0.00  0.00    +0.007 A 
ATOM      3  C   LIG    1       61.180  46.663  34.859  0.00  0.00    +0.046 A 
ATOM      4  C   LIG    1       62.373  46.963  34.192  0.00  0.00    +0.121 A 
ATOM      5  C   LIG    1       62.377  46.925  32.798  0.00  0.00    +0.046 A 
ATOM      6  C   LIG    1       61.204  46.603  32.091  0.00  0.00    +0.007 A 
ENDROOT
BRANCH   1   7
ATOM      7  C   LIG    1       58.732  45.949  32.051  0.00  0.00    +0.059 C 
BRANCH   7  10
ATOM      8  O   LIG    1       59.744  47.370  29.286  0.00  0.00    -0.274 OA
ATOM      9  C   LIG    1       58.846  46.588  29.570  0.00  0.00    +0.234 C 
ATOM     10  C   LIG    1       58.934  45.473  30.604  0.00  0.00    +0.146 C 
ATOM     11  S   LIG    1       57.531  44.375  30.151  0.00  0.00    -0.054 S 
ATOM     12  C   LIG    1       56.863  45.519  29.016  0.00  0.00    +0.279 C 
ATOM     13  O   LIG    1       55.869  45.314  28.345  0.00  0.00    -0.263 OA
ATOM     14  N   LIG    1       57.635  46.626  28.952  0.00  0.00    -0.246 N 
ATOM     15  H   LIG    1       57.465  47.297  28.220  0.00  0.00    +0.158 HD
ENDBRANCH   7  10
ENDBRANCH   1   7
BRANCH   4  16
ATOM     16  O   LIG    1       63.562  47.290  34.825  0.00  0.00    -0.490 OA
BRANCH  16  17
ATOM     17  C   LIG    1       64.004  46.237  35.692  0.00  0.00    +0.248 C 
BRANCH  17  18
ATOM     18  C   LIG    1       64.689  45.046  35.039  0.00  0.00    +0.147 C 
BRANCH  18  19
ATOM     19  N   LIG    1       65.506  45.364  33.826  0.00  0.00    -0.315 N 
ATOM     20  C   LIG    1       66.950  45.285  34.095  0.00  0.00    +0.131 C 
BRANCH  19  21
ATOM     21  C   LIG    1       65.196  44.846  32.553  0.00  0.00    +0.121 A 
ATOM     22  C   LIG    1       65.790  45.340  31.388  0.00  0.00    +0.043 A 
ATOM     23  C   LIG    1       65.490  44.809  30.131  0.00  0.00    +0.005 A 
ATOM     24  C   LIG    1       64.655  43.714  30.049  0.00  0.00    +0.020 A 
ATOM     25  C   LIG    1       64.152  43.216  31.233  0.00  0.00    +0.113 A 
ATOM     26  N   LIG    1       64.391  43.762  32.453  0.00  0.00    -0.240 NA
ENDBRANCH  19  21
ENDBRANCH  18  19
ENDBRANCH  17  18
ENDBRANCH  16  17
ENDBRANCH   4  16
TORSDOF 7
ENDMDL
MODEL 9
REMARK VINA RESULT:      -7.0      3.065      6.877
REMARK  Name = 
REMARK                            x       y       z     vdW  Elec       q    Type
REMARK                         _______ _______ _______ _____ _____    ______ ____
ROOT
ATOM      1  C   LIG    1       65.192  45.043  30.718  0.00  0.00    -0.046 A 
ATOM      2  C   LIG    1       64.879  43.821  30.126  0.00  0.00    +0.007 A 
ATOM      3  C   LIG    1       63.931  43.745  29.113  0.00  0.00    +0.046 A 
ATOM      4  C   LIG    1       63.224  44.876  28.687  0.00  0.00    +0.121 A 
ATOM      5  C   LIG    1       63.510  46.099  29.292  0.00  0.00    +0.046 A 
ATOM      6  C   LIG    1       64.492  46.185  30.296  0.00  0.00    +0.007 A 
ENDROOT
BRANCH   1   7
ATOM      7  C   LIG    1       66.254  45.090  31.792  0.00  0.00    +0.059 C 
BRANCH   7  10
ATOM      8  O   LIG    1       64.296  42.956  33.310  0.00  0.00    -0.274 OA
ATOM      9  C   LIG    1       64.402  44.176  33.312  0.00  0.00    +0.234 C 
ATOM     10  C   LIG    1       65.708  44.954  33.222  0.00  0.00    +0.146 C 
ATOM     11  S   LIG    1       65.238  46.625  33.827  0.00  0.00    -0.054 S 
ATOM     12  C   LIG    1       63.531  46.266  33.815  0.00  0.00    +0.279 C 
ATOM     13  O   LIG    1       62.667  47.047  34.167  0.00  0.00    -0.263 OA
ATOM     14  N   LIG    1       63.319  44.992  33.418  0.00  0.00    -0.246 N 
ATOM     15  H   LIG    1       62.398  44.596  33.523  0.00  0.00    +0.158 HD
ENDBRANCH   7  10
ENDBRANCH   1   7
BRANCH   4  16
ATOM     16  O   LIG    1       62.247  44.863  27.704  0.00  0.00    -0.490 OA
BRANCH  16  17
ATOM     17  C   LIG    1       61.866  46.191  27.323  0.00  0.00    +0.248 C 
BRANCH  17  18
ATOM     18  C   LIG    1       60.389  46.541  27.422  0.00  0.00    +0.147 C 
BRANCH  18  19
ATOM     19  N   LIG    1       59.864  46.706  28.815  0.00  0.00    -0.315 N 
ATOM     20  C   LIG    1       59.825  48.117  29.229  0.00  0.00    +0.131 C 
BRANCH  19  21
ATOM     21  C   LIG    1       58.730  46.008  29.277  0.00  0.00    +0.121 A 
ATOM     22  C   LIG    1       58.695  45.410  30.542  0.00  0.00    +0.043 A 
ATOM     23  C   LIG    1       57.561  44.735  31.000  0.00  0.00    +0.005 A 
ATOM     24  C   LIG    1       56.422  44.734  30.222  0.00  0.00    +0.020 A 
ATOM     25  C   LIG    1       56.484  45.400  29.015  0.00  0.00    +0.113 A 
ATOM     26  N   LIG    1       57.598  46.008  28.536  0.00  0.00    -0.240 NA
ENDBRANCH  19  21
ENDBRANCH  18  19
ENDBRANCH  17  18
ENDBRANCH  16  17
ENDBRANCH   4  16
TORSDOF 7
ENDMDL
