MODEL 1
REMARK VINA RESULT:      -9.3      0.000      0.000
REMARK  Name = 
REMARK                            x       y       z     vdW  Elec       q    Type
REMARK                         _______ _______ _______ _____ _____    ______ ____
ROOT
ATOM      1  C   LIG    1       43.199  -2.129  17.714  0.00  0.00    -0.046 A 
ATOM      2  C   LIG    1       42.543  -2.749  16.653  0.00  0.00    +0.007 A 
ATOM      3  C   LIG    1       41.285  -2.320  16.250  0.00  0.00    +0.046 A 
ATOM      4  C   LIG    1       40.613  -1.292  16.921  0.00  0.00    +0.121 A 
ATOM      5  C   LIG    1       41.249  -0.683  18.001  0.00  0.00    +0.046 A 
ATOM      6  C   LIG    1       42.537  -1.094  18.393  0.00  0.00    +0.007 A 
ENDROOT
BRANCH   1   7
ATOM      7  C   LIG    1       44.583  -2.601  18.101  0.00  0.00    +0.059 C 
BRANCH   7  10
ATOM      8  O   LIG    1       44.598  -5.582  16.759  0.00  0.00    -0.274 OA
ATOM      9  C   LIG    1       45.466  -4.780  17.078  0.00  0.00    +0.234 C 
ATOM     10  C   LIG    1       45.363  -3.265  16.957  0.00  0.00    +0.146 C 
ATOM     11  S   LIG    1       47.116  -2.721  17.054  0.00  0.00    -0.054 S 
ATOM     12  C   LIG    1       47.692  -4.300  17.522  0.00  0.00    +0.279 C 
ATOM     13  O   LIG    1       48.862  -4.569  17.717  0.00  0.00    -0.263 OA
ATOM     14  N   LIG    1       46.667  -5.179  17.577  0.00  0.00    -0.246 N 
ATOM     15  H   LIG    1       46.872  -6.161  17.670  0.00  0.00    +0.158 HD
ENDBRANCH   7  10
ENDBRANCH   1   7
BRANCH   4  16
ATOM     16  O   LIG    1       39.347  -0.838  16.588  0.00  0.00    -0.490 OA
BRANCH  16  17
ATOM     17  C   LIG    1       39.283  -0.410  15.220  0.00  0.00    +0.248 C 
BRANCH  17  18
ATOM     18  C   LIG    1       38.029   0.335  14.787  0.00  0.00    +0.147 C 
BRANCH  18  19
ATOM     19  N   LIG    1       38.117   1.827  14.855  0.00  0.00    -0.315 N 
ATOM     20  C   LIG    1       38.233   2.436  13.521  0.00  0.00    +0.131 C 
BRANCH  19  21
ATOM     21  C   LIG    1       37.281   2.592  15.692  0.00  0.00    +0.121 A 
ATOM     22  C   LIG    1       37.029   2.226  17.019  0.00  0.00    +0.043 A 
ATOM     23  C   LIG    1       36.213   2.999  17.848  0.00  0.00    +0.005 A 
ATOM     24  C   LIG    1       35.716   4.195  17.373  0.00  0.00    +0.020 A 
ATOM     25  C   LIG    1       36.053   4.548  16.083  0.00  0.00    +0.113 A 
ATOM     26  N   LIG    1       36.797   3.776  15.251  0.00  0.00    -0.240 NA
ENDBRANCH  19  21
ENDBRANCH  18  19
ENDBRANCH  17  18
ENDBRANCH  16  17
ENDBRANCH   4  16
TORSDOF 7
ENDMDL
MODEL 2
REMARK VINA RESULT:      -9.3      1.792      3.358
REMARK  Name = 
REMARK                            x       y       z     vdW  Elec       q    Type
REMARK                         _______ _______ _______ _____ _____    ______ ____
ROOT
ATOM      1  C   LIG    1       42.705  -2.449  17.155  0.00  0.00    -0.046 A 
ATOM      2  C   LIG    1       42.771  -1.448  18.121  0.00  0.00    +0.007 A 
ATOM      3  C   LIG    1       41.683  -0.618  18.359  0.00  0.00    +0.046 A 
ATOM      4  C   LIG    1       40.506  -0.722  17.608  0.00  0.00    +0.121 A 
ATOM      5  C   LIG    1       40.439  -1.703  16.620  0.00  0.00    +0.046 A 
ATOM      6  C   LIG    1       41.529  -2.566  16.398  0.00  0.00    +0.007 A 
ENDROOT
BRANCH   1   7
ATOM      7  C   LIG    1       43.898  -3.354  16.950  0.00  0.00    +0.059 C 
BRANCH   7  10
ATOM      8  O   LIG    1       45.799  -2.485  14.436  0.00  0.00    -0.274 OA
ATOM      9  C   LIG    1       46.007  -2.953  15.547  0.00  0.00    +0.234 C 
ATOM     10  C   LIG    1       45.235  -2.610  16.815  0.00  0.00    +0.146 C 
ATOM     11  S   LIG    1       46.358  -3.184  18.153  0.00  0.00    -0.054 S 
ATOM     12  C   LIG    1       47.427  -4.010  17.048  0.00  0.00    +0.279 C 
ATOM     13  O   LIG    1       48.437  -4.598  17.386  0.00  0.00    -0.263 OA
ATOM     14  N   LIG    1       47.002  -3.853  15.775  0.00  0.00    -0.246 N 
ATOM     15  H   LIG    1       47.609  -4.133  15.020  0.00  0.00    +0.158 HD
ENDBRANCH   7  10
ENDBRANCH   1   7
BRANCH   4  16
ATOM     16  O   LIG    1       39.397   0.092  17.775  0.00  0.00    -0.490 OA
BRANCH  16  17
ATOM     17  C   LIG    1       39.526   1.316  17.039  0.00  0.00    +0.248 C 
BRANCH  17  18
ATOM     18  C   LIG    1       38.253   1.905  16.450  0.00  0.00    +0.147 C 
BRANCH  18  19
ATOM     19  N   LIG    1       38.054   1.661  14.987  0.00  0.00    -0.315 N 
ATOM     20  C   LIG    1       38.395   2.840  14.177  0.00  0.00    +0.131 C 
BRANCH  19  21
ATOM     21  C   LIG    1       38.477   0.472  14.359  0.00  0.00    +0.121 A 
ATOM     22  C   LIG    1       37.660  -0.662  14.296  0.00  0.00    +0.043 A 
ATOM     23  C   LIG    1       38.080  -1.831  13.656  0.00  0.00    +0.005 A 
ATOM     24  C   LIG    1       39.292  -1.836  12.998  0.00  0.00    +0.020 A 
ATOM     25  C   LIG    1       40.029  -0.670  13.027  0.00  0.00    +0.113 A 
ATOM     26  N   LIG    1       39.655   0.451  13.694  0.00  0.00    -0.240 NA
ENDBRANCH  19  21
ENDBRANCH  18  19
ENDBRANCH  17  18
ENDBRANCH  16  17
ENDBRANCH   4  16
TORSDOF 7
ENDMDL
MODEL 3
REMARK VINA RESULT:      -9.2      2.203      4.107
REMARK  Name = 
REMARK                            x       y       z     vdW  Elec       q    Type
REMARK                         _______ _______ _______ _____ _____    ______ ____
ROOT
ATOM      1  C   LIG    1       40.723  -1.301  16.938  0.00  0.00    -0.046 A 
ATOM      2  C   LIG    1       40.856   0.084  17.006  0.00  0.00    +0.007 A 
ATOM      3  C   LIG    1       39.735   0.905  17.023  0.00  0.00    +0.046 A 
ATOM      4  C   LIG    1       38.442   0.378  16.921  0.00  0.00    +0.121 A 
ATOM      5  C   LIG    1       38.299  -1.005  16.825  0.00  0.00    +0.046 A 
ATOM      6  C   LIG    1       39.431  -1.841  16.839  0.00  0.00    +0.007 A 
ENDROOT
BRANCH   1   7
ATOM      7  C   LIG    1       41.966  -2.161  16.958  0.00  0.00    +0.059 C 
BRANCH   7  10
ATOM      8  O   LIG    1       44.393  -1.660  14.825  0.00  0.00    -0.274 OA
ATOM      9  C   LIG    1       44.340  -1.892  16.026  0.00  0.00    +0.234 C 
ATOM     10  C   LIG    1       43.280  -1.367  16.986  0.00  0.00    +0.146 C 
ATOM     11  S   LIG    1       44.063  -1.594  18.634  0.00  0.00    -0.054 S 
ATOM     12  C   LIG    1       45.382  -2.541  17.994  0.00  0.00    +0.279 C 
ATOM     13  O   LIG    1       46.295  -2.982  18.667  0.00  0.00    -0.263 OA
ATOM     14  N   LIG    1       45.271  -2.660  16.653  0.00  0.00    -0.246 N 
ATOM     15  H   LIG    1       46.046  -3.037  16.131  0.00  0.00    +0.158 HD
ENDBRANCH   7  10
ENDBRANCH   1   7
BRANCH   4  16
ATOM     16  O   LIG    1       37.286   1.142  16.903  0.00  0.00    -0.490 OA
BRANCH  16  17
ATOM     17  C   LIG    1       37.371   2.204  15.943  0.00  0.00    +0.248 C 
BRANCH  17  18
ATOM     18  C   LIG    1       36.907   1.894  14.527  0.00  0.00    +0.147 C 
BRANCH  18  19
ATOM     19  N   LIG    1       38.000   1.619  13.542  0.00  0.00    -0.315 N 
ATOM     20  C   LIG    1       38.969   2.723  13.468  0.00  0.00    +0.131 C 
BRANCH  19  21
ATOM     21  C   LIG    1       38.645   0.369  13.465  0.00  0.00    +0.121 A 
ATOM     22  C   LIG    1       37.932  -0.822  13.292  0.00  0.00    +0.043 A 
ATOM     23  C   LIG    1       38.581  -2.056  13.200  0.00  0.00    +0.005 A 
ATOM     24  C   LIG    1       39.959  -2.089  13.191  0.00  0.00    +0.020 A 
ATOM     25  C   LIG    1       40.618  -0.881  13.290  0.00  0.00    +0.113 A 
ATOM     26  N   LIG    1       39.997   0.316  13.439  0.00  0.00    -0.240 NA
ENDBRANCH  19  21
ENDBRANCH  18  19
ENDBRANCH  17  18
ENDBRANCH  16  17
ENDBRANCH   4  16
TORSDOF 7
ENDMDL
MODEL 4
REMARK VINA RESULT:      -9.0      1.885      3.349
REMARK  Name = 
REMARK                            x       y       z     vdW  Elec       q    Type
REMARK                         _______ _______ _______ _____ _____    ______ ____
ROOT
ATOM      1  C   LIG    1       42.616  -0.778  17.166  0.00  0.00    -0.046 A 
ATOM      2  C   LIG    1       41.898  -0.840  18.358  0.00  0.00    +0.007 A 
ATOM      3  C   LIG    1       40.628  -0.285  18.450  0.00  0.00    +0.046 A 
ATOM      4  C   LIG    1       40.047   0.395  17.373  0.00  0.00    +0.121 A 
ATOM      5  C   LIG    1       40.769   0.487  16.184  0.00  0.00    +0.046 A 
ATOM      6  C   LIG    1       42.043  -0.101  16.078  0.00  0.00    +0.007 A 
ENDROOT
BRANCH   1   7
ATOM      7  C   LIG    1       43.981  -1.424  17.095  0.00  0.00    +0.059 C 
BRANCH   7  10
ATOM      8  O   LIG    1       45.120  -2.066  20.091  0.00  0.00    -0.274 OA
ATOM      9  C   LIG    1       45.217  -2.613  19.001  0.00  0.00    +0.234 C 
ATOM     10  C   LIG    1       44.121  -2.694  17.947  0.00  0.00    +0.146 C 
ATOM     11  S   LIG    1       44.688  -4.065  16.861  0.00  0.00    -0.054 S 
ATOM     12  C   LIG    1       46.263  -4.148  17.609  0.00  0.00    +0.279 C 
ATOM     13  O   LIG    1       47.126  -4.946  17.297  0.00  0.00    -0.263 OA
ATOM     14  N   LIG    1       46.357  -3.246  18.611  0.00  0.00    -0.246 N 
ATOM     15  H   LIG    1       47.144  -3.295  19.238  0.00  0.00    +0.158 HD
ENDBRANCH   7  10
ENDBRANCH   1   7
BRANCH   4  16
ATOM     16  O   LIG    1       38.798   0.995  17.409  0.00  0.00    -0.490 OA
BRANCH  16  17
ATOM     17  C   LIG    1       38.829   2.311  16.841  0.00  0.00    +0.248 C 
BRANCH  17  18
ATOM     18  C   LIG    1       37.513   2.870  16.321  0.00  0.00    +0.147 C 
BRANCH  18  19
ATOM     19  N   LIG    1       37.205   2.555  14.891  0.00  0.00    -0.315 N 
ATOM     20  C   LIG    1       37.543   3.670  13.993  0.00  0.00    +0.131 C 
BRANCH  19  21
ATOM     21  C   LIG    1       37.531   1.314  14.308  0.00  0.00    +0.121 A 
ATOM     22  C   LIG    1       38.548   1.189  13.356  0.00  0.00    +0.043 A 
ATOM     23  C   LIG    1       38.877  -0.048  12.796  0.00  0.00    +0.005 A 
ATOM     24  C   LIG    1       38.242  -1.182  13.257  0.00  0.00    +0.020 A 
ATOM     25  C   LIG    1       37.298  -1.016  14.249  0.00  0.00    +0.113 A 
ATOM     26  N   LIG    1       36.931   0.187  14.758  0.00  0.00    -0.240 NA
ENDBRANCH  19  21
ENDBRANCH  18  19
ENDBRANCH  17  18
ENDBRANCH  16  17
ENDBRANCH   4  16
TORSDOF 7
ENDMDL
MODEL 5
REMARK VINA RESULT:      -8.8      1.808      2.364
REMARK  Name = 
REMARK                            x       y       z     vdW  Elec       q    Type
REMARK                         _______ _______ _______ _____ _____    ______ ____
ROOT
ATOM      1  C   LIG    1       41.803  -2.486  15.807  0.00  0.00    -0.046 A 
ATOM      2  C   LIG    1       40.587  -3.158  15.702  0.00  0.00    +0.007 A 
ATOM      3  C   LIG    1       39.600  -2.708  14.833  0.00  0.00    +0.046 A 
ATOM      4  C   LIG    1       39.769  -1.545  14.074  0.00  0.00    +0.121 A 
ATOM      5  C   LIG    1       40.972  -0.849  14.192  0.00  0.00    +0.046 A 
ATOM      6  C   LIG    1       41.986  -1.319  15.048  0.00  0.00    +0.007 A 
ENDROOT
BRANCH   1   7
ATOM      7  C   LIG    1       42.865  -3.026  16.737  0.00  0.00    +0.059 C 
BRANCH   7  10
ATOM      8  O   LIG    1       44.096  -5.911  15.814  0.00  0.00    -0.274 OA
ATOM      9  C   LIG    1       44.561  -4.907  16.338  0.00  0.00    +0.234 C 
ATOM     10  C   LIG    1       44.152  -3.473  16.029  0.00  0.00    +0.146 C 
ATOM     11  S   LIG    1       45.555  -2.489  16.695  0.00  0.00    -0.054 S 
ATOM     12  C   LIG    1       46.272  -3.859  17.503  0.00  0.00    +0.279 C 
ATOM     13  O   LIG    1       47.310  -3.813  18.136  0.00  0.00    -0.263 OA
ATOM     14  N   LIG    1       45.543  -4.975  17.276  0.00  0.00    -0.246 N 
ATOM     15  H   LIG    1       45.927  -5.869  17.540  0.00  0.00    +0.158 HD
ENDBRANCH   7  10
ENDBRANCH   1   7
BRANCH   4  16
ATOM     16  O   LIG    1       38.815  -1.027  13.213  0.00  0.00    -0.490 OA
BRANCH  16  17
ATOM     17  C   LIG    1       38.431   0.302  13.589  0.00  0.00    +0.248 C 
BRANCH  17  18
ATOM     18  C   LIG    1       37.228   0.438  14.511  0.00  0.00    +0.147 C 
BRANCH  18  19
ATOM     19  N   LIG    1       37.339   1.508  15.552  0.00  0.00    -0.315 N 
ATOM     20  C   LIG    1       38.496   1.303  16.436  0.00  0.00    +0.131 C 
BRANCH  19  21
ATOM     21  C   LIG    1       37.167   2.874  15.247  0.00  0.00    +0.121 A 
ATOM     22  C   LIG    1       36.416   3.296  14.145  0.00  0.00    +0.043 A 
ATOM     23  C   LIG    1       36.236   4.652  13.860  0.00  0.00    +0.005 A 
ATOM     24  C   LIG    1       36.737   5.593  14.735  0.00  0.00    +0.020 A 
ATOM     25  C   LIG    1       37.406   5.125  15.847  0.00  0.00    +0.113 A 
ATOM     26  N   LIG    1       37.637   3.812  16.102  0.00  0.00    -0.240 NA
ENDBRANCH  19  21
ENDBRANCH  18  19
ENDBRANCH  17  18
ENDBRANCH  16  17
ENDBRANCH   4  16
TORSDOF 7
ENDMDL
MODEL 6
REMARK VINA RESULT:      -8.8      3.892      9.479
REMARK  Name = 
REMARK                            x       y       z     vdW  Elec       q    Type
REMARK                         _______ _______ _______ _____ _____    ______ ____
ROOT
ATOM      1  C   LIG    1       38.263   1.191  13.754  0.00  0.00    -0.046 A 
ATOM      2  C   LIG    1       37.325   0.325  14.311  0.00  0.00    +0.007 A 
ATOM      3  C   LIG    1       37.647  -1.002  14.568  0.00  0.00    +0.046 A 
ATOM      4  C   LIG    1       38.901  -1.527  14.233  0.00  0.00    +0.121 A 
ATOM      5  C   LIG    1       39.838  -0.676  13.650  0.00  0.00    +0.046 A 
ATOM      6  C   LIG    1       39.525   0.676  13.417  0.00  0.00    +0.007 A 
ENDROOT
BRANCH   1   7
ATOM      7  C   LIG    1       37.885   2.636  13.522  0.00  0.00    +0.059 C 
BRANCH   7  10
ATOM      8  O   LIG    1       35.408   4.766  13.412  0.00  0.00    -0.274 OA
ATOM      9  C   LIG    1       36.334   4.566  14.188  0.00  0.00    +0.234 C 
ATOM     10  C   LIG    1       36.902   3.202  14.558  0.00  0.00    +0.146 C 
ATOM     11  S   LIG    1       37.826   3.545  16.110  0.00  0.00    -0.054 S 
ATOM     12  C   LIG    1       37.670   5.276  15.947  0.00  0.00    +0.279 C 
ATOM     13  O   LIG    1       38.100   6.079  16.753  0.00  0.00    -0.263 OA
ATOM     14  N   LIG    1       36.962   5.582  14.837  0.00  0.00    -0.246 N 
ATOM     15  H   LIG    1       36.652   6.532  14.705  0.00  0.00    +0.158 HD
ENDBRANCH   7  10
ENDBRANCH   1   7
BRANCH   4  16
ATOM     16  O   LIG    1       39.275  -2.846  14.436  0.00  0.00    -0.490 OA
BRANCH  16  17
ATOM     17  C   LIG    1       39.891  -3.028  15.718  0.00  0.00    +0.248 C 
BRANCH  17  18
ATOM     18  C   LIG    1       41.410  -2.966  15.770  0.00  0.00    +0.147 C 
BRANCH  18  19
ATOM     19  N   LIG    1       41.977  -1.909  16.665  0.00  0.00    -0.315 N 
ATOM     20  C   LIG    1       40.930  -1.206  17.422  0.00  0.00    +0.131 C 
BRANCH  19  21
ATOM     21  C   LIG    1       43.119  -2.131  17.460  0.00  0.00    +0.121 A 
ATOM     22  C   LIG    1       43.987  -3.203  17.226  0.00  0.00    +0.043 A 
ATOM     23  C   LIG    1       45.126  -3.405  18.008  0.00  0.00    +0.005 A 
ATOM     24  C   LIG    1       45.448  -2.477  18.976  0.00  0.00    +0.020 A 
ATOM     25  C   LIG    1       44.600  -1.398  19.120  0.00  0.00    +0.113 A 
ATOM     26  N   LIG    1       43.461  -1.224  18.405  0.00  0.00    -0.240 NA
ENDBRANCH  19  21
ENDBRANCH  18  19
ENDBRANCH  17  18
ENDBRANCH  16  17
ENDBRANCH   4  16
TORSDOF 7
ENDMDL
MODEL 7
REMARK VINA RESULT:      -8.8      2.279      2.926
REMARK  Name = 
REMARK                            x       y       z     vdW  Elec       q    Type
REMARK                         _______ _______ _______ _____ _____    ______ ____
ROOT
ATOM      1  C   LIG    1       42.222  -2.617  15.650  0.00  0.00    -0.046 A 
ATOM      2  C   LIG    1       42.271  -1.499  14.821  0.00  0.00    +0.007 A 
ATOM      3  C   LIG    1       41.118  -1.012  14.217  0.00  0.00    +0.046 A 
ATOM      4  C   LIG    1       39.883  -1.651  14.377  0.00  0.00    +0.121 A 
ATOM      5  C   LIG    1       39.829  -2.788  15.183  0.00  0.00    +0.046 A 
ATOM      6  C   LIG    1       40.989  -3.264  15.822  0.00  0.00    +0.007 A 
ENDROOT
BRANCH   1   7
ATOM      7  C   LIG    1       43.492  -3.095  16.317  0.00  0.00    +0.059 C 
BRANCH   7  10
ATOM      8  O   LIG    1       46.710  -2.551  16.517  0.00  0.00    -0.274 OA
ATOM      9  C   LIG    1       45.766  -2.410  17.284  0.00  0.00    +0.234 C 
ATOM     10  C   LIG    1       44.362  -1.967  16.893  0.00  0.00    +0.146 C 
ATOM     11  S   LIG    1       43.635  -1.430  18.494  0.00  0.00    -0.054 S 
ATOM     12  C   LIG    1       44.957  -2.075  19.433  0.00  0.00    +0.279 C 
ATOM     13  O   LIG    1       45.041  -1.988  20.643  0.00  0.00    -0.263 OA
ATOM     14  N   LIG    1       45.887  -2.626  18.621  0.00  0.00    -0.246 N 
ATOM     15  H   LIG    1       46.779  -2.888  19.010  0.00  0.00    +0.158 HD
ENDBRANCH   7  10
ENDBRANCH   1   7
BRANCH   4  16
ATOM     16  O   LIG    1       38.704  -1.235  13.780  0.00  0.00    -0.490 OA
BRANCH  16  17
ATOM     17  C   LIG    1       37.782  -0.711  14.745  0.00  0.00    +0.248 C 
BRANCH  17  18
ATOM     18  C   LIG    1       37.176   0.654  14.451  0.00  0.00    +0.147 C 
BRANCH  18  19
ATOM     19  N   LIG    1       37.404   1.694  15.503  0.00  0.00    -0.315 N 
ATOM     20  C   LIG    1       38.634   1.445  16.270  0.00  0.00    +0.131 C 
BRANCH  19  21
ATOM     21  C   LIG    1       37.232   3.069  15.249  0.00  0.00    +0.121 A 
ATOM     22  C   LIG    1       36.495   3.532  14.153  0.00  0.00    +0.043 A 
ATOM     23  C   LIG    1       36.314   4.898  13.918  0.00  0.00    +0.005 A 
ATOM     24  C   LIG    1       36.799   5.805  14.836  0.00  0.00    +0.020 A 
ATOM     25  C   LIG    1       37.454   5.297  15.938  0.00  0.00    +0.113 A 
ATOM     26  N   LIG    1       37.685   3.976  16.145  0.00  0.00    -0.240 NA
ENDBRANCH  19  21
ENDBRANCH  18  19
ENDBRANCH  17  18
ENDBRANCH  16  17
ENDBRANCH   4  16
TORSDOF 7
ENDMDL
MODEL 8
REMARK VINA RESULT:      -8.8      3.496     10.018
REMARK  Name = 
REMARK                            x       y       z     vdW  Elec       q    Type
REMARK                         _______ _______ _______ _____ _____    ______ ____
ROOT
ATOM      1  C   LIG    1       37.912   0.003  15.287  0.00  0.00    -0.046 A 
ATOM      2  C   LIG    1       37.936  -0.735  16.468  0.00  0.00    +0.007 A 
ATOM      3  C   LIG    1       38.779  -1.831  16.603  0.00  0.00    +0.046 A 
ATOM      4  C   LIG    1       39.593  -2.262  15.549  0.00  0.00    +0.121 A 
ATOM      5  C   LIG    1       39.556  -1.546  14.352  0.00  0.00    +0.046 A 
ATOM      6  C   LIG    1       38.726  -0.417  14.223  0.00  0.00    +0.007 A 
ENDROOT
BRANCH   1   7
ATOM      7  C   LIG    1       37.006   1.210  15.191  0.00  0.00    +0.059 C 
BRANCH   7  10
ATOM      8  O   LIG    1       36.819   3.339  17.665  0.00  0.00    -0.274 OA
ATOM      9  C   LIG    1       36.887   3.442  16.446  0.00  0.00    +0.234 C 
ATOM     10  C   LIG    1       37.697   2.541  15.523  0.00  0.00    +0.146 C 
ATOM     11  S   LIG    1       37.822   3.533  13.980  0.00  0.00    -0.054 S 
ATOM     12  C   LIG    1       36.665   4.721  14.523  0.00  0.00    +0.279 C 
ATOM     13  O   LIG    1       36.340   5.701  13.881  0.00  0.00    -0.263 OA
ATOM     14  N   LIG    1       36.234   4.424  15.769  0.00  0.00    -0.246 N 
ATOM     15  H   LIG    1       35.692   5.109  16.274  0.00  0.00    +0.158 HD
ENDBRANCH   7  10
ENDBRANCH   1   7
BRANCH   4  16
ATOM     16  O   LIG    1       40.433  -3.362  15.608  0.00  0.00    -0.490 OA
BRANCH  16  17
ATOM     17  C   LIG    1       41.769  -2.985  15.968  0.00  0.00    +0.248 C 
BRANCH  17  18
ATOM     18  C   LIG    1       42.841  -4.061  15.867  0.00  0.00    +0.147 C 
BRANCH  18  19
ATOM     19  N   LIG    1       44.241  -3.556  15.707  0.00  0.00    -0.315 N 
ATOM     20  C   LIG    1       44.279  -2.206  15.125  0.00  0.00    +0.131 C 
BRANCH  19  21
ATOM     21  C   LIG    1       45.213  -3.702  16.717  0.00  0.00    +0.121 A 
ATOM     22  C   LIG    1       45.093  -3.065  17.957  0.00  0.00    +0.043 A 
ATOM     23  C   LIG    1       46.052  -3.229  18.959  0.00  0.00    +0.005 A 
ATOM     24  C   LIG    1       47.094  -4.110  18.751  0.00  0.00    +0.020 A 
ATOM     25  C   LIG    1       47.127  -4.770  17.541  0.00  0.00    +0.113 A 
ATOM     26  N   LIG    1       46.233  -4.573  16.539  0.00  0.00    -0.240 NA
ENDBRANCH  19  21
ENDBRANCH  18  19
ENDBRANCH  17  18
ENDBRANCH  16  17
ENDBRANCH   4  16
TORSDOF 7
ENDMDL
MODEL 9
REMARK VINA RESULT:      -8.7      1.827      2.079
REMARK  Name = 
REMARK                            x       y       z     vdW  Elec       q    Type
REMARK                         _______ _______ _______ _____ _____    ______ ____
ROOT
ATOM      1  C   LIG    1       42.570  -1.425  17.515  0.00  0.00    -0.046 A 
ATOM      2  C   LIG    1       41.972  -2.221  16.540  0.00  0.00    +0.007 A 
ATOM      3  C   LIG    1       40.594  -2.209  16.361  0.00  0.00    +0.046 A 
ATOM      4  C   LIG    1       39.757  -1.442  17.179  0.00  0.00    +0.121 A 
ATOM      5  C   LIG    1       40.343  -0.663  18.176  0.00  0.00    +0.046 A 
ATOM      6  C   LIG    1       41.741  -0.649  18.340  0.00  0.00    +0.007 A 
ENDROOT
BRANCH   1   7
ATOM      7  C   LIG    1       44.075  -1.439  17.656  0.00  0.00    +0.059 C 
BRANCH   7  10
ATOM      8  O   LIG    1       46.114  -3.343  19.361  0.00  0.00    -0.274 OA
ATOM      9  C   LIG    1       46.018  -3.028  18.182  0.00  0.00    +0.234 C 
ATOM     10  C   LIG    1       44.715  -2.816  17.423  0.00  0.00    +0.146 C 
ATOM     11  S   LIG    1       45.237  -2.925  15.663  0.00  0.00    -0.054 S 
ATOM     12  C   LIG    1       46.938  -2.900  16.055  0.00  0.00    +0.279 C 
ATOM     13  O   LIG    1       47.829  -2.977  15.232  0.00  0.00    -0.263 OA
ATOM     14  N   LIG    1       47.112  -2.844  17.394  0.00  0.00    -0.246 N 
ATOM     15  H   LIG    1       48.034  -2.992  17.772  0.00  0.00    +0.158 HD
ENDBRANCH   7  10
ENDBRANCH   1   7
BRANCH   4  16
ATOM     16  O   LIG    1       38.376  -1.408  17.072  0.00  0.00    -0.490 OA
BRANCH  16  17
ATOM     17  C   LIG    1       37.952  -0.568  15.990  0.00  0.00    +0.248 C 
BRANCH  17  18
ATOM     18  C   LIG    1       37.379   0.793  16.355  0.00  0.00    +0.147 C 
BRANCH  18  19
ATOM     19  N   LIG    1       38.155   1.969  15.851  0.00  0.00    -0.315 N 
ATOM     20  C   LIG    1       39.357   1.562  15.108  0.00  0.00    +0.131 C 
BRANCH  19  21
ATOM     21  C   LIG    1       37.530   3.076  15.241  0.00  0.00    +0.121 A 
ATOM     22  C   LIG    1       36.613   2.924  14.195  0.00  0.00    +0.043 A 
ATOM     23  C   LIG    1       35.984   4.025  13.608  0.00  0.00    +0.005 A 
ATOM     24  C   LIG    1       36.208   5.281  14.132  0.00  0.00    +0.020 A 
ATOM     25  C   LIG    1       37.064   5.371  15.210  0.00  0.00    +0.113 A 
ATOM     26  N   LIG    1       37.723   4.315  15.750  0.00  0.00    -0.240 NA
ENDBRANCH  19  21
ENDBRANCH  18  19
ENDBRANCH  17  18
ENDBRANCH  16  17
ENDBRANCH   4  16
TORSDOF 7
ENDMDL
