MODEL 1
REMARK VINA RESULT:      -6.9      0.000      0.000
REMARK  Name = 
REMARK                            x       y       z     vdW  Elec       q    Type
REMARK                         _______ _______ _______ _____ _____    ______ ____
ROOT
ATOM      1  C   LIG    1       19.792  28.693   8.749  0.00  0.00    -0.046 A 
ATOM      2  C   LIG    1       18.616  28.059   9.141  0.00  0.00    +0.007 A 
ATOM      3  C   LIG    1       17.623  28.760   9.815  0.00  0.00    +0.046 A 
ATOM      4  C   LIG    1       17.788  30.104  10.167  0.00  0.00    +0.121 A 
ATOM      5  C   LIG    1       18.974  30.741   9.803  0.00  0.00    +0.046 A 
ATOM      6  C   LIG    1       19.968  30.042   9.093  0.00  0.00    +0.007 A 
ENDROOT
BRANCH   1   7
ATOM      7  C   LIG    1       20.834  27.905   7.986  0.00  0.00    +0.059 C 
BRANCH   7  10
ATOM      8  O   LIG    1       22.279  30.424   6.484  0.00  0.00    -0.274 OA
ATOM      9  C   LIG    1       22.616  29.280   6.758  0.00  0.00    +0.234 C 
ATOM     10  C   LIG    1       22.240  28.522   8.024  0.00  0.00    +0.146 C 
ATOM     11  S   LIG    1       23.472  27.158   8.074  0.00  0.00    -0.054 S 
ATOM     12  C   LIG    1       24.058  27.486   6.462  0.00  0.00    +0.279 C 
ATOM     13  O   LIG    1       24.959  26.870   5.925  0.00  0.00    -0.263 OA
ATOM     14  N   LIG    1       23.409  28.546   5.931  0.00  0.00    -0.246 N 
ATOM     15  H   LIG    1       23.756  28.951   5.076  0.00  0.00    +0.158 HD
ENDBRANCH   7  10
ENDBRANCH   1   7
BRANCH   4  16
ATOM     16  O   LIG    1       16.851  30.851  10.863  0.00  0.00    -0.490 OA
BRANCH  16  17
ATOM     17  C   LIG    1       17.477  31.756  11.783  0.00  0.00    +0.248 C 
BRANCH  17  18
ATOM     18  C   LIG    1       17.575  31.308  13.234  0.00  0.00    +0.147 C 
BRANCH  18  19
ATOM     19  N   LIG    1       18.862  30.645  13.613  0.00  0.00    -0.315 N 
ATOM     20  C   LIG    1       19.243  30.929  15.004  0.00  0.00    +0.131 C 
BRANCH  19  21
ATOM     21  C   LIG    1       19.147  29.308  13.269  0.00  0.00    +0.121 A 
ATOM     22  C   LIG    1       18.214  28.282  13.453  0.00  0.00    +0.043 A 
ATOM     23  C   LIG    1       18.498  26.962  13.094  0.00  0.00    +0.005 A 
ATOM     24  C   LIG    1       19.693  26.682  12.464  0.00  0.00    +0.020 A 
ATOM     25  C   LIG    1       20.548  27.740  12.238  0.00  0.00    +0.113 A 
ATOM     26  N   LIG    1       20.306  29.015  12.635  0.00  0.00    -0.240 NA
ENDBRANCH  19  21
ENDBRANCH  18  19
ENDBRANCH  17  18
ENDBRANCH  16  17
ENDBRANCH   4  16
TORSDOF 7
ENDMDL
MODEL 2
REMARK VINA RESULT:      -6.8      1.942      3.422
REMARK  Name = 
REMARK                            x       y       z     vdW  Elec       q    Type
REMARK                         _______ _______ _______ _____ _____    ______ ____
ROOT
ATOM      1  C   LIG    1       21.307  28.097   8.665  0.00  0.00    -0.046 A 
ATOM      2  C   LIG    1       21.190  29.337   9.287  0.00  0.00    +0.007 A 
ATOM      3  C   LIG    1       20.872  29.427  10.637  0.00  0.00    +0.046 A 
ATOM      4  C   LIG    1       20.610  28.285  11.403  0.00  0.00    +0.121 A 
ATOM      5  C   LIG    1       20.697  27.040  10.783  0.00  0.00    +0.046 A 
ATOM      6  C   LIG    1       21.050  26.944   9.424  0.00  0.00    +0.007 A 
ENDROOT
BRANCH   1   7
ATOM      7  C   LIG    1       21.689  28.040   7.203  0.00  0.00    +0.059 C 
BRANCH   7  10
ATOM      8  O   LIG    1       22.357  30.818   5.614  0.00  0.00    -0.274 OA
ATOM      9  C   LIG    1       22.855  29.699   5.634  0.00  0.00    +0.234 C 
ATOM     10  C   LIG    1       22.977  28.804   6.860  0.00  0.00    +0.146 C 
ATOM     11  S   LIG    1       24.260  27.587   6.359  0.00  0.00    -0.054 S 
ATOM     12  C   LIG    1       24.256  28.107   4.694  0.00  0.00    +0.279 C 
ATOM     13  O   LIG    1       24.977  27.641   3.831  0.00  0.00    -0.263 OA
ATOM     14  N   LIG    1       23.388  29.128   4.521  0.00  0.00    -0.246 N 
ATOM     15  H   LIG    1       23.402  29.637   3.651  0.00  0.00    +0.158 HD
ENDBRANCH   7  10
ENDBRANCH   1   7
BRANCH   4  16
ATOM     16  O   LIG    1       20.259  28.307  12.744  0.00  0.00    -0.490 OA
BRANCH  16  17
ATOM     17  C   LIG    1       19.489  29.472  13.068  0.00  0.00    +0.248 C 
BRANCH  17  18
ATOM     18  C   LIG    1       17.988  29.395  12.834  0.00  0.00    +0.147 C 
BRANCH  18  19
ATOM     19  N   LIG    1       17.437  30.408  11.879  0.00  0.00    -0.315 N 
ATOM     20  C   LIG    1       18.109  31.710  12.005  0.00  0.00    +0.131 C 
BRANCH  19  21
ATOM     21  C   LIG    1       17.171  30.100  10.530  0.00  0.00    +0.121 A 
ATOM     22  C   LIG    1       17.433  28.835   9.993  0.00  0.00    +0.043 A 
ATOM     23  C   LIG    1       17.149  28.533   8.659  0.00  0.00    +0.005 A 
ATOM     24  C   LIG    1       16.516  29.478   7.879  0.00  0.00    +0.020 A 
ATOM     25  C   LIG    1       16.211  30.685   8.474  0.00  0.00    +0.113 A 
ATOM     26  N   LIG    1       16.535  31.007   9.752  0.00  0.00    -0.240 NA
ENDBRANCH  19  21
ENDBRANCH  18  19
ENDBRANCH  17  18
ENDBRANCH  16  17
ENDBRANCH   4  16
TORSDOF 7
ENDMDL
MODEL 3
REMARK VINA RESULT:      -6.7      2.703      7.452
REMARK  Name = 
REMARK                            x       y       z     vdW  Elec       q    Type
REMARK                         _______ _______ _______ _____ _____    ______ ____
ROOT
ATOM      1  C   LIG    1       18.827  27.642  11.816  0.00  0.00    -0.046 A 
ATOM      2  C   LIG    1       20.149  27.249  11.621  0.00  0.00    +0.007 A 
ATOM      3  C   LIG    1       20.737  27.335  10.365  0.00  0.00    +0.046 A 
ATOM      4  C   LIG    1       20.013  27.768   9.247  0.00  0.00    +0.121 A 
ATOM      5  C   LIG    1       18.681  28.138   9.427  0.00  0.00    +0.046 A 
ATOM      6  C   LIG    1       18.092  28.082  10.704  0.00  0.00    +0.007 A 
ENDROOT
BRANCH   1   7
ATOM      7  C   LIG    1       18.235  27.567  13.205  0.00  0.00    +0.059 C 
BRANCH   7  10
ATOM      8  O   LIG    1       17.214  30.645  12.788  0.00  0.00    -0.274 OA
ATOM      9  C   LIG    1       18.256  30.131  13.174  0.00  0.00    +0.234 C 
ATOM     10  C   LIG    1       18.364  28.866  14.015  0.00  0.00    +0.146 C 
ATOM     11  S   LIG    1       20.070  28.962  14.693  0.00  0.00    -0.054 S 
ATOM     12  C   LIG    1       20.518  30.300  13.665  0.00  0.00    +0.279 C 
ATOM     13  O   LIG    1       21.605  30.845  13.688  0.00  0.00    -0.263 OA
ATOM     14  N   LIG    1       19.472  30.671  12.892  0.00  0.00    -0.246 N 
ATOM     15  H   LIG    1       19.533  31.532  12.373  0.00  0.00    +0.158 HD
ENDBRANCH   7  10
ENDBRANCH   1   7
BRANCH   4  16
ATOM     16  O   LIG    1       20.530  27.849   7.964  0.00  0.00    -0.490 OA
BRANCH  16  17
ATOM     17  C   LIG    1       21.964  27.800   7.970  0.00  0.00    +0.248 C 
BRANCH  17  18
ATOM     18  C   LIG    1       22.681  28.432   6.787  0.00  0.00    +0.147 C 
BRANCH  18  19
ATOM     19  N   LIG    1       23.954  27.759   6.377  0.00  0.00    -0.315 N 
ATOM     20  C   LIG    1       24.267  27.984   4.958  0.00  0.00    +0.131 C 
BRANCH  19  21
ATOM     21  C   LIG    1       25.118  27.807   7.170  0.00  0.00    +0.121 A 
ATOM     22  C   LIG    1       25.493  26.745   7.999  0.00  0.00    +0.043 A 
ATOM     23  C   LIG    1       26.658  26.793   8.768  0.00  0.00    +0.005 A 
ATOM     24  C   LIG    1       27.501  27.877   8.639  0.00  0.00    +0.020 A 
ATOM     25  C   LIG    1       27.125  28.865   7.753  0.00  0.00    +0.113 A 
ATOM     26  N   LIG    1       25.967  28.854   7.045  0.00  0.00    -0.240 NA
ENDBRANCH  19  21
ENDBRANCH  18  19
ENDBRANCH  17  18
ENDBRANCH  16  17
ENDBRANCH   4  16
TORSDOF 7
ENDMDL
MODEL 4
REMARK VINA RESULT:      -6.6      2.800      7.569
REMARK  Name = 
REMARK                            x       y       z     vdW  Elec       q    Type
REMARK                         _______ _______ _______ _____ _____    ______ ____
ROOT
ATOM      1  C   LIG    1       18.767  27.648  12.002  0.00  0.00    -0.046 A 
ATOM      2  C   LIG    1       20.078  27.224  11.801  0.00  0.00    +0.007 A 
ATOM      3  C   LIG    1       20.649  27.255  10.535  0.00  0.00    +0.046 A 
ATOM      4  C   LIG    1       19.916  27.663   9.413  0.00  0.00    +0.121 A 
ATOM      5  C   LIG    1       18.594  28.064   9.599  0.00  0.00    +0.046 A 
ATOM      6  C   LIG    1       18.024  28.063  10.886  0.00  0.00    +0.007 A 
ENDROOT
BRANCH   1   7
ATOM      7  C   LIG    1       18.194  27.632  13.401  0.00  0.00    +0.059 C 
BRANCH   7  10
ATOM      8  O   LIG    1       17.234  30.724  12.947  0.00  0.00    -0.274 OA
ATOM      9  C   LIG    1       18.277  30.193  13.307  0.00  0.00    +0.234 C 
ATOM     10  C   LIG    1       18.385  28.946  14.174  0.00  0.00    +0.146 C 
ATOM     11  S   LIG    1       20.118  29.014  14.785  0.00  0.00    -0.054 S 
ATOM     12  C   LIG    1       20.559  30.316  13.710  0.00  0.00    +0.279 C 
ATOM     13  O   LIG    1       21.659  30.834  13.680  0.00  0.00    -0.263 OA
ATOM     14  N   LIG    1       19.495  30.695  12.968  0.00  0.00    -0.246 N 
ATOM     15  H   LIG    1       19.556  31.543  12.425  0.00  0.00    +0.158 HD
ENDBRANCH   7  10
ENDBRANCH   1   7
BRANCH   4  16
ATOM     16  O   LIG    1       20.416  27.690   8.121  0.00  0.00    -0.490 OA
BRANCH  16  17
ATOM     17  C   LIG    1       21.848  27.619   8.108  0.00  0.00    +0.248 C 
BRANCH  17  18
ATOM     18  C   LIG    1       22.547  28.003   6.812  0.00  0.00    +0.147 C 
BRANCH  18  19
ATOM     19  N   LIG    1       22.642  29.474   6.550  0.00  0.00    -0.315 N 
ATOM     20  C   LIG    1       22.106  30.271   7.664  0.00  0.00    +0.131 C 
BRANCH  19  21
ATOM     21  C   LIG    1       23.802  30.067   6.011  0.00  0.00    +0.121 A 
ATOM     22  C   LIG    1       23.777  30.777   4.806  0.00  0.00    +0.043 A 
ATOM     23  C   LIG    1       24.927  31.377   4.288  0.00  0.00    +0.005 A 
ATOM     24  C   LIG    1       26.092  31.342   5.026  0.00  0.00    +0.020 A 
ATOM     25  C   LIG    1       26.047  30.694   6.242  0.00  0.00    +0.113 A 
ATOM     26  N   LIG    1       24.950  30.058   6.727  0.00  0.00    -0.240 NA
ENDBRANCH  19  21
ENDBRANCH  18  19
ENDBRANCH  17  18
ENDBRANCH  16  17
ENDBRANCH   4  16
TORSDOF 7
ENDMDL
MODEL 5
REMARK VINA RESULT:      -6.5      2.926      4.440
REMARK  Name = 
REMARK                            x       y       z     vdW  Elec       q    Type
REMARK                         _______ _______ _______ _____ _____    ______ ____
ROOT
ATOM      1  C   LIG    1       22.508  29.632   6.876  0.00  0.00    -0.046 A 
ATOM      2  C   LIG    1       22.741  28.262   6.967  0.00  0.00    +0.007 A 
ATOM      3  C   LIG    1       22.135  27.503   7.960  0.00  0.00    +0.046 A 
ATOM      4  C   LIG    1       21.314  28.090   8.930  0.00  0.00    +0.121 A 
ATOM      5  C   LIG    1       21.096  29.466   8.865  0.00  0.00    +0.046 A 
ATOM      6  C   LIG    1       21.684  30.232   7.841  0.00  0.00    +0.007 A 
ENDROOT
BRANCH   1   7
ATOM      7  C   LIG    1       23.158  30.417   5.760  0.00  0.00    +0.059 C 
BRANCH   7  10
ATOM      8  O   LIG    1       26.067  30.026   7.201  0.00  0.00    -0.274 OA
ATOM      9  C   LIG    1       25.700  30.414   6.099  0.00  0.00    +0.234 C 
ATOM     10  C   LIG    1       24.519  29.863   5.312  0.00  0.00    +0.146 C 
ATOM     11  S   LIG    1       24.852  30.448   3.601  0.00  0.00    -0.054 S 
ATOM     12  C   LIG    1       26.152  31.500   4.099  0.00  0.00    +0.279 C 
ATOM     13  O   LIG    1       26.814  32.176   3.336  0.00  0.00    -0.263 OA
ATOM     14  N   LIG    1       26.349  31.407   5.433  0.00  0.00    -0.246 N 
ATOM     15  H   LIG    1       27.171  31.828   5.835  0.00  0.00    +0.158 HD
ENDBRANCH   7  10
ENDBRANCH   1   7
BRANCH   4  16
ATOM     16  O   LIG    1       20.704  27.396   9.963  0.00  0.00    -0.490 OA
BRANCH  16  17
ATOM     17  C   LIG    1       20.585  28.203  11.142  0.00  0.00    +0.248 C 
BRANCH  17  18
ATOM     18  C   LIG    1       19.257  28.154  11.882  0.00  0.00    +0.147 C 
BRANCH  18  19
ATOM     19  N   LIG    1       18.323  29.288  11.595  0.00  0.00    -0.315 N 
ATOM     20  C   LIG    1       18.859  30.577  12.060  0.00  0.00    +0.131 C 
BRANCH  19  21
ATOM     21  C   LIG    1       17.668  29.426  10.355  0.00  0.00    +0.121 A 
ATOM     22  C   LIG    1       17.385  28.324   9.541  0.00  0.00    +0.043 A 
ATOM     23  C   LIG    1       16.719  28.468   8.322  0.00  0.00    +0.005 A 
ATOM     24  C   LIG    1       16.254  29.713   7.955  0.00  0.00    +0.020 A 
ATOM     25  C   LIG    1       16.494  30.756   8.826  0.00  0.00    +0.113 A 
ATOM     26  N   LIG    1       17.190  30.637   9.984  0.00  0.00    -0.240 NA
ENDBRANCH  19  21
ENDBRANCH  18  19
ENDBRANCH  17  18
ENDBRANCH  16  17
ENDBRANCH   4  16
TORSDOF 7
ENDMDL
MODEL 6
REMARK VINA RESULT:      -6.4      1.718      3.252
REMARK  Name = 
REMARK                            x       y       z     vdW  Elec       q    Type
REMARK                         _______ _______ _______ _____ _____    ______ ____
ROOT
ATOM      1  C   LIG    1       20.118  27.639   9.510  0.00  0.00    -0.046 A 
ATOM      2  C   LIG    1       20.959  27.347  10.582  0.00  0.00    +0.007 A 
ATOM      3  C   LIG    1       20.443  27.165  11.859  0.00  0.00    +0.046 A 
ATOM      4  C   LIG    1       19.077  27.317  12.125  0.00  0.00    +0.121 A 
ATOM      5  C   LIG    1       18.231  27.636  11.064  0.00  0.00    +0.046 A 
ATOM      6  C   LIG    1       18.746  27.790   9.763  0.00  0.00    +0.007 A 
ENDROOT
BRANCH   1   7
ATOM      7  C   LIG    1       20.713  27.794   8.129  0.00  0.00    +0.059 C 
BRANCH   7  10
ATOM      8  O   LIG    1       21.494  30.969   8.160  0.00  0.00    -0.274 OA
ATOM      9  C   LIG    1       21.895  29.992   7.541  0.00  0.00    +0.234 C 
ATOM     10  C   LIG    1       22.032  28.582   8.098  0.00  0.00    +0.146 C 
ATOM     11  S   LIG    1       23.166  27.770   6.901  0.00  0.00    -0.054 S 
ATOM     12  C   LIG    1       23.082  29.090   5.762  0.00  0.00    +0.279 C 
ATOM     13  O   LIG    1       23.694  29.126   4.712  0.00  0.00    -0.263 OA
ATOM     14  N   LIG    1       22.293  30.077   6.243  0.00  0.00    -0.246 N 
ATOM     15  H   LIG    1       22.285  30.967   5.771  0.00  0.00    +0.158 HD
ENDBRANCH   7  10
ENDBRANCH   1   7
BRANCH   4  16
ATOM     16  O   LIG    1       18.505  27.179  13.379  0.00  0.00    -0.490 OA
BRANCH  16  17
ATOM     17  C   LIG    1       17.958  28.418  13.848  0.00  0.00    +0.248 C 
BRANCH  17  18
ATOM     18  C   LIG    1       18.913  29.375  14.546  0.00  0.00    +0.147 C 
BRANCH  18  19
ATOM     19  N   LIG    1       19.298  30.585  13.753  0.00  0.00    -0.315 N 
ATOM     20  C   LIG    1       20.718  30.567  13.370  0.00  0.00    +0.131 C 
BRANCH  19  21
ATOM     21  C   LIG    1       18.495  31.086  12.709  0.00  0.00    +0.121 A 
ATOM     22  C   LIG    1       18.830  30.900  11.364  0.00  0.00    +0.043 A 
ATOM     23  C   LIG    1       18.019  31.385  10.335  0.00  0.00    +0.005 A 
ATOM     24  C   LIG    1       16.817  31.982  10.654  0.00  0.00    +0.020 A 
ATOM     25  C   LIG    1       16.497  32.076  11.992  0.00  0.00    +0.113 A 
ATOM     26  N   LIG    1       17.305  31.661  13.001  0.00  0.00    -0.240 NA
ENDBRANCH  19  21
ENDBRANCH  18  19
ENDBRANCH  17  18
ENDBRANCH  16  17
ENDBRANCH   4  16
TORSDOF 7
ENDMDL
MODEL 7
REMARK VINA RESULT:      -6.4      2.497      3.981
REMARK  Name = 
REMARK                            x       y       z     vdW  Elec       q    Type
REMARK                         _______ _______ _______ _____ _____    ______ ____
ROOT
ATOM      1  C   LIG    1       22.241  29.143   7.472  0.00  0.00    -0.046 A 
ATOM      2  C   LIG    1       21.444  29.885   8.340  0.00  0.00    +0.007 A 
ATOM      3  C   LIG    1       20.746  29.264   9.369  0.00  0.00    +0.046 A 
ATOM      4  C   LIG    1       20.778  27.875   9.540  0.00  0.00    +0.121 A 
ATOM      5  C   LIG    1       21.551  27.120   8.659  0.00  0.00    +0.046 A 
ATOM      6  C   LIG    1       22.284  27.749   7.635  0.00  0.00    +0.007 A 
ENDROOT
BRANCH   1   7
ATOM      7  C   LIG    1       23.012  29.859   6.387  0.00  0.00    +0.059 C 
BRANCH   7  10
ATOM      8  O   LIG    1       26.036  30.799   7.199  0.00  0.00    -0.274 OA
ATOM      9  C   LIG    1       25.521  30.347   6.184  0.00  0.00    +0.234 C 
ATOM     10  C   LIG    1       24.420  29.296   6.140  0.00  0.00    +0.146 C 
ATOM     11  S   LIG    1       24.505  28.678   4.410  0.00  0.00    -0.054 S 
ATOM     12  C   LIG    1       25.603  29.936   3.902  0.00  0.00    +0.279 C 
ATOM     13  O   LIG    1       26.060  30.030   2.779  0.00  0.00    -0.263 OA
ATOM     14  N   LIG    1       25.909  30.742   4.942  0.00  0.00    -0.246 N 
ATOM     15  H   LIG    1       26.659  31.408   4.838  0.00  0.00    +0.158 HD
ENDBRANCH   7  10
ENDBRANCH   1   7
BRANCH   4  16
ATOM     16  O   LIG    1       20.084  27.192  10.525  0.00  0.00    -0.490 OA
BRANCH  16  17
ATOM     17  C   LIG    1       20.195  27.845  11.797  0.00  0.00    +0.248 C 
BRANCH  17  18
ATOM     18  C   LIG    1       18.897  28.206  12.504  0.00  0.00    +0.147 C 
BRANCH  18  19
ATOM     19  N   LIG    1       18.616  29.672  12.615  0.00  0.00    -0.315 N 
ATOM     20  C   LIG    1       19.842  30.456  12.826  0.00  0.00    +0.131 C 
BRANCH  19  21
ATOM     21  C   LIG    1       17.731  30.335  11.742  0.00  0.00    +0.121 A 
ATOM     22  C   LIG    1       17.209  31.599  12.038  0.00  0.00    +0.043 A 
ATOM     23  C   LIG    1       16.346  32.258  11.158  0.00  0.00    +0.005 A 
ATOM     24  C   LIG    1       16.073  31.686   9.933  0.00  0.00    +0.020 A 
ATOM     25  C   LIG    1       16.671  30.473   9.658  0.00  0.00    +0.113 A 
ATOM     26  N   LIG    1       17.464  29.799  10.529  0.00  0.00    -0.240 NA
ENDBRANCH  19  21
ENDBRANCH  18  19
ENDBRANCH  17  18
ENDBRANCH  16  17
ENDBRANCH   4  16
TORSDOF 7
ENDMDL
MODEL 8
REMARK VINA RESULT:      -6.3      2.042      3.318
REMARK  Name = 
REMARK                            x       y       z     vdW  Elec       q    Type
REMARK                         _______ _______ _______ _____ _____    ______ ____
ROOT
ATOM      1  C   LIG    1       22.715  28.400   7.193  0.00  0.00    -0.046 A 
ATOM      2  C   LIG    1       21.818  27.709   8.004  0.00  0.00    +0.007 A 
ATOM      3  C   LIG    1       20.818  28.385   8.694  0.00  0.00    +0.046 A 
ATOM      4  C   LIG    1       20.708  29.779   8.640  0.00  0.00    +0.121 A 
ATOM      5  C   LIG    1       21.618  30.483   7.852  0.00  0.00    +0.046 A 
ATOM      6  C   LIG    1       22.612  29.798   7.128  0.00  0.00    +0.007 A 
ENDROOT
BRANCH   1   7
ATOM      7  C   LIG    1       23.766  27.625   6.432  0.00  0.00    +0.059 C 
BRANCH   7  10
ATOM      8  O   LIG    1       26.729  28.221   5.186  0.00  0.00    -0.274 OA
ATOM      9  C   LIG    1       26.290  27.441   6.021  0.00  0.00    +0.234 C 
ATOM     10  C   LIG    1       25.181  27.741   7.020  0.00  0.00    +0.146 C 
ATOM     11  S   LIG    1       25.395  26.425   8.286  0.00  0.00    -0.054 S 
ATOM     12  C   LIG    1       26.548  25.538   7.323  0.00  0.00    +0.279 C 
ATOM     13  O   LIG    1       27.095  24.514   7.685  0.00  0.00    -0.263 OA
ATOM     14  N   LIG    1       26.783  26.180   6.157  0.00  0.00    -0.246 N 
ATOM     15  H   LIG    1       27.548  25.873   5.578  0.00  0.00    +0.158 HD
ENDBRANCH   7  10
ENDBRANCH   1   7
BRANCH   4  16
ATOM     16  O   LIG    1       19.754  30.515   9.325  0.00  0.00    -0.490 OA
BRANCH  16  17
ATOM     17  C   LIG    1       18.619  29.711   9.674  0.00  0.00    +0.248 C 
BRANCH  17  18
ATOM     18  C   LIG    1       18.005  29.941  11.047  0.00  0.00    +0.147 C 
BRANCH  18  19
ATOM     19  N   LIG    1       18.399  28.950  12.097  0.00  0.00    -0.315 N 
ATOM     20  C   LIG    1       18.532  27.590  11.553  0.00  0.00    +0.131 C 
BRANCH  19  21
ATOM     21  C   LIG    1       19.406  29.220  13.045  0.00  0.00    +0.121 A 
ATOM     22  C   LIG    1       19.266  28.871  14.393  0.00  0.00    +0.043 A 
ATOM     23  C   LIG    1       20.276  29.127  15.323  0.00  0.00    +0.005 A 
ATOM     24  C   LIG    1       21.472  29.655  14.885  0.00  0.00    +0.020 A 
ATOM     25  C   LIG    1       21.589  29.914  13.535  0.00  0.00    +0.113 A 
ATOM     26  N   LIG    1       20.593  29.723  12.633  0.00  0.00    -0.240 NA
ENDBRANCH  19  21
ENDBRANCH  18  19
ENDBRANCH  17  18
ENDBRANCH  16  17
ENDBRANCH   4  16
TORSDOF 7
ENDMDL
MODEL 9
REMARK VINA RESULT:      -6.2      2.002      2.906
REMARK  Name = 
REMARK                            x       y       z     vdW  Elec       q    Type
REMARK                         _______ _______ _______ _____ _____    ______ ____
ROOT
ATOM      1  C   LIG    1       22.393  28.602   7.195  0.00  0.00    -0.046 A 
ATOM      2  C   LIG    1       21.539  27.809   7.957  0.00  0.00    +0.007 A 
ATOM      3  C   LIG    1       20.563  28.386   8.761  0.00  0.00    +0.046 A 
ATOM      4  C   LIG    1       20.436  29.775   8.872  0.00  0.00    +0.121 A 
ATOM      5  C   LIG    1       21.304  30.579   8.134  0.00  0.00    +0.046 A 
ATOM      6  C   LIG    1       22.273  29.997   7.295  0.00  0.00    +0.007 A 
ENDROOT
BRANCH   1   7
ATOM      7  C   LIG    1       23.419  27.936   6.306  0.00  0.00    +0.059 C 
BRANCH   7  10
ATOM      8  O   LIG    1       25.729  30.147   6.985  0.00  0.00    -0.274 OA
ATOM      9  C   LIG    1       25.732  29.025   6.495  0.00  0.00    +0.234 C 
ATOM     10  C   LIG    1       24.829  27.872   6.912  0.00  0.00    +0.146 C 
ATOM     11  S   LIG    1       25.691  26.400   6.227  0.00  0.00    -0.054 S 
ATOM     12  C   LIG    1       26.817  27.359   5.299  0.00  0.00    +0.279 C 
ATOM     13  O   LIG    1       27.706  26.893   4.613  0.00  0.00    -0.263 OA
ATOM     14  N   LIG    1       26.592  28.676   5.501  0.00  0.00    -0.246 N 
ATOM     15  H   LIG    1       27.268  29.343   5.163  0.00  0.00    +0.158 HD
ENDBRANCH   7  10
ENDBRANCH   1   7
BRANCH   4  16
ATOM     16  O   LIG    1       19.505  30.413   9.677  0.00  0.00    -0.490 OA
BRANCH  16  17
ATOM     17  C   LIG    1       18.389  29.561   9.969  0.00  0.00    +0.248 C 
BRANCH  17  18
ATOM     18  C   LIG    1       17.952  29.469  11.423  0.00  0.00    +0.147 C 
BRANCH  18  19
ATOM     19  N   LIG    1       18.573  30.475  12.341  0.00  0.00    -0.315 N 
ATOM     20  C   LIG    1       17.574  31.386  12.922  0.00  0.00    +0.131 C 
BRANCH  19  21
ATOM     21  C   LIG    1       19.552  30.122  13.291  0.00  0.00    +0.121 A 
ATOM     22  C   LIG    1       19.222  29.487  14.493  0.00  0.00    +0.043 A 
ATOM     23  C   LIG    1       20.201  29.124  15.421  0.00  0.00    +0.005 A 
ATOM     24  C   LIG    1       21.529  29.318  15.104  0.00  0.00    +0.020 A 
ATOM     25  C   LIG    1       21.807  29.880  13.876  0.00  0.00    +0.113 A 
ATOM     26  N   LIG    1       20.862  30.289  12.992  0.00  0.00    -0.240 NA
ENDBRANCH  19  21
ENDBRANCH  18  19
ENDBRANCH  17  18
ENDBRANCH  16  17
ENDBRANCH   4  16
TORSDOF 7
ENDMDL
