MODEL 1
REMARK VINA RESULT:      -7.8      0.000      0.000
REMARK  Name = 
REMARK                            x       y       z     vdW  Elec       q    Type
REMARK                         _______ _______ _______ _____ _____    ______ ____
ROOT
ATOM      1  C   LIG    1       32.427  -2.579  24.284  0.00  0.00    -0.046 A 
ATOM      2  C   LIG    1       32.786  -3.066  25.539  0.00  0.00    +0.007 A 
ATOM      3  C   LIG    1       32.638  -2.279  26.674  0.00  0.00    +0.046 A 
ATOM      4  C   LIG    1       32.174  -0.961  26.594  0.00  0.00    +0.121 A 
ATOM      5  C   LIG    1       31.837  -0.455  25.340  0.00  0.00    +0.046 A 
ATOM      6  C   LIG    1       31.956  -1.260  24.192  0.00  0.00    +0.007 A 
ENDROOT
BRANCH   1   7
ATOM      7  C   LIG    1       32.570  -3.479  23.077  0.00  0.00    +0.059 C 
BRANCH   7  10
ATOM      8  O   LIG    1       30.620  -3.065  20.486  0.00  0.00    -0.274 OA
ATOM      9  C   LIG    1       31.814  -3.289  20.634  0.00  0.00    +0.234 C 
ATOM     10  C   LIG    1       32.692  -2.726  21.744  0.00  0.00    +0.146 C 
ATOM     11  S   LIG    1       34.394  -2.970  21.091  0.00  0.00    -0.054 S 
ATOM     12  C   LIG    1       33.856  -3.962  19.760  0.00  0.00    +0.279 C 
ATOM     13  O   LIG    1       34.595  -4.428  18.914  0.00  0.00    -0.263 OA
ATOM     14  N   LIG    1       32.510  -4.084  19.777  0.00  0.00    -0.246 N 
ATOM     15  H   LIG    1       32.047  -4.487  18.977  0.00  0.00    +0.158 HD
ENDBRANCH   7  10
ENDBRANCH   1   7
BRANCH   4  16
ATOM     16  O   LIG    1       32.031  -0.115  27.683  0.00  0.00    -0.490 OA
BRANCH  16  17
ATOM     17  C   LIG    1       30.969   0.828  27.482  0.00  0.00    +0.248 C 
BRANCH  17  18
ATOM     18  C   LIG    1       29.819   0.796  28.477  0.00  0.00    +0.147 C 
BRANCH  18  19
ATOM     19  N   LIG    1       28.500   0.365  27.915  0.00  0.00    -0.315 N 
ATOM     20  C   LIG    1       28.202   1.024  26.634  0.00  0.00    +0.131 C 
BRANCH  19  21
ATOM     21  C   LIG    1       28.095  -0.985  27.900  0.00  0.00    +0.121 A 
ATOM     22  C   LIG    1       29.016  -2.035  27.973  0.00  0.00    +0.043 A 
ATOM     23  C   LIG    1       28.605  -3.370  27.976  0.00  0.00    +0.005 A 
ATOM     24  C   LIG    1       27.256  -3.655  27.995  0.00  0.00    +0.020 A 
ATOM     25  C   LIG    1       26.386  -2.584  27.997  0.00  0.00    +0.113 A 
ATOM     26  N   LIG    1       26.776  -1.285  27.936  0.00  0.00    -0.240 NA
ENDBRANCH  19  21
ENDBRANCH  18  19
ENDBRANCH  17  18
ENDBRANCH  16  17
ENDBRANCH   4  16
TORSDOF 7
ENDMDL
MODEL 2
REMARK VINA RESULT:      -7.8      3.155      8.659
REMARK  Name = 
REMARK                            x       y       z     vdW  Elec       q    Type
REMARK                         _______ _______ _______ _____ _____    ______ ____
ROOT
ATOM      1  C   LIG    1       30.557  -1.418  26.628  0.00  0.00    -0.046 A 
ATOM      2  C   LIG    1       30.854  -0.905  25.367  0.00  0.00    +0.007 A 
ATOM      3  C   LIG    1       31.883  -1.446  24.605  0.00  0.00    +0.046 A 
ATOM      4  C   LIG    1       32.686  -2.484  25.093  0.00  0.00    +0.121 A 
ATOM      5  C   LIG    1       32.414  -2.986  26.365  0.00  0.00    +0.046 A 
ATOM      6  C   LIG    1       31.353  -2.462  27.126  0.00  0.00    +0.007 A 
ENDROOT
BRANCH   1   7
ATOM      7  C   LIG    1       29.408  -0.826  27.411  0.00  0.00    +0.059 C 
BRANCH   7  10
ATOM      8  O   LIG    1       26.539   0.742  27.465  0.00  0.00    -0.274 OA
ATOM      9  C   LIG    1       26.878  -0.432  27.550  0.00  0.00    +0.234 C 
ATOM     10  C   LIG    1       28.027  -1.082  26.790  0.00  0.00    +0.146 C 
ATOM     11  S   LIG    1       27.651  -2.877  26.926  0.00  0.00    -0.054 S 
ATOM     12  C   LIG    1       26.381  -2.631  28.098  0.00  0.00    +0.279 C 
ATOM     13  O   LIG    1       25.706  -3.526  28.570  0.00  0.00    -0.263 OA
ATOM     14  N   LIG    1       26.224  -1.314  28.353  0.00  0.00    -0.246 N 
ATOM     15  H   LIG    1       25.420  -1.012  28.882  0.00  0.00    +0.158 HD
ENDBRANCH   7  10
ENDBRANCH   1   7
BRANCH   4  16
ATOM     16  O   LIG    1       33.744  -3.047  24.397  0.00  0.00    -0.490 OA
BRANCH  16  17
ATOM     17  C   LIG    1       33.291  -3.767  23.242  0.00  0.00    +0.248 C 
BRANCH  17  18
ATOM     18  C   LIG    1       33.832  -3.318  21.893  0.00  0.00    +0.147 C 
BRANCH  18  19
ATOM     19  N   LIG    1       32.883  -3.461  20.744  0.00  0.00    -0.315 N 
ATOM     20  C   LIG    1       31.482  -3.283  21.158  0.00  0.00    +0.131 C 
BRANCH  19  21
ATOM     21  C   LIG    1       33.124  -2.862  19.491  0.00  0.00    +0.121 A 
ATOM     22  C   LIG    1       32.091  -2.607  18.583  0.00  0.00    +0.043 A 
ATOM     23  C   LIG    1       32.336  -1.998  17.350  0.00  0.00    +0.005 A 
ATOM     24  C   LIG    1       33.611  -1.559  17.061  0.00  0.00    +0.020 A 
ATOM     25  C   LIG    1       34.580  -1.767  18.020  0.00  0.00    +0.113 A 
ATOM     26  N   LIG    1       34.364  -2.410  19.196  0.00  0.00    -0.240 NA
ENDBRANCH  19  21
ENDBRANCH  18  19
ENDBRANCH  17  18
ENDBRANCH  16  17
ENDBRANCH   4  16
TORSDOF 7
ENDMDL
MODEL 3
REMARK VINA RESULT:      -7.7      2.152      3.989
REMARK  Name = 
REMARK                            x       y       z     vdW  Elec       q    Type
REMARK                         _______ _______ _______ _____ _____    ______ ____
ROOT
ATOM      1  C   LIG    1       32.857  -2.679  23.720  0.00  0.00    -0.046 A 
ATOM      2  C   LIG    1       32.817  -3.342  24.944  0.00  0.00    +0.007 A 
ATOM      3  C   LIG    1       31.946  -2.930  25.946  0.00  0.00    +0.046 A 
ATOM      4  C   LIG    1       31.119  -1.813  25.782  0.00  0.00    +0.121 A 
ATOM      5  C   LIG    1       31.171  -1.126  24.570  0.00  0.00    +0.046 A 
ATOM      6  C   LIG    1       32.030  -1.559  23.542  0.00  0.00    +0.007 A 
ENDROOT
BRANCH   1   7
ATOM      7  C   LIG    1       33.792  -3.179  22.643  0.00  0.00    +0.059 C 
BRANCH   7  10
ATOM      8  O   LIG    1       31.234  -3.196  20.607  0.00  0.00    -0.274 OA
ATOM      9  C   LIG    1       32.442  -3.335  20.468  0.00  0.00    +0.234 C 
ATOM     10  C   LIG    1       33.517  -2.592  21.250  0.00  0.00    +0.146 C 
ATOM     11  S   LIG    1       35.018  -2.823  20.214  0.00  0.00    -0.054 S 
ATOM     12  C   LIG    1       34.252  -4.000  19.178  0.00  0.00    +0.279 C 
ATOM     13  O   LIG    1       34.795  -4.527  18.225  0.00  0.00    -0.263 OA
ATOM     14  N   LIG    1       32.968  -4.191  19.551  0.00  0.00    -0.246 N 
ATOM     15  H   LIG    1       32.357  -4.715  18.944  0.00  0.00    +0.158 HD
ENDBRANCH   7  10
ENDBRANCH   1   7
BRANCH   4  16
ATOM     16  O   LIG    1       30.251  -1.334  26.750  0.00  0.00    -0.490 OA
BRANCH  16  17
ATOM     17  C   LIG    1       30.477  -1.964  28.019  0.00  0.00    +0.248 C 
BRANCH  17  18
ATOM     18  C   LIG    1       31.133  -1.121  29.102  0.00  0.00    +0.147 C 
BRANCH  18  19
ATOM     19  N   LIG    1       31.290   0.331  28.774  0.00  0.00    -0.315 N 
ATOM     20  C   LIG    1       30.602   1.196  29.745  0.00  0.00    +0.131 C 
BRANCH  19  21
ATOM     21  C   LIG    1       32.527   0.884  28.387  0.00  0.00    +0.121 A 
ATOM     22  C   LIG    1       32.717   1.463  27.127  0.00  0.00    +0.043 A 
ATOM     23  C   LIG    1       33.942   2.024  26.758  0.00  0.00    +0.005 A 
ATOM     24  C   LIG    1       34.958   2.087  27.688  0.00  0.00    +0.020 A 
ATOM     25  C   LIG    1       34.697   1.570  28.940  0.00  0.00    +0.113 A 
ATOM     26  N   LIG    1       33.532   0.970  29.290  0.00  0.00    -0.240 NA
ENDBRANCH  19  21
ENDBRANCH  18  19
ENDBRANCH  17  18
ENDBRANCH  16  17
ENDBRANCH   4  16
TORSDOF 7
ENDMDL
MODEL 4
REMARK VINA RESULT:      -7.5      3.204      7.995
REMARK  Name = 
REMARK                            x       y       z     vdW  Elec       q    Type
REMARK                         _______ _______ _______ _____ _____    ______ ____
ROOT
ATOM      1  C   LIG    1       30.600  -0.954  25.898  0.00  0.00    -0.046 A 
ATOM      2  C   LIG    1       30.876  -0.902  24.534  0.00  0.00    +0.007 A 
ATOM      3  C   LIG    1       31.807  -1.762  23.965  0.00  0.00    +0.046 A 
ATOM      4  C   LIG    1       32.533  -2.672  24.743  0.00  0.00    +0.121 A 
ATOM      5  C   LIG    1       32.283  -2.713  26.114  0.00  0.00    +0.046 A 
ATOM      6  C   LIG    1       31.319  -1.865  26.688  0.00  0.00    +0.007 A 
ENDROOT
BRANCH   1   7
ATOM      7  C   LIG    1       29.555  -0.025  26.474  0.00  0.00    +0.059 C 
BRANCH   7  10
ATOM      8  O   LIG    1       28.531  -3.105  26.864  0.00  0.00    -0.274 OA
ATOM      9  C   LIG    1       27.977  -2.014  26.833  0.00  0.00    +0.234 C 
ATOM     10  C   LIG    1       28.541  -0.716  27.397  0.00  0.00    +0.146 C 
ATOM     11  S   LIG    1       27.054   0.357  27.535  0.00  0.00    -0.054 S 
ATOM     12  C   LIG    1       26.042  -0.748  26.640  0.00  0.00    +0.279 C 
ATOM     13  O   LIG    1       24.860  -0.564  26.418  0.00  0.00    -0.263 OA
ATOM     14  N   LIG    1       26.743  -1.847  26.285  0.00  0.00    -0.246 N 
ATOM     15  H   LIG    1       26.248  -2.641  25.911  0.00  0.00    +0.158 HD
ENDBRANCH   7  10
ENDBRANCH   1   7
BRANCH   4  16
ATOM     16  O   LIG    1       33.494  -3.536  24.242  0.00  0.00    -0.490 OA
BRANCH  16  17
ATOM     17  C   LIG    1       34.032  -3.063  23.000  0.00  0.00    +0.248 C 
BRANCH  17  18
ATOM     18  C   LIG    1       33.843  -3.954  21.782  0.00  0.00    +0.147 C 
BRANCH  18  19
ATOM     19  N   LIG    1       33.588  -3.232  20.496  0.00  0.00    -0.315 N 
ATOM     20  C   LIG    1       34.591  -3.556  19.470  0.00  0.00    +0.131 C 
BRANCH  19  21
ATOM     21  C   LIG    1       32.300  -3.131  19.934  0.00  0.00    +0.121 A 
ATOM     22  C   LIG    1       31.143  -3.311  20.700  0.00  0.00    +0.043 A 
ATOM     23  C   LIG    1       29.869  -3.192  20.139  0.00  0.00    +0.005 A 
ATOM     24  C   LIG    1       29.751  -2.801  18.821  0.00  0.00    +0.020 A 
ATOM     25  C   LIG    1       30.920  -2.564  18.128  0.00  0.00    +0.113 A 
ATOM     26  N   LIG    1       32.162  -2.733  18.648  0.00  0.00    -0.240 NA
ENDBRANCH  19  21
ENDBRANCH  18  19
ENDBRANCH  17  18
ENDBRANCH  16  17
ENDBRANCH   4  16
TORSDOF 7
ENDMDL
MODEL 5
REMARK VINA RESULT:      -7.3      1.828      2.490
REMARK  Name = 
REMARK                            x       y       z     vdW  Elec       q    Type
REMARK                         _______ _______ _______ _____ _____    ______ ____
ROOT
ATOM      1  C   LIG    1       32.609  -2.969  22.388  0.00  0.00    -0.046 A 
ATOM      2  C   LIG    1       31.755  -1.950  22.804  0.00  0.00    +0.007 A 
ATOM      3  C   LIG    1       31.786  -1.488  24.114  0.00  0.00    +0.046 A 
ATOM      4  C   LIG    1       32.635  -2.059  25.070  0.00  0.00    +0.121 A 
ATOM      5  C   LIG    1       33.474  -3.098  24.671  0.00  0.00    +0.046 A 
ATOM      6  C   LIG    1       33.466  -3.547  23.338  0.00  0.00    +0.007 A 
ENDROOT
BRANCH   1   7
ATOM      7  C   LIG    1       32.569  -3.421  20.946  0.00  0.00    +0.059 C 
BRANCH   7  10
ATOM      8  O   LIG    1       34.870  -1.233  20.164  0.00  0.00    -0.274 OA
ATOM      9  C   LIG    1       34.380  -2.203  19.600  0.00  0.00    +0.234 C 
ATOM     10  C   LIG    1       33.948  -3.499  20.274  0.00  0.00    +0.146 C 
ATOM     11  S   LIG    1       33.847  -4.683  18.872  0.00  0.00    -0.054 S 
ATOM     12  C   LIG    1       34.028  -3.435  17.665  0.00  0.00    +0.279 C 
ATOM     13  O   LIG    1       34.062  -3.643  16.467  0.00  0.00    -0.263 OA
ATOM     14  N   LIG    1       34.181  -2.228  18.255  0.00  0.00    -0.246 N 
ATOM     15  H   LIG    1       34.462  -1.442  17.689  0.00  0.00    +0.158 HD
ENDBRANCH   7  10
ENDBRANCH   1   7
BRANCH   4  16
ATOM     16  O   LIG    1       32.693  -1.665  26.397  0.00  0.00    -0.490 OA
BRANCH  16  17
ATOM     17  C   LIG    1       32.762  -0.237  26.521  0.00  0.00    +0.248 C 
BRANCH  17  18
ATOM     18  C   LIG    1       31.477   0.487  26.893  0.00  0.00    +0.147 C 
BRANCH  18  19
ATOM     19  N   LIG    1       30.646  -0.185  27.941  0.00  0.00    -0.315 N 
ATOM     20  C   LIG    1       30.179   0.760  28.967  0.00  0.00    +0.131 C 
BRANCH  19  21
ATOM     21  C   LIG    1       29.645  -1.123  27.619  0.00  0.00    +0.121 A 
ATOM     22  C   LIG    1       29.560  -2.364  28.261  0.00  0.00    +0.043 A 
ATOM     23  C   LIG    1       28.554  -3.281  27.948  0.00  0.00    +0.005 A 
ATOM     24  C   LIG    1       27.573  -2.918  27.049  0.00  0.00    +0.020 A 
ATOM     25  C   LIG    1       27.659  -1.657  26.498  0.00  0.00    +0.113 A 
ATOM     26  N   LIG    1       28.664  -0.781  26.752  0.00  0.00    -0.240 NA
ENDBRANCH  19  21
ENDBRANCH  18  19
ENDBRANCH  17  18
ENDBRANCH  16  17
ENDBRANCH   4  16
TORSDOF 7
ENDMDL
MODEL 6
REMARK VINA RESULT:      -7.1      3.087      9.272
REMARK  Name = 
REMARK                            x       y       z     vdW  Elec       q    Type
REMARK                         _______ _______ _______ _____ _____    ______ ____
ROOT
ATOM      1  C   LIG    1       31.939  -1.055  25.547  0.00  0.00    -0.046 A 
ATOM      2  C   LIG    1       31.628  -0.883  24.201  0.00  0.00    +0.007 A 
ATOM      3  C   LIG    1       31.957  -1.857  23.266  0.00  0.00    +0.046 A 
ATOM      4  C   LIG    1       32.654  -3.015  23.631  0.00  0.00    +0.121 A 
ATOM      5  C   LIG    1       32.994  -3.184  24.973  0.00  0.00    +0.046 A 
ATOM      6  C   LIG    1       32.634  -2.214  25.927  0.00  0.00    +0.007 A 
ENDROOT
BRANCH   1   7
ATOM      7  C   LIG    1       31.533   0.011  26.539  0.00  0.00    +0.059 C 
BRANCH   7  10
ATOM      8  O   LIG    1       28.784   0.152  28.303  0.00  0.00    -0.274 OA
ATOM      9  C   LIG    1       29.976   0.257  28.561  0.00  0.00    +0.234 C 
ATOM     10  C   LIG    1       31.100  -0.535  27.907  0.00  0.00    +0.146 C 
ATOM     11  S   LIG    1       32.495  -0.327  29.086  0.00  0.00    -0.054 S 
ATOM     12  C   LIG    1       31.667   0.895  30.016  0.00  0.00    +0.279 C 
ATOM     13  O   LIG    1       32.127   1.427  31.009  0.00  0.00    -0.263 OA
ATOM     14  N   LIG    1       30.433   1.117  29.510  0.00  0.00    -0.246 N 
ATOM     15  H   LIG    1       29.782   1.673  30.042  0.00  0.00    +0.158 HD
ENDBRANCH   7  10
ENDBRANCH   1   7
BRANCH   4  16
ATOM     16  O   LIG    1       33.037  -4.009  22.745  0.00  0.00    -0.490 OA
BRANCH  16  17
ATOM     17  C   LIG    1       32.592  -3.727  21.412  0.00  0.00    +0.248 C 
BRANCH  17  18
ATOM     18  C   LIG    1       33.649  -3.718  20.318  0.00  0.00    +0.147 C 
BRANCH  18  19
ATOM     19  N   LIG    1       34.475  -2.472  20.238  0.00  0.00    -0.315 N 
ATOM     20  C   LIG    1       35.794  -2.641  20.866  0.00  0.00    +0.131 C 
BRANCH  19  21
ATOM     21  C   LIG    1       34.567  -1.706  19.058  0.00  0.00    +0.121 A 
ATOM     22  C   LIG    1       35.371  -0.564  18.979  0.00  0.00    +0.043 A 
ATOM     23  C   LIG    1       35.471   0.180  17.800  0.00  0.00    +0.005 A 
ATOM     24  C   LIG    1       34.830  -0.274  16.666  0.00  0.00    +0.020 A 
ATOM     25  C   LIG    1       34.110  -1.445  16.776  0.00  0.00    +0.113 A 
ATOM     26  N   LIG    1       33.960  -2.143  17.930  0.00  0.00    -0.240 NA
ENDBRANCH  19  21
ENDBRANCH  18  19
ENDBRANCH  17  18
ENDBRANCH  16  17
ENDBRANCH   4  16
TORSDOF 7
ENDMDL
MODEL 7
REMARK VINA RESULT:      -7.1      3.624      8.933
REMARK  Name = 
REMARK                            x       y       z     vdW  Elec       q    Type
REMARK                         _______ _______ _______ _____ _____    ______ ____
ROOT
ATOM      1  C   LIG    1       31.718  -1.446  26.254  0.00  0.00    -0.046 A 
ATOM      2  C   LIG    1       31.182  -0.715  25.197  0.00  0.00    +0.007 A 
ATOM      3  C   LIG    1       31.436  -1.080  23.880  0.00  0.00    +0.046 A 
ATOM      4  C   LIG    1       32.274  -2.158  23.569  0.00  0.00    +0.121 A 
ATOM      5  C   LIG    1       32.837  -2.880  24.621  0.00  0.00    +0.046 A 
ATOM      6  C   LIG    1       32.556  -2.532  25.955  0.00  0.00    +0.007 A 
ENDROOT
BRANCH   1   7
ATOM      7  C   LIG    1       31.389  -1.038  27.672  0.00  0.00    +0.059 C 
BRANCH   7  10
ATOM      8  O   LIG    1       33.719   1.153  26.996  0.00  0.00    -0.274 OA
ATOM      9  C   LIG    1       33.031   0.907  27.978  0.00  0.00    +0.234 C 
ATOM     10  C   LIG    1       31.576   0.460  27.954  0.00  0.00    +0.146 C 
ATOM     11  S   LIG    1       31.007   0.805  29.668  0.00  0.00    -0.054 S 
ATOM     12  C   LIG    1       32.618   1.138  30.250  0.00  0.00    +0.279 C 
ATOM     13  O   LIG    1       32.877   1.470  31.391  0.00  0.00    -0.263 OA
ATOM     14  N   LIG    1       33.514   1.030  29.244  0.00  0.00    -0.246 N 
ATOM     15  H   LIG    1       34.456   1.355  29.394  0.00  0.00    +0.158 HD
ENDBRANCH   7  10
ENDBRANCH   1   7
BRANCH   4  16
ATOM     16  O   LIG    1       32.591  -2.555  22.280  0.00  0.00    -0.490 OA
BRANCH  16  17
ATOM     17  C   LIG    1       33.831  -3.275  22.240  0.00  0.00    +0.248 C 
BRANCH  17  18
ATOM     18  C   LIG    1       34.677  -3.124  20.985  0.00  0.00    +0.147 C 
BRANCH  18  19
ATOM     19  N   LIG    1       34.031  -2.368  19.866  0.00  0.00    -0.315 N 
ATOM     20  C   LIG    1       34.942  -1.381  19.267  0.00  0.00    +0.131 C 
BRANCH  19  21
ATOM     21  C   LIG    1       33.251  -3.005  18.881  0.00  0.00    +0.121 A 
ATOM     22  C   LIG    1       31.885  -2.740  18.733  0.00  0.00    +0.043 A 
ATOM     23  C   LIG    1       31.122  -3.363  17.742  0.00  0.00    +0.005 A 
ATOM     24  C   LIG    1       31.750  -4.191  16.835  0.00  0.00    +0.020 A 
ATOM     25  C   LIG    1       33.112  -4.363  16.977  0.00  0.00    +0.113 A 
ATOM     26  N   LIG    1       33.850  -3.808  17.971  0.00  0.00    -0.240 NA
ENDBRANCH  19  21
ENDBRANCH  18  19
ENDBRANCH  17  18
ENDBRANCH  16  17
ENDBRANCH   4  16
TORSDOF 7
ENDMDL
MODEL 8
REMARK VINA RESULT:      -7.1      1.886      2.525
REMARK  Name = 
REMARK                            x       y       z     vdW  Elec       q    Type
REMARK                         _______ _______ _______ _____ _____    ______ ____
ROOT
ATOM      1  C   LIG    1       32.157  -1.199  24.909  0.00  0.00    -0.046 A 
ATOM      2  C   LIG    1       32.391   0.142  25.204  0.00  0.00    +0.007 A 
ATOM      3  C   LIG    1       32.857   0.523  26.456  0.00  0.00    +0.046 A 
ATOM      4  C   LIG    1       33.060  -0.414  27.477  0.00  0.00    +0.121 A 
ATOM      5  C   LIG    1       32.802  -1.756  27.200  0.00  0.00    +0.046 A 
ATOM      6  C   LIG    1       32.360  -2.148  25.923  0.00  0.00    +0.007 A 
ENDROOT
BRANCH   1   7
ATOM      7  C   LIG    1       31.683  -1.576  23.524  0.00  0.00    +0.059 C 
BRANCH   7  10
ATOM      8  O   LIG    1       34.537  -3.167  23.650  0.00  0.00    -0.274 OA
ATOM      9  C   LIG    1       33.675  -3.016  22.793  0.00  0.00    +0.234 C 
ATOM     10  C   LIG    1       32.175  -2.950  23.045  0.00  0.00    +0.146 C 
ATOM     11  S   LIG    1       31.461  -3.277  21.383  0.00  0.00    -0.054 S 
ATOM     12  C   LIG    1       33.003  -3.145  20.576  0.00  0.00    +0.279 C 
ATOM     13  O   LIG    1       33.164  -3.302  19.381  0.00  0.00    -0.263 OA
ATOM     14  N   LIG    1       33.984  -2.904  21.473  0.00  0.00    -0.246 N 
ATOM     15  H   LIG    1       34.945  -2.969  21.174  0.00  0.00    +0.158 HD
ENDBRANCH   7  10
ENDBRANCH   1   7
BRANCH   4  16
ATOM     16  O   LIG    1       33.495  -0.097  28.753  0.00  0.00    -0.490 OA
BRANCH  16  17
ATOM     17  C   LIG    1       32.670   0.909  29.357  0.00  0.00    +0.248 C 
BRANCH  17  18
ATOM     18  C   LIG    1       31.362   0.448  29.981  0.00  0.00    +0.147 C 
BRANCH  18  19
ATOM     19  N   LIG    1       30.142   0.665  29.142  0.00  0.00    -0.315 N 
ATOM     20  C   LIG    1       30.178   1.953  28.434  0.00  0.00    +0.131 C 
BRANCH  19  21
ATOM     21  C   LIG    1       29.601  -0.350  28.326  0.00  0.00    +0.121 A 
ATOM     22  C   LIG    1       29.033  -0.071  27.079  0.00  0.00    +0.043 A 
ATOM     23  C   LIG    1       28.515  -1.085  26.269  0.00  0.00    +0.005 A 
ATOM     24  C   LIG    1       28.647  -2.397  26.671  0.00  0.00    +0.020 A 
ATOM     25  C   LIG    1       29.282  -2.626  27.875  0.00  0.00    +0.113 A 
ATOM     26  N   LIG    1       29.736  -1.645  28.695  0.00  0.00    -0.240 NA
ENDBRANCH  19  21
ENDBRANCH  18  19
ENDBRANCH  17  18
ENDBRANCH  16  17
ENDBRANCH   4  16
TORSDOF 7
ENDMDL
MODEL 9
REMARK VINA RESULT:      -7.0      3.249      5.667
REMARK  Name = 
REMARK                            x       y       z     vdW  Elec       q    Type
REMARK                         _______ _______ _______ _____ _____    ______ ____
ROOT
ATOM      1  C   LIG    1       33.565  -2.955  19.688  0.00  0.00    -0.046 A 
ATOM      2  C   LIG    1       32.346  -3.201  20.316  0.00  0.00    +0.007 A 
ATOM      3  C   LIG    1       32.282  -3.385  21.692  0.00  0.00    +0.046 A 
ATOM      4  C   LIG    1       33.436  -3.381  22.485  0.00  0.00    +0.121 A 
ATOM      5  C   LIG    1       34.664  -3.164  21.861  0.00  0.00    +0.046 A 
ATOM      6  C   LIG    1       34.728  -2.946  20.473  0.00  0.00    +0.007 A 
ENDROOT
BRANCH   1   7
ATOM      7  C   LIG    1       33.589  -2.725  18.194  0.00  0.00    +0.059 C 
BRANCH   7  10
ATOM      8  O   LIG    1       36.484  -2.283  16.741  0.00  0.00    -0.274 OA
ATOM      9  C   LIG    1       35.463  -2.894  16.452  0.00  0.00    +0.234 C 
ATOM     10  C   LIG    1       34.565  -3.635  17.433  0.00  0.00    +0.146 C 
ATOM     11  S   LIG    1       33.591  -4.751  16.344  0.00  0.00    -0.054 S 
ATOM     12  C   LIG    1       34.152  -3.985  14.879  0.00  0.00    +0.279 C 
ATOM     13  O   LIG    1       33.837  -4.340  13.759  0.00  0.00    -0.263 OA
ATOM     14  N   LIG    1       35.020  -2.991  15.170  0.00  0.00    -0.246 N 
ATOM     15  H   LIG    1       35.550  -2.573  14.421  0.00  0.00    +0.158 HD
ENDBRANCH   7  10
ENDBRANCH   1   7
BRANCH   4  16
ATOM     16  O   LIG    1       33.443  -3.588  23.855  0.00  0.00    -0.490 OA
BRANCH  16  17
ATOM     17  C   LIG    1       32.390  -2.862  24.503  0.00  0.00    +0.248 C 
BRANCH  17  18
ATOM     18  C   LIG    1       32.472  -2.730  26.017  0.00  0.00    +0.147 C 
BRANCH  18  19
ATOM     19  N   LIG    1       31.923  -1.455  26.577  0.00  0.00    -0.315 N 
ATOM     20  C   LIG    1       31.010  -1.693  27.704  0.00  0.00    +0.131 C 
BRANCH  19  21
ATOM     21  C   LIG    1       32.734  -0.326  26.809  0.00  0.00    +0.121 A 
ATOM     22  C   LIG    1       32.660   0.816  26.005  0.00  0.00    +0.043 A 
ATOM     23  C   LIG    1       33.455   1.938  26.252  0.00  0.00    +0.005 A 
ATOM     24  C   LIG    1       34.267   1.951  27.366  0.00  0.00    +0.020 A 
ATOM     25  C   LIG    1       34.251   0.829  28.170  0.00  0.00    +0.113 A 
ATOM     26  N   LIG    1       33.526  -0.287  27.906  0.00  0.00    -0.240 NA
ENDBRANCH  19  21
ENDBRANCH  18  19
ENDBRANCH  17  18
ENDBRANCH  16  17
ENDBRANCH   4  16
TORSDOF 7
ENDMDL
