MODEL 1
REMARK VINA RESULT:      -7.8      0.000      0.000
REMARK  Name = 
REMARK                            x       y       z     vdW  Elec       q    Type
REMARK                         _______ _______ _______ _____ _____    ______ ____
ROOT
ATOM      1  C   LIG    1       67.052  46.482  94.494  0.00  0.00    -0.046 A 
ATOM      2  C   LIG    1       65.994  45.926  95.210  0.00  0.00    +0.007 A 
ATOM      3  C   LIG    1       66.209  45.332  96.448  0.00  0.00    +0.046 A 
ATOM      4  C   LIG    1       67.494  45.226  96.994  0.00  0.00    +0.121 A 
ATOM      5  C   LIG    1       68.563  45.755  96.273  0.00  0.00    +0.046 A 
ATOM      6  C   LIG    1       68.344  46.384  95.033  0.00  0.00    +0.007 A 
ENDROOT
BRANCH   1   7
ATOM      7  C   LIG    1       66.772  47.150  93.168  0.00  0.00    +0.059 C 
BRANCH   7  10
ATOM      8  O   LIG    1       68.681  49.324  91.643  0.00  0.00    -0.274 OA
ATOM      9  C   LIG    1       68.276  49.192  92.792  0.00  0.00    +0.234 C 
ATOM     10  C   LIG    1       66.900  48.681  93.196  0.00  0.00    +0.146 C 
ATOM     11  S   LIG    1       66.742  49.246  94.938  0.00  0.00    -0.054 S 
ATOM     12  C   LIG    1       68.414  49.734  95.044  0.00  0.00    +0.279 C 
ATOM     13  O   LIG    1       68.916  50.241  96.029  0.00  0.00    -0.263 OA
ATOM     14  N   LIG    1       69.042  49.521  93.867  0.00  0.00    -0.246 N 
ATOM     15  H   LIG    1       69.963  49.907  93.729  0.00  0.00    +0.158 HD
ENDBRANCH   7  10
ENDBRANCH   1   7
BRANCH   4  16
ATOM     16  O   LIG    1       67.780  44.621  98.208  0.00  0.00    -0.490 OA
BRANCH  16  17
ATOM     17  C   LIG    1       66.641  44.622  99.079  0.00  0.00    +0.248 C 
BRANCH  17  18
ATOM     18  C   LIG    1       66.262  45.950  99.719  0.00  0.00    +0.147 C 
BRANCH  18  19
ATOM     19  N   LIG    1       67.338  46.595 100.536  0.00  0.00    -0.315 N 
ATOM     20  C   LIG    1       68.165  45.605 101.242  0.00  0.00    +0.131 C 
BRANCH  19  21
ATOM     21  C   LIG    1       68.123  47.655 100.041  0.00  0.00    +0.121 A 
ATOM     22  C   LIG    1       67.943  48.973 100.474  0.00  0.00    +0.043 A 
ATOM     23  C   LIG    1       68.738  50.016  99.991  0.00  0.00    +0.005 A 
ATOM     24  C   LIG    1       69.779  49.724  99.136  0.00  0.00    +0.020 A 
ATOM     25  C   LIG    1       69.962  48.399  98.796  0.00  0.00    +0.113 A 
ATOM     26  N   LIG    1       69.160  47.387  99.213  0.00  0.00    -0.240 NA
ENDBRANCH  19  21
ENDBRANCH  18  19
ENDBRANCH  17  18
ENDBRANCH  16  17
ENDBRANCH   4  16
TORSDOF 7
ENDMDL
MODEL 2
REMARK VINA RESULT:      -7.7      1.831      3.895
REMARK  Name = 
REMARK                            x       y       z     vdW  Elec       q    Type
REMARK                         _______ _______ _______ _____ _____    ______ ____
ROOT
ATOM      1  C   LIG    1       68.352  48.832  97.239  0.00  0.00    -0.046 A 
ATOM      2  C   LIG    1       69.414  47.968  97.495  0.00  0.00    +0.007 A 
ATOM      3  C   LIG    1       69.602  47.431  98.763  0.00  0.00    +0.046 A 
ATOM      4  C   LIG    1       68.769  47.775  99.834  0.00  0.00    +0.121 A 
ATOM      5  C   LIG    1       67.720  48.661  99.594  0.00  0.00    +0.046 A 
ATOM      6  C   LIG    1       67.507  49.182  98.305  0.00  0.00    +0.007 A 
ENDROOT
BRANCH   1   7
ATOM      7  C   LIG    1       68.159  49.367  95.839  0.00  0.00    +0.059 C 
BRANCH   7  10
ATOM      8  O   LIG    1       70.952  48.145  94.656  0.00  0.00    -0.274 OA
ATOM      9  C   LIG    1       69.912  48.553  94.153  0.00  0.00    +0.234 C 
ATOM     10  C   LIG    1       68.515  48.366  94.729  0.00  0.00    +0.146 C 
ATOM     11  S   LIG    1       67.424  48.687  93.284  0.00  0.00    -0.054 S 
ATOM     12  C   LIG    1       68.732  49.285  92.295  0.00  0.00    +0.279 C 
ATOM     13  O   LIG    1       68.603  49.651  91.142  0.00  0.00    -0.263 OA
ATOM     14  N   LIG    1       69.900  49.227  92.972  0.00  0.00    -0.246 N 
ATOM     15  H   LIG    1       70.761  49.382  92.472  0.00  0.00    +0.158 HD
ENDBRANCH   7  10
ENDBRANCH   1   7
BRANCH   4  16
ATOM     16  O   LIG    1       68.920  47.299 101.126  0.00  0.00    -0.490 OA
BRANCH  16  17
ATOM     17  C   LIG    1       68.116  46.134 101.356  0.00  0.00    +0.248 C 
BRANCH  17  18
ATOM     18  C   LIG    1       68.173  45.037 100.305  0.00  0.00    +0.147 C 
BRANCH  18  19
ATOM     19  N   LIG    1       66.919  44.848  99.509  0.00  0.00    -0.315 N 
ATOM     20  C   LIG    1       65.739  45.390 100.200  0.00  0.00    +0.131 C 
BRANCH  19  21
ATOM     21  C   LIG    1       66.862  45.105  98.125  0.00  0.00    +0.121 A 
ATOM     22  C   LIG    1       65.988  46.054  97.584  0.00  0.00    +0.043 A 
ATOM     23  C   LIG    1       65.950  46.315  96.212  0.00  0.00    +0.005 A 
ATOM     24  C   LIG    1       66.856  45.684  95.385  0.00  0.00    +0.020 A 
ATOM     25  C   LIG    1       67.746  44.812  95.976  0.00  0.00    +0.113 A 
ATOM     26  N   LIG    1       67.752  44.508  97.299  0.00  0.00    -0.240 NA
ENDBRANCH  19  21
ENDBRANCH  18  19
ENDBRANCH  17  18
ENDBRANCH  16  17
ENDBRANCH   4  16
TORSDOF 7
ENDMDL
MODEL 3
REMARK VINA RESULT:      -7.6      1.798      2.200
REMARK  Name = 
REMARK                            x       y       z     vdW  Elec       q    Type
REMARK                         _______ _______ _______ _____ _____    ______ ____
ROOT
ATOM      1  C   LIG    1       67.066  46.987  95.239  0.00  0.00    -0.046 A 
ATOM      2  C   LIG    1       66.613  47.695  96.350  0.00  0.00    +0.007 A 
ATOM      3  C   LIG    1       66.327  47.039  97.541  0.00  0.00    +0.046 A 
ATOM      4  C   LIG    1       66.434  45.648  97.654  0.00  0.00    +0.121 A 
ATOM      5  C   LIG    1       66.860  44.927  96.539  0.00  0.00    +0.046 A 
ATOM      6  C   LIG    1       67.181  45.592  95.341  0.00  0.00    +0.007 A 
ENDROOT
BRANCH   1   7
ATOM      7  C   LIG    1       67.400  47.741  93.972  0.00  0.00    +0.059 C 
BRANCH   7  10
ATOM      8  O   LIG    1       70.146  46.953  95.563  0.00  0.00    -0.274 OA
ATOM      9  C   LIG    1       69.822  47.860  94.806  0.00  0.00    +0.234 C 
ATOM     10  C   LIG    1       68.892  47.726  93.608  0.00  0.00    +0.146 C 
ATOM     11  S   LIG    1       69.266  49.233  92.623  0.00  0.00    -0.054 S 
ATOM     12  C   LIG    1       70.228  49.952  93.889  0.00  0.00    +0.279 C 
ATOM     13  O   LIG    1       70.796  51.023  93.790  0.00  0.00    -0.263 OA
ATOM     14  N   LIG    1       70.294  49.126  94.957  0.00  0.00    -0.246 N 
ATOM     15  H   LIG    1       70.949  49.335  95.694  0.00  0.00    +0.158 HD
ENDBRANCH   7  10
ENDBRANCH   1   7
BRANCH   4  16
ATOM     16  O   LIG    1       66.136  44.931  98.802  0.00  0.00    -0.490 OA
BRANCH  16  17
ATOM     17  C   LIG    1       66.176  45.764  99.968  0.00  0.00    +0.248 C 
BRANCH  17  18
ATOM     18  C   LIG    1       67.335  45.551 100.930  0.00  0.00    +0.147 C 
BRANCH  18  19
ATOM     19  N   LIG    1       68.654  46.092 100.471  0.00  0.00    -0.315 N 
ATOM     20  C   LIG    1       69.368  45.145  99.601  0.00  0.00    +0.131 C 
BRANCH  19  21
ATOM     21  C   LIG    1       68.805  47.416 100.014  0.00  0.00    +0.121 A 
ATOM     22  C   LIG    1       69.515  47.720  98.848  0.00  0.00    +0.043 A 
ATOM     23  C   LIG    1       69.646  49.034  98.392  0.00  0.00    +0.005 A 
ATOM     24  C   LIG    1       68.984  50.043  99.060  0.00  0.00    +0.020 A 
ATOM     25  C   LIG    1       68.236  49.684 100.162  0.00  0.00    +0.113 A 
ATOM     26  N   LIG    1       68.151  48.419 100.646  0.00  0.00    -0.240 NA
ENDBRANCH  19  21
ENDBRANCH  18  19
ENDBRANCH  17  18
ENDBRANCH  16  17
ENDBRANCH   4  16
TORSDOF 7
ENDMDL
MODEL 4
REMARK VINA RESULT:      -7.6      2.230      6.100
REMARK  Name = 
REMARK                            x       y       z     vdW  Elec       q    Type
REMARK                         _______ _______ _______ _____ _____    ______ ____
ROOT
ATOM      1  C   LIG    1       67.374  45.258  97.850  0.00  0.00    -0.046 A 
ATOM      2  C   LIG    1       67.759  44.869  96.569  0.00  0.00    +0.007 A 
ATOM      3  C   LIG    1       67.234  45.501  95.448  0.00  0.00    +0.046 A 
ATOM      4  C   LIG    1       66.269  46.509  95.561  0.00  0.00    +0.121 A 
ATOM      5  C   LIG    1       65.856  46.886  96.839  0.00  0.00    +0.046 A 
ATOM      6  C   LIG    1       66.409  46.269  97.976  0.00  0.00    +0.007 A 
ENDROOT
BRANCH   1   7
ATOM      7  C   LIG    1       67.994  44.570  99.044  0.00  0.00    +0.059 C 
BRANCH   7  10
ATOM      8  O   LIG    1       68.432  45.538 102.136  0.00  0.00    -0.274 OA
ATOM      9  C   LIG    1       68.547  46.078 101.043  0.00  0.00    +0.234 C 
ATOM     10  C   LIG    1       69.055  45.410  99.772  0.00  0.00    +0.146 C 
ATOM     11  S   LIG    1       69.502  46.837  98.703  0.00  0.00    -0.054 S 
ATOM     12  C   LIG    1       68.757  48.004  99.766  0.00  0.00    +0.279 C 
ATOM     13  O   LIG    1       68.759  49.204  99.571  0.00  0.00    -0.263 OA
ATOM     14  N   LIG    1       68.237  47.388 100.851  0.00  0.00    -0.246 N 
ATOM     15  H   LIG    1       67.924  47.950 101.627  0.00  0.00    +0.158 HD
ENDBRANCH   7  10
ENDBRANCH   1   7
BRANCH   4  16
ATOM     16  O   LIG    1       65.685  47.157  94.485  0.00  0.00    -0.490 OA
BRANCH  16  17
ATOM     17  C   LIG    1       66.269  46.745  93.242  0.00  0.00    +0.248 C 
BRANCH  17  18
ATOM     18  C   LIG    1       66.779  47.843  92.320  0.00  0.00    +0.147 C 
BRANCH  18  19
ATOM     19  N   LIG    1       68.220  48.207  92.496  0.00  0.00    -0.315 N 
ATOM     20  C   LIG    1       68.647  49.248  91.549  0.00  0.00    +0.131 C 
BRANCH  19  21
ATOM     21  C   LIG    1       68.795  48.407  93.767  0.00  0.00    +0.121 A 
ATOM     22  C   LIG    1       69.928  47.701  94.186  0.00  0.00    +0.043 A 
ATOM     23  C   LIG    1       70.502  47.919  95.441  0.00  0.00    +0.005 A 
ATOM     24  C   LIG    1       69.991  48.914  96.247  0.00  0.00    +0.020 A 
ATOM     25  C   LIG    1       68.919  49.632  95.759  0.00  0.00    +0.113 A 
ATOM     26  N   LIG    1       68.319  49.389  94.567  0.00  0.00    -0.240 NA
ENDBRANCH  19  21
ENDBRANCH  18  19
ENDBRANCH  17  18
ENDBRANCH  16  17
ENDBRANCH   4  16
TORSDOF 7
ENDMDL
MODEL 5
REMARK VINA RESULT:      -6.9      1.611      2.242
REMARK  Name = 
REMARK                            x       y       z     vdW  Elec       q    Type
REMARK                         _______ _______ _______ _____ _____    ______ ____
ROOT
ATOM      1  C   LIG    1       68.186  46.906  95.995  0.00  0.00    -0.046 A 
ATOM      2  C   LIG    1       68.523  45.594  96.322  0.00  0.00    +0.007 A 
ATOM      3  C   LIG    1       67.752  44.867  97.221  0.00  0.00    +0.046 A 
ATOM      4  C   LIG    1       66.648  45.437  97.866  0.00  0.00    +0.121 A 
ATOM      5  C   LIG    1       66.320  46.759  97.567  0.00  0.00    +0.046 A 
ATOM      6  C   LIG    1       67.079  47.488  96.633  0.00  0.00    +0.007 A 
ENDROOT
BRANCH   1   7
ATOM      7  C   LIG    1       69.029  47.652  94.986  0.00  0.00    +0.059 C 
BRANCH   7  10
ATOM      8  O   LIG    1       66.033  48.229  93.809  0.00  0.00    -0.274 OA
ATOM      9  C   LIG    1       67.168  48.512  93.446  0.00  0.00    +0.234 C 
ATOM     10  C   LIG    1       68.330  48.870  94.362  0.00  0.00    +0.146 C 
ATOM     11  S   LIG    1       69.513  49.702  93.227  0.00  0.00    -0.054 S 
ATOM     12  C   LIG    1       68.623  49.249  91.796  0.00  0.00    +0.279 C 
ATOM     13  O   LIG    1       68.941  49.566  90.665  0.00  0.00    -0.263 OA
ATOM     14  N   LIG    1       67.513  48.555  92.131  0.00  0.00    -0.246 N 
ATOM     15  H   LIG    1       66.819  48.374  91.422  0.00  0.00    +0.158 HD
ENDBRANCH   7  10
ENDBRANCH   1   7
BRANCH   4  16
ATOM     16  O   LIG    1       65.858  44.777  98.793  0.00  0.00    -0.490 OA
BRANCH  16  17
ATOM     17  C   LIG    1       66.590  44.473  99.988  0.00  0.00    +0.248 C 
BRANCH  17  18
ATOM     18  C   LIG    1       66.906  45.633 100.920  0.00  0.00    +0.147 C 
BRANCH  18  19
ATOM     19  N   LIG    1       68.281  46.209 100.780  0.00  0.00    -0.315 N 
ATOM     20  C   LIG    1       69.278  45.184 100.435  0.00  0.00    +0.131 C 
BRANCH  19  21
ATOM     21  C   LIG    1       68.525  47.411 100.086  0.00  0.00    +0.121 A 
ATOM     22  C   LIG    1       67.754  48.559 100.301  0.00  0.00    +0.043 A 
ATOM     23  C   LIG    1       68.014  49.751  99.622  0.00  0.00    +0.005 A 
ATOM     24  C   LIG    1       69.109  49.822  98.787  0.00  0.00    +0.020 A 
ATOM     25  C   LIG    1       69.881  48.686  98.665  0.00  0.00    +0.113 A 
ATOM     26  N   LIG    1       69.604  47.506  99.275  0.00  0.00    -0.240 NA
ENDBRANCH  19  21
ENDBRANCH  18  19
ENDBRANCH  17  18
ENDBRANCH  16  17
ENDBRANCH   4  16
TORSDOF 7
ENDMDL
MODEL 6
REMARK VINA RESULT:      -6.8      2.432      6.563
REMARK  Name = 
REMARK                            x       y       z     vdW  Elec       q    Type
REMARK                         _______ _______ _______ _____ _____    ______ ____
ROOT
ATOM      1  C   LIG    1       69.643  47.784  96.965  0.00  0.00    -0.046 A 
ATOM      2  C   LIG    1       69.174  49.096  96.965  0.00  0.00    +0.007 A 
ATOM      3  C   LIG    1       69.112  49.827  95.785  0.00  0.00    +0.046 A 
ATOM      4  C   LIG    1       69.562  49.296  94.571  0.00  0.00    +0.121 A 
ATOM      5  C   LIG    1       70.060  47.993  94.565  0.00  0.00    +0.046 A 
ATOM      6  C   LIG    1       70.095  47.239  95.753  0.00  0.00    +0.007 A 
ENDROOT
BRANCH   1   7
ATOM      7  C   LIG    1       69.663  47.009  98.263  0.00  0.00    +0.059 C 
BRANCH   7  10
ATOM      8  O   LIG    1       68.760  49.047 100.655  0.00  0.00    -0.274 OA
ATOM      9  C   LIG    1       68.643  47.843 100.463  0.00  0.00    +0.234 C 
ATOM     10  C   LIG    1       68.396  47.179  99.115  0.00  0.00    +0.146 C 
ATOM     11  S   LIG    1       67.779  45.511  99.581  0.00  0.00    -0.054 S 
ATOM     12  C   LIG    1       68.180  45.717 101.267  0.00  0.00    +0.279 C 
ATOM     13  O   LIG    1       67.962  44.885 102.127  0.00  0.00    -0.263 OA
ATOM     14  N   LIG    1       68.709  46.942 101.480  0.00  0.00    -0.246 N 
ATOM     15  H   LIG    1       68.832  47.261 102.428  0.00  0.00    +0.158 HD
ENDBRANCH   7  10
ENDBRANCH   1   7
BRANCH   4  16
ATOM     16  O   LIG    1       69.555  49.982  93.367  0.00  0.00    -0.490 OA
BRANCH  16  17
ATOM     17  C   LIG    1       68.401  49.654  92.581  0.00  0.00    +0.248 C 
BRANCH  17  18
ATOM     18  C   LIG    1       68.061  48.179  92.434  0.00  0.00    +0.147 C 
BRANCH  18  19
ATOM     19  N   LIG    1       66.735  47.769  92.994  0.00  0.00    -0.315 N 
ATOM     20  C   LIG    1       65.884  47.122  91.984  0.00  0.00    +0.131 C 
BRANCH  19  21
ATOM     21  C   LIG    1       66.612  47.134  94.246  0.00  0.00    +0.121 A 
ATOM     22  C   LIG    1       66.184  47.824  95.386  0.00  0.00    +0.043 A 
ATOM     23  C   LIG    1       66.048  47.183  96.620  0.00  0.00    +0.005 A 
ATOM     24  C   LIG    1       66.256  45.822  96.694  0.00  0.00    +0.020 A 
ATOM     25  C   LIG    1       66.605  45.174  95.527  0.00  0.00    +0.113 A 
ATOM     26  N   LIG    1       66.797  45.797  94.337  0.00  0.00    -0.240 NA
ENDBRANCH  19  21
ENDBRANCH  18  19
ENDBRANCH  17  18
ENDBRANCH  16  17
ENDBRANCH   4  16
TORSDOF 7
ENDMDL
MODEL 7
REMARK VINA RESULT:      -6.7      2.409      5.872
REMARK  Name = 
REMARK                            x       y       z     vdW  Elec       q    Type
REMARK                         _______ _______ _______ _____ _____    ______ ____
ROOT
ATOM      1  C   LIG    1       66.125  46.192  98.211  0.00  0.00    -0.046 A 
ATOM      2  C   LIG    1       66.712  45.053  97.664  0.00  0.00    +0.007 A 
ATOM      3  C   LIG    1       66.979  44.976  96.303  0.00  0.00    +0.046 A 
ATOM      4  C   LIG    1       66.626  46.011  95.429  0.00  0.00    +0.121 A 
ATOM      5  C   LIG    1       66.013  47.144  95.962  0.00  0.00    +0.046 A 
ATOM      6  C   LIG    1       65.769  47.238  97.345  0.00  0.00    +0.007 A 
ENDROOT
BRANCH   1   7
ATOM      7  C   LIG    1       65.883  46.251  99.702  0.00  0.00    +0.059 C 
BRANCH   7  10
ATOM      8  O   LIG    1       67.736  48.938  99.516  0.00  0.00    -0.274 OA
ATOM      9  C   LIG    1       67.961  47.753  99.724  0.00  0.00    +0.234 C 
ATOM     10  C   LIG    1       67.067  46.803 100.510  0.00  0.00    +0.146 C 
ATOM     11  S   LIG    1       68.196  45.410 100.915  0.00  0.00    -0.054 S 
ATOM     12  C   LIG    1       69.460  45.987  99.859  0.00  0.00    +0.279 C 
ATOM     13  O   LIG    1       70.539  45.442  99.725  0.00  0.00    -0.263 OA
ATOM     14  N   LIG    1       69.089  47.144  99.268  0.00  0.00    -0.246 N 
ATOM     15  H   LIG    1       69.780  47.677  98.764  0.00  0.00    +0.158 HD
ENDBRANCH   7  10
ENDBRANCH   1   7
BRANCH   4  16
ATOM     16  O   LIG    1       66.837  45.984  94.060  0.00  0.00    -0.490 OA
BRANCH  16  17
ATOM     17  C   LIG    1       66.186  47.081  93.404  0.00  0.00    +0.248 C 
BRANCH  17  18
ATOM     18  C   LIG    1       66.951  47.771  92.286  0.00  0.00    +0.147 C 
BRANCH  18  19
ATOM     19  N   LIG    1       68.349  48.183  92.627  0.00  0.00    -0.315 N 
ATOM     20  C   LIG    1       68.854  49.230  91.726  0.00  0.00    +0.131 C 
BRANCH  19  21
ATOM     21  C   LIG    1       68.761  48.412  93.955  0.00  0.00    +0.121 A 
ATOM     22  C   LIG    1       69.731  47.617  94.576  0.00  0.00    +0.043 A 
ATOM     23  C   LIG    1       70.147  47.861  95.887  0.00  0.00    +0.005 A 
ATOM     24  C   LIG    1       69.654  48.964  96.552  0.00  0.00    +0.020 A 
ATOM     25  C   LIG    1       68.755  49.759  95.871  0.00  0.00    +0.113 A 
ATOM     26  N   LIG    1       68.301  49.497  94.620  0.00  0.00    -0.240 NA
ENDBRANCH  19  21
ENDBRANCH  18  19
ENDBRANCH  17  18
ENDBRANCH  16  17
ENDBRANCH   4  16
TORSDOF 7
ENDMDL
MODEL 8
REMARK VINA RESULT:      -6.5      2.474      6.000
REMARK  Name = 
REMARK                            x       y       z     vdW  Elec       q    Type
REMARK                         _______ _______ _______ _____ _____    ______ ____
ROOT
ATOM      1  C   LIG    1       67.444  45.885  96.975  0.00  0.00    -0.046 A 
ATOM      2  C   LIG    1       66.461  46.870  96.913  0.00  0.00    +0.007 A 
ATOM      3  C   LIG    1       65.856  47.194  95.704  0.00  0.00    +0.046 A 
ATOM      4  C   LIG    1       66.243  46.583  94.506  0.00  0.00    +0.121 A 
ATOM      5  C   LIG    1       67.245  45.615  94.553  0.00  0.00    +0.046 A 
ATOM      6  C   LIG    1       67.838  45.263  95.780  0.00  0.00    +0.007 A 
ENDROOT
BRANCH   1   7
ATOM      7  C   LIG    1       68.053  45.537  98.313  0.00  0.00    +0.059 C 
BRANCH   7  10
ATOM      8  O   LIG    1       68.898  48.027 100.257  0.00  0.00    -0.274 OA
ATOM      9  C   LIG    1       68.385  46.930 100.440  0.00  0.00    +0.234 C 
ATOM     10  C   LIG    1       67.395  46.245  99.507  0.00  0.00    +0.146 C 
ATOM     11  S   LIG    1       66.621  44.973 100.584  0.00  0.00    -0.054 S 
ATOM     12  C   LIG    1       67.766  45.217 101.878  0.00  0.00    +0.279 C 
ATOM     13  O   LIG    1       67.734  44.624 102.939  0.00  0.00    -0.263 OA
ATOM     14  N   LIG    1       68.645  46.190 101.551  0.00  0.00    -0.246 N 
ATOM     15  H   LIG    1       69.258  46.553 102.265  0.00  0.00    +0.158 HD
ENDBRANCH   7  10
ENDBRANCH   1   7
BRANCH   4  16
ATOM     16  O   LIG    1       65.701  46.880  93.266  0.00  0.00    -0.490 OA
BRANCH  16  17
ATOM     17  C   LIG    1       66.700  47.357  92.355  0.00  0.00    +0.248 C 
BRANCH  17  18
ATOM     18  C   LIG    1       67.360  48.687  92.687  0.00  0.00    +0.147 C 
BRANCH  18  19
ATOM     19  N   LIG    1       68.694  48.588  93.360  0.00  0.00    -0.315 N 
ATOM     20  C   LIG    1       69.774  49.145  92.532  0.00  0.00    +0.131 C 
BRANCH  19  21
ATOM     21  C   LIG    1       68.876  48.911  94.719  0.00  0.00    +0.121 A 
ATOM     22  C   LIG    1       68.062  49.843  95.373  0.00  0.00    +0.043 A 
ATOM     23  C   LIG    1       68.238  50.145  96.726  0.00  0.00    +0.005 A 
ATOM     24  C   LIG    1       69.177  49.443  97.452  0.00  0.00    +0.020 A 
ATOM     25  C   LIG    1       69.904  48.483  96.779  0.00  0.00    +0.113 A 
ATOM     26  N   LIG    1       69.781  48.223  95.453  0.00  0.00    -0.240 NA
ENDBRANCH  19  21
ENDBRANCH  18  19
ENDBRANCH  17  18
ENDBRANCH  16  17
ENDBRANCH   4  16
TORSDOF 7
ENDMDL
MODEL 9
REMARK VINA RESULT:      -6.2      2.204      6.779
REMARK  Name = 
REMARK                            x       y       z     vdW  Elec       q    Type
REMARK                         _______ _______ _______ _____ _____    ______ ____
ROOT
ATOM      1  C   LIG    1       68.351  48.386  99.551  0.00  0.00    -0.046 A 
ATOM      2  C   LIG    1       69.503  49.130  99.310  0.00  0.00    +0.007 A 
ATOM      3  C   LIG    1       69.641  49.867  98.140  0.00  0.00    +0.046 A 
ATOM      4  C   LIG    1       68.657  49.850  97.145  0.00  0.00    +0.121 A 
ATOM      5  C   LIG    1       67.511  49.086  97.364  0.00  0.00    +0.046 A 
ATOM      6  C   LIG    1       67.355  48.364  98.562  0.00  0.00    +0.007 A 
ENDROOT
BRANCH   1   7
ATOM      7  C   LIG    1       68.224  47.626 100.851  0.00  0.00    +0.059 C 
BRANCH   7  10
ATOM      8  O   LIG    1       69.720  45.777  98.607  0.00  0.00    -0.274 OA
ATOM      9  C   LIG    1       68.730  45.637  99.314  0.00  0.00    +0.234 C 
ATOM     10  C   LIG    1       68.583  46.136 100.745  0.00  0.00    +0.146 C 
ATOM     11  S   LIG    1       67.169  45.149 101.385  0.00  0.00    -0.054 S 
ATOM     12  C   LIG    1       66.760  44.516  99.811  0.00  0.00    +0.279 C 
ATOM     13  O   LIG    1       65.855  43.730  99.606  0.00  0.00    -0.263 OA
ATOM     14  N   LIG    1       67.623  44.977  98.879  0.00  0.00    -0.246 N 
ATOM     15  H   LIG    1       67.611  44.566  97.959  0.00  0.00    +0.158 HD
ENDBRANCH   7  10
ENDBRANCH   1   7
BRANCH   4  16
ATOM     16  O   LIG    1       68.745  50.538  95.946  0.00  0.00    -0.490 OA
BRANCH  16  17
ATOM     17  C   LIG    1       69.688  49.926  95.055  0.00  0.00    +0.248 C 
BRANCH  17  18
ATOM     18  C   LIG    1       69.345  49.935  93.573  0.00  0.00    +0.147 C 
BRANCH  18  19
ATOM     19  N   LIG    1       68.723  48.676  93.054  0.00  0.00    -0.315 N 
ATOM     20  C   LIG    1       69.560  48.024  92.036  0.00  0.00    +0.131 C 
BRANCH  19  21
ATOM     21  C   LIG    1       68.124  47.727  93.906  0.00  0.00    +0.121 A 
ATOM     22  C   LIG    1       66.748  47.476  93.883  0.00  0.00    +0.043 A 
ATOM     23  C   LIG    1       66.165  46.521  94.719  0.00  0.00    +0.005 A 
ATOM     24  C   LIG    1       66.977  45.747  95.521  0.00  0.00    +0.020 A 
ATOM     25  C   LIG    1       68.335  45.982  95.454  0.00  0.00    +0.113 A 
ATOM     26  N   LIG    1       68.905  46.947  94.689  0.00  0.00    -0.240 NA
ENDBRANCH  19  21
ENDBRANCH  18  19
ENDBRANCH  17  18
ENDBRANCH  16  17
ENDBRANCH   4  16
TORSDOF 7
ENDMDL
