MODEL 1
REMARK VINA RESULT:      -8.9      0.000      0.000
REMARK  Name = 
REMARK                            x       y       z     vdW  Elec       q    Type
REMARK                         _______ _______ _______ _____ _____    ______ ____
ROOT
ATOM      1  C   LIG    1       38.539  32.035   8.226  0.00  0.00    -0.046 A 
ATOM      2  C   LIG    1       37.533  32.685   8.937  0.00  0.00    +0.007 A 
ATOM      3  C   LIG    1       37.114  33.958   8.571  0.00  0.00    +0.046 A 
ATOM      4  C   LIG    1       37.717  34.651   7.515  0.00  0.00    +0.121 A 
ATOM      5  C   LIG    1       38.745  34.021   6.814  0.00  0.00    +0.046 A 
ATOM      6  C   LIG    1       39.150  32.719   7.162  0.00  0.00    +0.007 A 
ENDROOT
BRANCH   1   7
ATOM      7  C   LIG    1       38.943  30.637   8.632  0.00  0.00    +0.059 C 
BRANCH   7  10
ATOM      8  O   LIG    1       39.757  29.864  11.703  0.00  0.00    -0.274 OA
ATOM      9  C   LIG    1       39.054  29.346  10.845  0.00  0.00    +0.234 C 
ATOM     10  C   LIG    1       38.177  30.090   9.847  0.00  0.00    +0.146 C 
ATOM     11  S   LIG    1       37.015  28.790   9.265  0.00  0.00    -0.054 S 
ATOM     12  C   LIG    1       37.902  27.500  10.037  0.00  0.00    +0.279 C 
ATOM     13  O   LIG    1       37.567  26.332  10.014  0.00  0.00    -0.263 OA
ATOM     14  N   LIG    1       38.969  27.996  10.703  0.00  0.00    -0.246 N 
ATOM     15  H   LIG    1       39.475  27.391  11.331  0.00  0.00    +0.158 HD
ENDBRANCH   7  10
ENDBRANCH   1   7
BRANCH   4  16
ATOM     16  O   LIG    1       37.367  35.932   7.119  0.00  0.00    -0.490 OA
BRANCH  16  17
ATOM     17  C   LIG    1       37.775  36.197   5.770  0.00  0.00    +0.248 C 
BRANCH  17  18
ATOM     18  C   LIG    1       36.722  36.761   4.828  0.00  0.00    +0.147 C 
BRANCH  18  19
ATOM     19  N   LIG    1       36.307  35.852   3.714  0.00  0.00    -0.315 N 
ATOM     20  C   LIG    1       36.859  34.497   3.870  0.00  0.00    +0.131 C 
BRANCH  19  21
ATOM     21  C   LIG    1       34.984  35.810   3.230  0.00  0.00    +0.121 A 
ATOM     22  C   LIG    1       34.412  34.631   2.742  0.00  0.00    +0.043 A 
ATOM     23  C   LIG    1       33.094  34.594   2.281  0.00  0.00    +0.005 A 
ATOM     24  C   LIG    1       32.313  35.726   2.392  0.00  0.00    +0.020 A 
ATOM     25  C   LIG    1       32.901  36.843   2.949  0.00  0.00    +0.113 A 
ATOM     26  N   LIG    1       34.197  36.905   3.346  0.00  0.00    -0.240 NA
ENDBRANCH  19  21
ENDBRANCH  18  19
ENDBRANCH  17  18
ENDBRANCH  16  17
ENDBRANCH   4  16
TORSDOF 7
ENDMDL
MODEL 2
REMARK VINA RESULT:      -8.9      1.288      1.773
REMARK  Name = 
REMARK                            x       y       z     vdW  Elec       q    Type
REMARK                         _______ _______ _______ _____ _____    ______ ____
ROOT
ATOM      1  C   LIG    1       38.228  32.410   8.784  0.00  0.00    -0.046 A 
ATOM      2  C   LIG    1       38.771  32.737   7.543  0.00  0.00    +0.007 A 
ATOM      3  C   LIG    1       38.517  33.973   6.961  0.00  0.00    +0.046 A 
ATOM      4  C   LIG    1       37.674  34.909   7.571  0.00  0.00    +0.121 A 
ATOM      5  C   LIG    1       37.104  34.581   8.801  0.00  0.00    +0.046 A 
ATOM      6  C   LIG    1       37.384  33.342   9.407  0.00  0.00    +0.007 A 
ENDROOT
BRANCH   1   7
ATOM      7  C   LIG    1       38.556  31.069   9.400  0.00  0.00    +0.059 C 
BRANCH   7  10
ATOM      8  O   LIG    1       36.123  29.342   8.063  0.00  0.00    -0.274 OA
ATOM      9  C   LIG    1       37.213  29.059   8.544  0.00  0.00    +0.234 C 
ATOM     10  C   LIG    1       38.482  29.891   8.417  0.00  0.00    +0.146 C 
ATOM     11  S   LIG    1       39.809  28.692   8.844  0.00  0.00    -0.054 S 
ATOM     12  C   LIG    1       38.682  27.481   9.400  0.00  0.00    +0.279 C 
ATOM     13  O   LIG    1       39.007  26.383   9.809  0.00  0.00    -0.263 OA
ATOM     14  N   LIG    1       37.411  27.918   9.256  0.00  0.00    -0.246 N 
ATOM     15  H   LIG    1       36.654  27.263   9.378  0.00  0.00    +0.158 HD
ENDBRANCH   7  10
ENDBRANCH   1   7
BRANCH   4  16
ATOM     16  O   LIG    1       37.358  36.146   7.031  0.00  0.00    -0.490 OA
BRANCH  16  17
ATOM     17  C   LIG    1       37.782  36.248   5.665  0.00  0.00    +0.248 C 
BRANCH  17  18
ATOM     18  C   LIG    1       36.775  36.805   4.669  0.00  0.00    +0.147 C 
BRANCH  18  19
ATOM     19  N   LIG    1       36.295  35.836   3.636  0.00  0.00    -0.315 N 
ATOM     20  C   LIG    1       36.797  34.475   3.878  0.00  0.00    +0.131 C 
BRANCH  19  21
ATOM     21  C   LIG    1       34.958  35.814   3.190  0.00  0.00    +0.121 A 
ATOM     22  C   LIG    1       34.367  34.652   2.680  0.00  0.00    +0.043 A 
ATOM     23  C   LIG    1       33.036  34.635   2.256  0.00  0.00    +0.005 A 
ATOM     24  C   LIG    1       32.264  35.764   2.428  0.00  0.00    +0.020 A 
ATOM     25  C   LIG    1       32.871  36.861   3.004  0.00  0.00    +0.113 A 
ATOM     26  N   LIG    1       34.179  36.906   3.364  0.00  0.00    -0.240 NA
ENDBRANCH  19  21
ENDBRANCH  18  19
ENDBRANCH  17  18
ENDBRANCH  16  17
ENDBRANCH   4  16
TORSDOF 7
ENDMDL
MODEL 3
REMARK VINA RESULT:      -8.7      3.042     10.353
REMARK  Name = 
REMARK                            x       y       z     vdW  Elec       q    Type
REMARK                         _______ _______ _______ _____ _____    ______ ____
ROOT
ATOM      1  C   LIG    1       38.344  33.379   7.174  0.00  0.00    -0.046 A 
ATOM      2  C   LIG    1       37.709  32.540   8.088  0.00  0.00    +0.007 A 
ATOM      3  C   LIG    1       38.235  31.289   8.387  0.00  0.00    +0.046 A 
ATOM      4  C   LIG    1       39.385  30.808   7.749  0.00  0.00    +0.121 A 
ATOM      5  C   LIG    1       40.012  31.629   6.813  0.00  0.00    +0.046 A 
ATOM      6  C   LIG    1       39.499  32.909   6.531  0.00  0.00    +0.007 A 
ENDROOT
BRANCH   1   7
ATOM      7  C   LIG    1       37.760  34.746   6.902  0.00  0.00    +0.059 C 
BRANCH   7  10
ATOM      8  O   LIG    1       38.631  37.693   5.786  0.00  0.00    -0.274 OA
ATOM      9  C   LIG    1       37.875  36.815   5.391  0.00  0.00    +0.234 C 
ATOM     10  C   LIG    1       38.112  35.316   5.520  0.00  0.00    +0.146 C 
ATOM     11  S   LIG    1       36.952  34.605   4.283  0.00  0.00    -0.054 S 
ATOM     12  C   LIG    1       36.144  36.127   4.008  0.00  0.00    +0.279 C 
ATOM     13  O   LIG    1       35.237  36.284   3.213  0.00  0.00    -0.263 OA
ATOM     14  N   LIG    1       36.708  37.101   4.755  0.00  0.00    -0.246 N 
ATOM     15  H   LIG    1       36.455  38.061   4.575  0.00  0.00    +0.158 HD
ENDBRANCH   7  10
ENDBRANCH   1   7
BRANCH   4  16
ATOM     16  O   LIG    1       39.943  29.561   7.980  0.00  0.00    -0.490 OA
BRANCH  16  17
ATOM     17  C   LIG    1       39.071  28.729   8.757  0.00  0.00    +0.248 C 
BRANCH  17  18
ATOM     18  C   LIG    1       39.724  27.662   9.623  0.00  0.00    +0.147 C 
BRANCH  18  19
ATOM     19  N   LIG    1       40.317  28.155  10.906  0.00  0.00    -0.315 N 
ATOM     20  C   LIG    1       39.575  29.300  11.454  0.00  0.00    +0.131 C 
BRANCH  19  21
ATOM     21  C   LIG    1       40.728  27.278  11.929  0.00  0.00    +0.121 A 
ATOM     22  C   LIG    1       40.812  25.895  11.729  0.00  0.00    +0.043 A 
ATOM     23  C   LIG    1       41.238  25.034  12.743  0.00  0.00    +0.005 A 
ATOM     24  C   LIG    1       41.668  25.569  13.940  0.00  0.00    +0.020 A 
ATOM     25  C   LIG    1       41.636  26.943  14.062  0.00  0.00    +0.113 A 
ATOM     26  N   LIG    1       41.169  27.783  13.105  0.00  0.00    -0.240 NA
ENDBRANCH  19  21
ENDBRANCH  18  19
ENDBRANCH  17  18
ENDBRANCH  16  17
ENDBRANCH   4  16
TORSDOF 7
ENDMDL
MODEL 4
REMARK VINA RESULT:      -8.6      2.948      9.779
REMARK  Name = 
REMARK                            x       y       z     vdW  Elec       q    Type
REMARK                         _______ _______ _______ _____ _____    ______ ____
ROOT
ATOM      1  C   LIG    1       39.021  32.746   7.190  0.00  0.00    -0.046 A 
ATOM      2  C   LIG    1       40.122  31.903   7.308  0.00  0.00    +0.007 A 
ATOM      3  C   LIG    1       40.275  31.087   8.423  0.00  0.00    +0.046 A 
ATOM      4  C   LIG    1       39.361  31.120   9.483  0.00  0.00    +0.121 A 
ATOM      5  C   LIG    1       38.269  31.981   9.386  0.00  0.00    +0.046 A 
ATOM      6  C   LIG    1       38.096  32.785   8.245  0.00  0.00    +0.007 A 
ENDROOT
BRANCH   1   7
ATOM      7  C   LIG    1       38.872  33.592   5.946  0.00  0.00    +0.059 C 
BRANCH   7  10
ATOM      8  O   LIG    1       36.543  34.313   3.767  0.00  0.00    -0.274 OA
ATOM      9  C   LIG    1       37.205  34.966   4.564  0.00  0.00    +0.234 C 
ATOM     10  C   LIG    1       37.635  34.504   5.950  0.00  0.00    +0.146 C 
ATOM     11  S   LIG    1       38.074  36.077   6.794  0.00  0.00    -0.054 S 
ATOM     12  C   LIG    1       37.982  37.015   5.325  0.00  0.00    +0.279 C 
ATOM     13  O   LIG    1       38.165  38.216   5.270  0.00  0.00    -0.263 OA
ATOM     14  N   LIG    1       37.625  36.229   4.285  0.00  0.00    -0.246 N 
ATOM     15  H   LIG    1       37.371  36.663   3.412  0.00  0.00    +0.158 HD
ENDBRANCH   7  10
ENDBRANCH   1   7
BRANCH   4  16
ATOM     16  O   LIG    1       39.471  30.355  10.633  0.00  0.00    -0.490 OA
BRANCH  16  17
ATOM     17  C   LIG    1       38.361  29.458  10.778  0.00  0.00    +0.248 C 
BRANCH  17  18
ATOM     18  C   LIG    1       38.309  28.266   9.835  0.00  0.00    +0.147 C 
BRANCH  18  19
ATOM     19  N   LIG    1       39.078  27.063  10.282  0.00  0.00    -0.315 N 
ATOM     20  C   LIG    1       38.274  25.834  10.212  0.00  0.00    +0.131 C 
BRANCH  19  21
ATOM     21  C   LIG    1       40.406  26.826   9.874  0.00  0.00    +0.121 A 
ATOM     22  C   LIG    1       41.024  27.596   8.882  0.00  0.00    +0.043 A 
ATOM     23  C   LIG    1       42.346  27.366   8.496  0.00  0.00    +0.005 A 
ATOM     24  C   LIG    1       43.086  26.417   9.170  0.00  0.00    +0.020 A 
ATOM     25  C   LIG    1       42.455  25.736  10.190  0.00  0.00    +0.113 A 
ATOM     26  N   LIG    1       41.154  25.911  10.534  0.00  0.00    -0.240 NA
ENDBRANCH  19  21
ENDBRANCH  18  19
ENDBRANCH  17  18
ENDBRANCH  16  17
ENDBRANCH   4  16
TORSDOF 7
ENDMDL
MODEL 5
REMARK VINA RESULT:      -8.6      3.380     10.726
REMARK  Name = 
REMARK                            x       y       z     vdW  Elec       q    Type
REMARK                         _______ _______ _______ _____ _____    ______ ____
ROOT
ATOM      1  C   LIG    1       39.027  32.590   7.213  0.00  0.00    -0.046 A 
ATOM      2  C   LIG    1       37.963  32.525   8.110  0.00  0.00    +0.007 A 
ATOM      3  C   LIG    1       37.983  31.629   9.172  0.00  0.00    +0.046 A 
ATOM      4  C   LIG    1       39.041  30.729   9.349  0.00  0.00    +0.121 A 
ATOM      5  C   LIG    1       40.098  30.766   8.440  0.00  0.00    +0.046 A 
ATOM      6  C   LIG    1       40.095  31.695   7.383  0.00  0.00    +0.007 A 
ENDROOT
BRANCH   1   7
ATOM      7  C   LIG    1       38.984  33.603   6.092  0.00  0.00    +0.059 C 
BRANCH   7  10
ATOM      8  O   LIG    1       36.640  34.183   3.889  0.00  0.00    -0.274 OA
ATOM      9  C   LIG    1       37.271  34.879   4.674  0.00  0.00    +0.234 C 
ATOM     10  C   LIG    1       37.712  34.464   6.071  0.00  0.00    +0.146 C 
ATOM     11  S   LIG    1       38.084  36.071   6.884  0.00  0.00    -0.054 S 
ATOM     12  C   LIG    1       37.962  36.973   5.395  0.00  0.00    +0.279 C 
ATOM     13  O   LIG    1       38.097  38.179   5.316  0.00  0.00    -0.263 OA
ATOM     14  N   LIG    1       37.642  36.152   4.371  0.00  0.00    -0.246 N 
ATOM     15  H   LIG    1       37.375  36.557   3.487  0.00  0.00    +0.158 HD
ENDBRANCH   7  10
ENDBRANCH   1   7
BRANCH   4  16
ATOM     16  O   LIG    1       39.107  29.792  10.367  0.00  0.00    -0.490 OA
BRANCH  16  17
ATOM     17  C   LIG    1       40.448  29.322  10.564  0.00  0.00    +0.248 C 
BRANCH  17  18
ATOM     18  C   LIG    1       41.087  29.601  11.916  0.00  0.00    +0.147 C 
BRANCH  18  19
ATOM     19  N   LIG    1       42.264  28.742  12.256  0.00  0.00    -0.315 N 
ATOM     20  C   LIG    1       43.216  29.432  13.141  0.00  0.00    +0.131 C 
BRANCH  19  21
ATOM     21  C   LIG    1       42.126  27.386  12.615  0.00  0.00    +0.121 A 
ATOM     22  C   LIG    1       41.545  26.997  13.827  0.00  0.00    +0.043 A 
ATOM     23  C   LIG    1       41.396  25.651  14.167  0.00  0.00    +0.005 A 
ATOM     24  C   LIG    1       41.750  24.685  13.249  0.00  0.00    +0.020 A 
ATOM     25  C   LIG    1       42.250  25.120  12.039  0.00  0.00    +0.113 A 
ATOM     26  N   LIG    1       42.453  26.423  11.722  0.00  0.00    -0.240 NA
ENDBRANCH  19  21
ENDBRANCH  18  19
ENDBRANCH  17  18
ENDBRANCH  16  17
ENDBRANCH   4  16
TORSDOF 7
ENDMDL
MODEL 6
REMARK VINA RESULT:      -8.5      3.206      5.148
REMARK  Name = 
REMARK                            x       y       z     vdW  Elec       q    Type
REMARK                         _______ _______ _______ _____ _____    ______ ____
ROOT
ATOM      1  C   LIG    1       40.108  28.034  10.211  0.00  0.00    -0.046 A 
ATOM      2  C   LIG    1       39.694  27.812   8.900  0.00  0.00    +0.007 A 
ATOM      3  C   LIG    1       38.834  28.701   8.266  0.00  0.00    +0.046 A 
ATOM      4  C   LIG    1       38.316  29.817   8.934  0.00  0.00    +0.121 A 
ATOM      5  C   LIG    1       38.702  30.033  10.256  0.00  0.00    +0.046 A 
ATOM      6  C   LIG    1       39.597  29.151  10.890  0.00  0.00    +0.007 A 
ENDROOT
BRANCH   1   7
ATOM      7  C   LIG    1       41.071  27.062  10.853  0.00  0.00    +0.059 C 
BRANCH   7  10
ATOM      8  O   LIG    1       41.325  28.602  13.726  0.00  0.00    -0.274 OA
ATOM      9  C   LIG    1       41.542  27.460  13.342  0.00  0.00    +0.234 C 
ATOM     10  C   LIG    1       40.725  26.701  12.305  0.00  0.00    +0.146 C 
ATOM     11  S   LIG    1       41.204  24.950  12.600  0.00  0.00    -0.054 S 
ATOM     12  C   LIG    1       42.506  25.377  13.680  0.00  0.00    +0.279 C 
ATOM     13  O   LIG    1       43.217  24.568  14.246  0.00  0.00    -0.263 OA
ATOM     14  N   LIG    1       42.569  26.718  13.837  0.00  0.00    -0.246 N 
ATOM     15  H   LIG    1       43.162  27.097  14.558  0.00  0.00    +0.158 HD
ENDBRANCH   7  10
ENDBRANCH   1   7
BRANCH   4  16
ATOM     16  O   LIG    1       37.433  30.725   8.370  0.00  0.00    -0.490 OA
BRANCH  16  17
ATOM     17  C   LIG    1       37.669  32.056   8.849  0.00  0.00    +0.248 C 
BRANCH  17  18
ATOM     18  C   LIG    1       37.162  33.201   7.984  0.00  0.00    +0.147 C 
BRANCH  18  19
ATOM     19  N   LIG    1       38.209  33.904   7.177  0.00  0.00    -0.315 N 
ATOM     20  C   LIG    1       39.240  32.979   6.681  0.00  0.00    +0.131 C 
BRANCH  19  21
ATOM     21  C   LIG    1       37.884  34.873   6.207  0.00  0.00    +0.121 A 
ATOM     22  C   LIG    1       38.201  36.225   6.377  0.00  0.00    +0.043 A 
ATOM     23  C   LIG    1       37.891  37.176   5.402  0.00  0.00    +0.005 A 
ATOM     24  C   LIG    1       37.340  36.758   4.209  0.00  0.00    +0.020 A 
ATOM     25  C   LIG    1       37.114  35.405   4.060  0.00  0.00    +0.113 A 
ATOM     26  N   LIG    1       37.357  34.481   5.023  0.00  0.00    -0.240 NA
ENDBRANCH  19  21
ENDBRANCH  18  19
ENDBRANCH  17  18
ENDBRANCH  16  17
ENDBRANCH   4  16
TORSDOF 7
ENDMDL
MODEL 7
REMARK VINA RESULT:      -8.5      3.089     10.578
REMARK  Name = 
REMARK                            x       y       z     vdW  Elec       q    Type
REMARK                         _______ _______ _______ _____ _____    ______ ____
ROOT
ATOM      1  C   LIG    1       38.946  32.427   7.123  0.00  0.00    -0.046 A 
ATOM      2  C   LIG    1       39.857  31.386   6.967  0.00  0.00    +0.007 A 
ATOM      3  C   LIG    1       39.798  30.263   7.784  0.00  0.00    +0.046 A 
ATOM      4  C   LIG    1       38.861  30.160   8.818  0.00  0.00    +0.121 A 
ATOM      5  C   LIG    1       37.962  31.210   9.001  0.00  0.00    +0.046 A 
ATOM      6  C   LIG    1       37.999  32.334   8.155  0.00  0.00    +0.007 A 
ENDROOT
BRANCH   1   7
ATOM      7  C   LIG    1       39.020  33.616   6.192  0.00  0.00    +0.059 C 
BRANCH   7  10
ATOM      8  O   LIG    1       36.734  34.159   3.919  0.00  0.00    -0.274 OA
ATOM      9  C   LIG    1       37.326  34.864   4.727  0.00  0.00    +0.234 C 
ATOM     10  C   LIG    1       37.732  34.451   6.135  0.00  0.00    +0.146 C 
ATOM     11  S   LIG    1       38.045  36.062   6.965  0.00  0.00    -0.054 S 
ATOM     12  C   LIG    1       37.951  36.968   5.477  0.00  0.00    +0.279 C 
ATOM     13  O   LIG    1       38.064  38.177   5.406  0.00  0.00    -0.263 OA
ATOM     14  N   LIG    1       37.680  36.145   4.440  0.00  0.00    -0.246 N 
ATOM     15  H   LIG    1       37.433  36.549   3.550  0.00  0.00    +0.158 HD
ENDBRANCH   7  10
ENDBRANCH   1   7
BRANCH   4  16
ATOM     16  O   LIG    1       38.768  29.083   9.685  0.00  0.00    -0.490 OA
BRANCH  16  17
ATOM     17  C   LIG    1       38.980  27.839   9.004  0.00  0.00    +0.248 C 
BRANCH  17  18
ATOM     18  C   LIG    1       39.222  26.610   9.868  0.00  0.00    +0.147 C 
BRANCH  18  19
ATOM     19  N   LIG    1       40.638  26.410  10.311  0.00  0.00    -0.315 N 
ATOM     20  C   LIG    1       41.581  27.235   9.542  0.00  0.00    +0.131 C 
BRANCH  19  21
ATOM     21  C   LIG    1       40.998  26.359  11.673  0.00  0.00    +0.121 A 
ATOM     22  C   LIG    1       41.343  27.510  12.390  0.00  0.00    +0.043 A 
ATOM     23  C   LIG    1       41.682  27.453  13.744  0.00  0.00    +0.005 A 
ATOM     24  C   LIG    1       41.590  26.247  14.408  0.00  0.00    +0.020 A 
ATOM     25  C   LIG    1       41.174  25.155  13.674  0.00  0.00    +0.113 A 
ATOM     26  N   LIG    1       40.899  25.189  12.346  0.00  0.00    -0.240 NA
ENDBRANCH  19  21
ENDBRANCH  18  19
ENDBRANCH  17  18
ENDBRANCH  16  17
ENDBRANCH   4  16
TORSDOF 7
ENDMDL
MODEL 8
REMARK VINA RESULT:      -8.4      4.600     10.484
REMARK  Name = 
REMARK                            x       y       z     vdW  Elec       q    Type
REMARK                         _______ _______ _______ _____ _____    ______ ____
ROOT
ATOM      1  C   LIG    1       41.010  30.287  10.165  0.00  0.00    -0.046 A 
ATOM      2  C   LIG    1       39.763  29.881  10.634  0.00  0.00    +0.007 A 
ATOM      3  C   LIG    1       39.647  29.185  11.831  0.00  0.00    +0.046 A 
ATOM      4  C   LIG    1       40.775  28.824  12.579  0.00  0.00    +0.121 A 
ATOM      5  C   LIG    1       42.030  29.202  12.103  0.00  0.00    +0.046 A 
ATOM      6  C   LIG    1       42.148  29.934  10.908  0.00  0.00    +0.007 A 
ENDROOT
BRANCH   1   7
ATOM      7  C   LIG    1       41.091  31.073   8.876  0.00  0.00    +0.059 C 
BRANCH   7  10
ATOM      8  O   LIG    1       40.792  30.014   5.798  0.00  0.00    -0.274 OA
ATOM      9  C   LIG    1       40.279  30.915   6.449  0.00  0.00    +0.234 C 
ATOM     10  C   LIG    1       39.908  30.844   7.924  0.00  0.00    +0.146 C 
ATOM     11  S   LIG    1       38.723  32.236   8.122  0.00  0.00    -0.054 S 
ATOM     12  C   LIG    1       39.057  32.886   6.537  0.00  0.00    +0.279 C 
ATOM     13  O   LIG    1       38.508  33.866   6.072  0.00  0.00    -0.263 OA
ATOM     14  N   LIG    1       39.961  32.114   5.893  0.00  0.00    -0.246 N 
ATOM     15  H   LIG    1       40.124  32.273   4.911  0.00  0.00    +0.158 HD
ENDBRANCH   7  10
ENDBRANCH   1   7
BRANCH   4  16
ATOM     16  O   LIG    1       40.730  28.106  13.763  0.00  0.00    -0.490 OA
BRANCH  16  17
ATOM     17  C   LIG    1       41.660  27.014  13.752  0.00  0.00    +0.248 C 
BRANCH  17  18
ATOM     18  C   LIG    1       41.103  25.636  13.428  0.00  0.00    +0.147 C 
BRANCH  18  19
ATOM     19  N   LIG    1       41.027  25.304  11.970  0.00  0.00    -0.315 N 
ATOM     20  C   LIG    1       39.680  25.520  11.422  0.00  0.00    +0.131 C 
BRANCH  19  21
ATOM     21  C   LIG    1       42.020  25.709  11.055  0.00  0.00    +0.121 A 
ATOM     22  C   LIG    1       41.698  26.282   9.820  0.00  0.00    +0.043 A 
ATOM     23  C   LIG    1       42.689  26.696   8.926  0.00  0.00    +0.005 A 
ATOM     24  C   LIG    1       44.012  26.619   9.309  0.00  0.00    +0.020 A 
ATOM     25  C   LIG    1       44.274  26.115  10.566  0.00  0.00    +0.113 A 
ATOM     26  N   LIG    1       43.323  25.656  11.418  0.00  0.00    -0.240 NA
ENDBRANCH  19  21
ENDBRANCH  18  19
ENDBRANCH  17  18
ENDBRANCH  16  17
ENDBRANCH   4  16
TORSDOF 7
ENDMDL
MODEL 9
REMARK VINA RESULT:      -8.2      3.916     10.260
REMARK  Name = 
REMARK                            x       y       z     vdW  Elec       q    Type
REMARK                         _______ _______ _______ _____ _____    ______ ____
ROOT
ATOM      1  C   LIG    1       39.328  30.271   9.368  0.00  0.00    -0.046 A 
ATOM      2  C   LIG    1       38.705  29.551  10.385  0.00  0.00    +0.007 A 
ATOM      3  C   LIG    1       38.978  28.201  10.569  0.00  0.00    +0.046 A 
ATOM      4  C   LIG    1       39.844  27.507   9.715  0.00  0.00    +0.121 A 
ATOM      5  C   LIG    1       40.451  28.212   8.677  0.00  0.00    +0.046 A 
ATOM      6  C   LIG    1       40.201  29.587   8.507  0.00  0.00    +0.007 A 
ENDROOT
BRANCH   1   7
ATOM      7  C   LIG    1       39.032  31.746   9.223  0.00  0.00    +0.059 C 
BRANCH   7  10
ATOM      8  O   LIG    1       39.876  32.252   6.105  0.00  0.00    -0.274 OA
ATOM      9  C   LIG    1       39.117  32.806   6.889  0.00  0.00    +0.234 C 
ATOM     10  C   LIG    1       38.265  32.109   7.942  0.00  0.00    +0.146 C 
ATOM     11  S   LIG    1       37.002  33.378   8.361  0.00  0.00    -0.054 S 
ATOM     12  C   LIG    1       37.821  34.640   7.475  0.00  0.00    +0.279 C 
ATOM     13  O   LIG    1       37.407  35.778   7.369  0.00  0.00    -0.263 OA
ATOM     14  N   LIG    1       38.937  34.154   6.887  0.00  0.00    -0.246 N 
ATOM     15  H   LIG    1       39.418  34.725   6.209  0.00  0.00    +0.158 HD
ENDBRANCH   7  10
ENDBRANCH   1   7
BRANCH   4  16
ATOM     16  O   LIG    1       40.135  26.157   9.825  0.00  0.00    -0.490 OA
BRANCH  16  17
ATOM     17  C   LIG    1       41.466  25.867   9.376  0.00  0.00    +0.248 C 
BRANCH  17  18
ATOM     18  C   LIG    1       42.426  25.275  10.397  0.00  0.00    +0.147 C 
BRANCH  18  19
ATOM     19  N   LIG    1       43.222  26.273  11.179  0.00  0.00    -0.315 N 
ATOM     20  C   LIG    1       44.332  26.833  10.393  0.00  0.00    +0.131 C 
BRANCH  19  21
ATOM     21  C   LIG    1       42.612  27.263  11.976  0.00  0.00    +0.121 A 
ATOM     22  C   LIG    1       42.634  28.616  11.620  0.00  0.00    +0.043 A 
ATOM     23  C   LIG    1       42.012  29.589  12.406  0.00  0.00    +0.005 A 
ATOM     24  C   LIG    1       41.285  29.194  13.510  0.00  0.00    +0.020 A 
ATOM     25  C   LIG    1       41.232  27.841  13.778  0.00  0.00    +0.113 A 
ATOM     26  N   LIG    1       41.881  26.895  13.054  0.00  0.00    -0.240 NA
ENDBRANCH  19  21
ENDBRANCH  18  19
ENDBRANCH  17  18
ENDBRANCH  16  17
ENDBRANCH   4  16
TORSDOF 7
ENDMDL
