MODEL 1
REMARK VINA RESULT:      -8.3      0.000      0.000
REMARK  Name = 
REMARK                            x       y       z     vdW  Elec       q    Type
REMARK                         _______ _______ _______ _____ _____    ______ ____
ROOT
ATOM      1  C   LIG    1        7.745  -2.048  19.496  0.00  0.00    -0.046 A 
ATOM      2  C   LIG    1        6.682  -1.256  19.069  0.00  0.00    +0.007 A 
ATOM      3  C   LIG    1        5.442  -1.337  19.690  0.00  0.00    +0.046 A 
ATOM      4  C   LIG    1        5.202  -2.246  20.727  0.00  0.00    +0.121 A 
ATOM      5  C   LIG    1        6.252  -3.063  21.145  0.00  0.00    +0.046 A 
ATOM      6  C   LIG    1        7.518  -2.961  20.538  0.00  0.00    +0.007 A 
ENDROOT
BRANCH   1   7
ATOM      7  C   LIG    1        9.089  -1.905  18.818  0.00  0.00    +0.059 C 
BRANCH   7  10
ATOM      8  O   LIG    1       10.856  -4.324  20.126  0.00  0.00    -0.274 OA
ATOM      9  C   LIG    1       10.884  -3.719  19.062  0.00  0.00    +0.234 C 
ATOM     10  C   LIG    1        9.669  -3.225  18.289  0.00  0.00    +0.146 C 
ATOM     11  S   LIG    1       10.341  -2.932  16.603  0.00  0.00    -0.054 S 
ATOM     12  C   LIG    1       11.997  -3.137  17.112  0.00  0.00    +0.279 C 
ATOM     13  O   LIG    1       12.954  -3.074  16.363  0.00  0.00    -0.263 OA
ATOM     14  N   LIG    1       12.053  -3.429  18.430  0.00  0.00    -0.246 N 
ATOM     15  H   LIG    1       12.928  -3.737  18.824  0.00  0.00    +0.158 HD
ENDBRANCH   7  10
ENDBRANCH   1   7
BRANCH   4  16
ATOM     16  O   LIG    1        3.983  -2.398  21.368  0.00  0.00    -0.490 OA
BRANCH  16  17
ATOM     17  C   LIG    1        3.072  -1.344  21.024  0.00  0.00    +0.248 C 
BRANCH  17  18
ATOM     18  C   LIG    1        1.656  -1.450  21.569  0.00  0.00    +0.147 C 
BRANCH  18  19
ATOM     19  N   LIG    1        1.481  -0.998  22.986  0.00  0.00    -0.315 N 
ATOM     20  C   LIG    1        0.875   0.339  23.070  0.00  0.00    +0.131 C 
BRANCH  19  21
ATOM     21  C   LIG    1        0.977  -1.850  23.989  0.00  0.00    +0.121 A 
ATOM     22  C   LIG    1        0.161  -1.375  25.021  0.00  0.00    +0.043 A 
ATOM     23  C   LIG    1       -0.349  -2.229  26.002  0.00  0.00    +0.005 A 
ATOM     24  C   LIG    1       -0.113  -3.584  25.899  0.00  0.00    +0.020 A 
ATOM     25  C   LIG    1        0.636  -4.012  24.822  0.00  0.00    +0.113 A 
ATOM     26  N   LIG    1        1.184  -3.184  23.897  0.00  0.00    -0.240 NA
ENDBRANCH  19  21
ENDBRANCH  18  19
ENDBRANCH  17  18
ENDBRANCH  16  17
ENDBRANCH   4  16
TORSDOF 7
ENDMDL
MODEL 2
REMARK VINA RESULT:      -7.5      7.373      9.355
REMARK  Name = 
REMARK                            x       y       z     vdW  Elec       q    Type
REMARK                         _______ _______ _______ _____ _____    ______ ____
ROOT
ATOM      1  C   LIG    1        9.740  -4.323  27.416  0.00  0.00    -0.046 A 
ATOM      2  C   LIG    1       10.717  -3.962  26.492  0.00  0.00    +0.007 A 
ATOM      3  C   LIG    1       10.377  -3.665  25.178  0.00  0.00    +0.046 A 
ATOM      4  C   LIG    1        9.056  -3.766  24.724  0.00  0.00    +0.121 A 
ATOM      5  C   LIG    1        8.074  -4.153  25.635  0.00  0.00    +0.046 A 
ATOM      6  C   LIG    1        8.411  -4.424  26.974  0.00  0.00    +0.007 A 
ENDROOT
BRANCH   1   7
ATOM      7  C   LIG    1       10.145  -4.605  28.845  0.00  0.00    +0.059 C 
BRANCH   7  10
ATOM      8  O   LIG    1       11.263  -1.556  29.223  0.00  0.00    -0.274 OA
ATOM      9  C   LIG    1       10.991  -2.472  29.989  0.00  0.00    +0.234 C 
ATOM     10  C   LIG    1        9.843  -3.458  29.821  0.00  0.00    +0.146 C 
ATOM     11  S   LIG    1        9.653  -4.164  31.508  0.00  0.00    -0.054 S 
ATOM     12  C   LIG    1       11.126  -3.436  32.095  0.00  0.00    +0.279 C 
ATOM     13  O   LIG    1       11.533  -3.544  33.236  0.00  0.00    -0.263 OA
ATOM     14  N   LIG    1       11.707  -2.699  31.123  0.00  0.00    -0.246 N 
ATOM     15  H   LIG    1       12.472  -2.088  31.366  0.00  0.00    +0.158 HD
ENDBRANCH   7  10
ENDBRANCH   1   7
BRANCH   4  16
ATOM     16  O   LIG    1        8.655  -3.513  23.422  0.00  0.00    -0.490 OA
BRANCH  16  17
ATOM     17  C   LIG    1        7.582  -4.376  23.024  0.00  0.00    +0.248 C 
BRANCH  17  18
ATOM     18  C   LIG    1        7.180  -4.347  21.557  0.00  0.00    +0.147 C 
BRANCH  18  19
ATOM     19  N   LIG    1        7.132  -2.987  20.935  0.00  0.00    -0.315 N 
ATOM     20  C   LIG    1        8.315  -2.715  20.105  0.00  0.00    +0.131 C 
BRANCH  19  21
ATOM     21  C   LIG    1        5.962  -2.475  20.337  0.00  0.00    +0.121 A 
ATOM     22  C   LIG    1        5.928  -2.083  18.994  0.00  0.00    +0.043 A 
ATOM     23  C   LIG    1        4.760  -1.594  18.405  0.00  0.00    +0.005 A 
ATOM     24  C   LIG    1        3.594  -1.579  19.141  0.00  0.00    +0.020 A 
ATOM     25  C   LIG    1        3.662  -2.044  20.438  0.00  0.00    +0.113 A 
ATOM     26  N   LIG    1        4.804  -2.467  21.037  0.00  0.00    -0.240 NA
ENDBRANCH  19  21
ENDBRANCH  18  19
ENDBRANCH  17  18
ENDBRANCH  16  17
ENDBRANCH   4  16
TORSDOF 7
ENDMDL
MODEL 3
REMARK VINA RESULT:      -7.5      5.499      8.016
REMARK  Name = 
REMARK                            x       y       z     vdW  Elec       q    Type
REMARK                         _______ _______ _______ _____ _____    ______ ____
ROOT
ATOM      1  C   LIG    1        5.948  -1.718  19.891  0.00  0.00    -0.046 A 
ATOM      2  C   LIG    1        5.590  -3.062  19.970  0.00  0.00    +0.007 A 
ATOM      3  C   LIG    1        6.182  -3.900  20.907  0.00  0.00    +0.046 A 
ATOM      4  C   LIG    1        7.188  -3.441  21.766  0.00  0.00    +0.121 A 
ATOM      5  C   LIG    1        7.573  -2.104  21.676  0.00  0.00    +0.046 A 
ATOM      6  C   LIG    1        6.953  -1.246  20.749  0.00  0.00    +0.007 A 
ENDROOT
BRANCH   1   7
ATOM      7  C   LIG    1        5.256  -0.831  18.882  0.00  0.00    +0.059 C 
BRANCH   7  10
ATOM      8  O   LIG    1        3.313   1.659  18.036  0.00  0.00    -0.274 OA
ATOM      9  C   LIG    1        3.621   1.133  19.098  0.00  0.00    +0.234 C 
ATOM     10  C   LIG    1        3.861  -0.355  19.315  0.00  0.00    +0.146 C 
ATOM     11  S   LIG    1        3.725  -0.535  21.140  0.00  0.00    -0.054 S 
ATOM     12  C   LIG    1        3.708   1.188  21.416  0.00  0.00    +0.279 C 
ATOM     13  O   LIG    1        3.603   1.703  22.513  0.00  0.00    -0.263 OA
ATOM     14  N   LIG    1        3.771   1.854  20.241  0.00  0.00    -0.246 N 
ATOM     15  H   LIG    1        3.602   2.848  20.236  0.00  0.00    +0.158 HD
ENDBRANCH   7  10
ENDBRANCH   1   7
BRANCH   4  16
ATOM     16  O   LIG    1        7.838  -4.231  22.701  0.00  0.00    -0.490 OA
BRANCH  16  17
ATOM     17  C   LIG    1        8.477  -3.436  23.709  0.00  0.00    +0.248 C 
BRANCH  17  18
ATOM     18  C   LIG    1        8.220  -3.821  25.158  0.00  0.00    +0.147 C 
BRANCH  18  19
ATOM     19  N   LIG    1        9.440  -4.163  25.955  0.00  0.00    -0.315 N 
ATOM     20  C   LIG    1       10.583  -3.304  25.612  0.00  0.00    +0.131 C 
BRANCH  19  21
ATOM     21  C   LIG    1        9.386  -4.412  27.341  0.00  0.00    +0.121 A 
ATOM     22  C   LIG    1       10.542  -4.462  28.128  0.00  0.00    +0.043 A 
ATOM     23  C   LIG    1       10.479  -4.692  29.505  0.00  0.00    +0.005 A 
ATOM     24  C   LIG    1        9.245  -4.784  30.113  0.00  0.00    +0.020 A 
ATOM     25  C   LIG    1        8.134  -4.654  29.305  0.00  0.00    +0.113 A 
ATOM     26  N   LIG    1        8.185  -4.489  27.959  0.00  0.00    -0.240 NA
ENDBRANCH  19  21
ENDBRANCH  18  19
ENDBRANCH  17  18
ENDBRANCH  16  17
ENDBRANCH   4  16
TORSDOF 7
ENDMDL
MODEL 4
REMARK VINA RESULT:      -7.5      4.574      8.689
REMARK  Name = 
REMARK                            x       y       z     vdW  Elec       q    Type
REMARK                         _______ _______ _______ _____ _____    ______ ____
ROOT
ATOM      1  C   LIG    1        3.946  -0.099  20.132  0.00  0.00    -0.046 A 
ATOM      2  C   LIG    1        3.549  -1.094  21.022  0.00  0.00    +0.007 A 
ATOM      3  C   LIG    1        4.221  -2.309  21.073  0.00  0.00    +0.046 A 
ATOM      4  C   LIG    1        5.282  -2.596  20.206  0.00  0.00    +0.121 A 
ATOM      5  C   LIG    1        5.669  -1.616  19.292  0.00  0.00    +0.046 A 
ATOM      6  C   LIG    1        5.011  -0.373  19.259  0.00  0.00    +0.007 A 
ENDROOT
BRANCH   1   7
ATOM      7  C   LIG    1        3.212   1.223  20.130  0.00  0.00    +0.059 C 
BRANCH   7  10
ATOM      8  O   LIG    1        2.137   1.292  23.217  0.00  0.00    -0.274 OA
ATOM      9  C   LIG    1        2.367   2.144  22.369  0.00  0.00    +0.234 C 
ATOM     10  C   LIG    1        3.502   2.104  21.355  0.00  0.00    +0.146 C 
ATOM     11  S   LIG    1        3.623   3.852  20.798  0.00  0.00    -0.054 S 
ATOM     12  C   LIG    1        2.145   4.321  21.598  0.00  0.00    +0.279 C 
ATOM     13  O   LIG    1        1.698   5.452  21.598  0.00  0.00    -0.263 OA
ATOM     14  N   LIG    1        1.610   3.268  22.255  0.00  0.00    -0.246 N 
ATOM     15  H   LIG    1        0.849   3.429  22.895  0.00  0.00    +0.158 HD
ENDBRANCH   7  10
ENDBRANCH   1   7
BRANCH   4  16
ATOM     16  O   LIG    1        5.974  -3.796  20.186  0.00  0.00    -0.490 OA
BRANCH  16  17
ATOM     17  C   LIG    1        6.679  -4.018  21.415  0.00  0.00    +0.248 C 
BRANCH  17  18
ATOM     18  C   LIG    1        8.144  -3.611  21.454  0.00  0.00    +0.147 C 
BRANCH  18  19
ATOM     19  N   LIG    1        9.024  -4.473  22.303  0.00  0.00    -0.315 N 
ATOM     20  C   LIG    1       10.209  -4.946  21.570  0.00  0.00    +0.131 C 
BRANCH  19  21
ATOM     21  C   LIG    1        9.349  -4.136  23.633  0.00  0.00    +0.121 A 
ATOM     22  C   LIG    1        8.377  -4.072  24.637  0.00  0.00    +0.043 A 
ATOM     23  C   LIG    1        8.710  -3.754  25.957  0.00  0.00    +0.005 A 
ATOM     24  C   LIG    1       10.038  -3.588  26.291  0.00  0.00    +0.020 A 
ATOM     25  C   LIG    1       10.965  -3.735  25.280  0.00  0.00    +0.113 A 
ATOM     26  N   LIG    1       10.647  -3.985  23.985  0.00  0.00    -0.240 NA
ENDBRANCH  19  21
ENDBRANCH  18  19
ENDBRANCH  17  18
ENDBRANCH  16  17
ENDBRANCH   4  16
TORSDOF 7
ENDMDL
MODEL 5
REMARK VINA RESULT:      -7.5      4.662      6.203
REMARK  Name = 
REMARK                            x       y       z     vdW  Elec       q    Type
REMARK                         _______ _______ _______ _____ _____    ______ ____
ROOT
ATOM      1  C   LIG    1        7.944  -4.263  23.674  0.00  0.00    -0.046 A 
ATOM      2  C   LIG    1        7.203  -5.134  22.878  0.00  0.00    +0.007 A 
ATOM      3  C   LIG    1        6.758  -4.742  21.621  0.00  0.00    +0.046 A 
ATOM      4  C   LIG    1        6.993  -3.451  21.133  0.00  0.00    +0.121 A 
ATOM      5  C   LIG    1        7.710  -2.563  21.933  0.00  0.00    +0.046 A 
ATOM      6  C   LIG    1        8.188  -2.967  23.193  0.00  0.00    +0.007 A 
ENDROOT
BRANCH   1   7
ATOM      7  C   LIG    1        8.439  -4.738  25.021  0.00  0.00    +0.059 C 
BRANCH   7  10
ATOM      8  O   LIG    1       11.435  -3.439  24.844  0.00  0.00    -0.274 OA
ATOM      9  C   LIG    1       10.717  -3.820  25.760  0.00  0.00    +0.234 C 
ATOM     10  C   LIG    1        9.202  -3.672  25.822  0.00  0.00    +0.146 C 
ATOM     11  S   LIG    1        8.834  -3.911  27.607  0.00  0.00    -0.054 S 
ATOM     12  C   LIG    1       10.454  -4.445  27.979  0.00  0.00    +0.279 C 
ATOM     13  O   LIG    1       10.835  -4.742  29.095  0.00  0.00    -0.263 OA
ATOM     14  N   LIG    1       11.224  -4.423  26.868  0.00  0.00    -0.246 N 
ATOM     15  H   LIG    1       12.220  -4.546  26.964  0.00  0.00    +0.158 HD
ENDBRANCH   7  10
ENDBRANCH   1   7
BRANCH   4  16
ATOM     16  O   LIG    1        6.552  -2.989  19.903  0.00  0.00    -0.490 OA
BRANCH  16  17
ATOM     17  C   LIG    1        5.632  -1.899  20.048  0.00  0.00    +0.248 C 
BRANCH  17  18
ATOM     18  C   LIG    1        4.348  -2.176  20.814  0.00  0.00    +0.147 C 
BRANCH  18  19
ATOM     19  N   LIG    1        3.234  -1.208  20.565  0.00  0.00    -0.315 N 
ATOM     20  C   LIG    1        2.002  -1.881  20.128  0.00  0.00    +0.131 C 
BRANCH  19  21
ATOM     21  C   LIG    1        2.948  -0.148  21.449  0.00  0.00    +0.121 A 
ATOM     22  C   LIG    1        1.812  -0.152  22.266  0.00  0.00    +0.043 A 
ATOM     23  C   LIG    1        1.546   0.895  23.153  0.00  0.00    +0.005 A 
ATOM     24  C   LIG    1        2.469   1.911  23.287  0.00  0.00    +0.020 A 
ATOM     25  C   LIG    1        3.609   1.832  22.513  0.00  0.00    +0.113 A 
ATOM     26  N   LIG    1        3.849   0.850  21.607  0.00  0.00    -0.240 NA
ENDBRANCH  19  21
ENDBRANCH  18  19
ENDBRANCH  17  18
ENDBRANCH  16  17
ENDBRANCH   4  16
TORSDOF 7
ENDMDL
MODEL 6
REMARK VINA RESULT:      -7.5      9.341     10.349
REMARK  Name = 
REMARK                            x       y       z     vdW  Elec       q    Type
REMARK                         _______ _______ _______ _____ _____    ______ ____
ROOT
ATOM      1  C   LIG    1       13.073  -1.746  28.569  0.00  0.00    -0.046 A 
ATOM      2  C   LIG    1       13.520  -1.934  29.874  0.00  0.00    +0.007 A 
ATOM      3  C   LIG    1       12.735  -1.553  30.955  0.00  0.00    +0.046 A 
ATOM      4  C   LIG    1       11.497  -0.924  30.774  0.00  0.00    +0.121 A 
ATOM      5  C   LIG    1       11.052  -0.707  29.470  0.00  0.00    +0.046 A 
ATOM      6  C   LIG    1       11.832  -1.120  28.374  0.00  0.00    +0.007 A 
ENDROOT
BRANCH   1   7
ATOM      7  C   LIG    1       13.941  -2.206  27.420  0.00  0.00    +0.059 C 
BRANCH   7  10
ATOM      8  O   LIG    1       11.639  -3.089  25.272  0.00  0.00    -0.274 OA
ATOM      9  C   LIG    1       12.809  -2.740  25.182  0.00  0.00    +0.234 C 
ATOM     10  C   LIG    1       13.491  -1.688  26.046  0.00  0.00    +0.146 C 
ATOM     11  S   LIG    1       14.988  -1.255  25.069  0.00  0.00    -0.054 S 
ATOM     12  C   LIG    1       14.765  -2.570  23.944  0.00  0.00    +0.279 C 
ATOM     13  O   LIG    1       15.492  -2.786  22.993  0.00  0.00    -0.263 OA
ATOM     14  N   LIG    1       13.648  -3.267  24.250  0.00  0.00    -0.246 N 
ATOM     15  H   LIG    1       13.304  -3.949  23.591  0.00  0.00    +0.158 HD
ENDBRANCH   7  10
ENDBRANCH   1   7
BRANCH   4  16
ATOM     16  O   LIG    1       10.680  -0.494  31.807  0.00  0.00    -0.490 OA
BRANCH  16  17
ATOM     17  C   LIG    1        9.472  -1.265  31.880  0.00  0.00    +0.248 C 
BRANCH  17  18
ATOM     18  C   LIG    1        9.560  -2.622  32.561  0.00  0.00    +0.147 C 
BRANCH  18  19
ATOM     19  N   LIG    1        8.909  -3.750  31.822  0.00  0.00    -0.315 N 
ATOM     20  C   LIG    1        7.484  -3.886  32.162  0.00  0.00    +0.131 C 
BRANCH  19  21
ATOM     21  C   LIG    1        9.128  -3.974  30.448  0.00  0.00    +0.121 A 
ATOM     22  C   LIG    1       10.379  -4.358  29.952  0.00  0.00    +0.043 A 
ATOM     23  C   LIG    1       10.583  -4.595  28.591  0.00  0.00    +0.005 A 
ATOM     24  C   LIG    1        9.507  -4.535  27.731  0.00  0.00    +0.020 A 
ATOM     25  C   LIG    1        8.280  -4.224  28.280  0.00  0.00    +0.113 A 
ATOM     26  N   LIG    1        8.082  -3.935  29.591  0.00  0.00    -0.240 NA
ENDBRANCH  19  21
ENDBRANCH  18  19
ENDBRANCH  17  18
ENDBRANCH  16  17
ENDBRANCH   4  16
TORSDOF 7
ENDMDL
MODEL 7
REMARK VINA RESULT:      -7.4      5.534      6.951
REMARK  Name = 
REMARK                            x       y       z     vdW  Elec       q    Type
REMARK                         _______ _______ _______ _____ _____    ______ ____
ROOT
ATOM      1  C   LIG    1       10.243  -3.775  24.992  0.00  0.00    -0.046 A 
ATOM      2  C   LIG    1       10.837  -4.197  23.805  0.00  0.00    +0.007 A 
ATOM      3  C   LIG    1       10.096  -4.286  22.633  0.00  0.00    +0.046 A 
ATOM      4  C   LIG    1        8.725  -4.005  22.613  0.00  0.00    +0.121 A 
ATOM      5  C   LIG    1        8.115  -3.609  23.802  0.00  0.00    +0.046 A 
ATOM      6  C   LIG    1        8.869  -3.488  24.984  0.00  0.00    +0.007 A 
ENDROOT
BRANCH   1   7
ATOM      7  C   LIG    1       11.091  -3.658  26.239  0.00  0.00    +0.059 C 
BRANCH   7  10
ATOM      8  O   LIG    1       13.857  -2.483  24.950  0.00  0.00    -0.274 OA
ATOM      9  C   LIG    1       13.347  -2.452  26.063  0.00  0.00    +0.234 C 
ATOM     10  C   LIG    1       11.857  -2.331  26.354  0.00  0.00    +0.146 C 
ATOM     11  S   LIG    1       11.821  -1.789  28.111  0.00  0.00    -0.054 S 
ATOM     12  C   LIG    1       13.527  -2.070  28.344  0.00  0.00    +0.279 C 
ATOM     13  O   LIG    1       14.120  -1.848  29.383  0.00  0.00    -0.263 OA
ATOM     14  N   LIG    1       14.094  -2.507  27.198  0.00  0.00    -0.246 N 
ATOM     15  H   LIG    1       15.099  -2.551  27.138  0.00  0.00    +0.158 HD
ENDBRANCH   7  10
ENDBRANCH   1   7
BRANCH   4  16
ATOM     16  O   LIG    1        7.924  -4.103  21.486  0.00  0.00    -0.490 OA
BRANCH  16  17
ATOM     17  C   LIG    1        6.650  -3.475  21.689  0.00  0.00    +0.248 C 
BRANCH  17  18
ATOM     18  C   LIG    1        5.786  -3.251  20.457  0.00  0.00    +0.147 C 
BRANCH  18  19
ATOM     19  N   LIG    1        5.353  -1.836  20.229  0.00  0.00    -0.315 N 
ATOM     20  C   LIG    1        5.482  -1.438  18.819  0.00  0.00    +0.131 C 
BRANCH  19  21
ATOM     21  C   LIG    1        4.179  -1.308  20.802  0.00  0.00    +0.121 A 
ATOM     22  C   LIG    1        3.138  -2.131  21.247  0.00  0.00    +0.043 A 
ATOM     23  C   LIG    1        1.985  -1.600  21.830  0.00  0.00    +0.005 A 
ATOM     24  C   LIG    1        1.911  -0.241  22.052  0.00  0.00    +0.020 A 
ATOM     25  C   LIG    1        2.994   0.520  21.663  0.00  0.00    +0.113 A 
ATOM     26  N   LIG    1        4.093   0.021  21.043  0.00  0.00    -0.240 NA
ENDBRANCH  19  21
ENDBRANCH  18  19
ENDBRANCH  17  18
ENDBRANCH  16  17
ENDBRANCH   4  16
TORSDOF 7
ENDMDL
MODEL 8
REMARK VINA RESULT:      -7.3      5.339      8.786
REMARK  Name = 
REMARK                            x       y       z     vdW  Elec       q    Type
REMARK                         _______ _______ _______ _____ _____    ______ ____
ROOT
ATOM      1  C   LIG    1        6.045  -1.766  19.948  0.00  0.00    -0.046 A 
ATOM      2  C   LIG    1        5.615  -3.082  20.103  0.00  0.00    +0.007 A 
ATOM      3  C   LIG    1        6.211  -3.918  21.040  0.00  0.00    +0.046 A 
ATOM      4  C   LIG    1        7.291  -3.489  21.820  0.00  0.00    +0.121 A 
ATOM      5  C   LIG    1        7.747  -2.182  21.653  0.00  0.00    +0.046 A 
ATOM      6  C   LIG    1        7.125  -1.323  20.728  0.00  0.00    +0.007 A 
ENDROOT
BRANCH   1   7
ATOM      7  C   LIG    1        5.348  -0.878  18.944  0.00  0.00    +0.059 C 
BRANCH   7  10
ATOM      8  O   LIG    1        3.304   1.500  18.017  0.00  0.00    -0.274 OA
ATOM      9  C   LIG    1        3.633   1.023  19.095  0.00  0.00    +0.234 C 
ATOM     10  C   LIG    1        3.934  -0.446  19.361  0.00  0.00    +0.146 C 
ATOM     11  S   LIG    1        3.802  -0.573  21.190  0.00  0.00    -0.054 S 
ATOM     12  C   LIG    1        3.713   1.156  21.410  0.00  0.00    +0.279 C 
ATOM     13  O   LIG    1        3.584   1.701  22.490  0.00  0.00    -0.263 OA
ATOM     14  N   LIG    1        3.750   1.786  20.215  0.00  0.00    -0.246 N 
ATOM     15  H   LIG    1        3.539   2.771  20.177  0.00  0.00    +0.158 HD
ENDBRANCH   7  10
ENDBRANCH   1   7
BRANCH   4  16
ATOM     16  O   LIG    1        7.947  -4.280  22.749  0.00  0.00    -0.490 OA
BRANCH  16  17
ATOM     17  C   LIG    1        8.360  -3.519  23.892  0.00  0.00    +0.248 C 
BRANCH  17  18
ATOM     18  C   LIG    1        9.711  -3.862  24.500  0.00  0.00    +0.147 C 
BRANCH  18  19
ATOM     19  N   LIG    1        9.917  -3.395  25.907  0.00  0.00    -0.315 N 
ATOM     20  C   LIG    1        9.273  -4.284  26.885  0.00  0.00    +0.131 C 
BRANCH  19  21
ATOM     21  C   LIG    1       11.168  -2.944  26.374  0.00  0.00    +0.121 A 
ATOM     22  C   LIG    1       12.266  -2.795  25.520  0.00  0.00    +0.043 A 
ATOM     23  C   LIG    1       13.498  -2.331  25.987  0.00  0.00    +0.005 A 
ATOM     24  C   LIG    1       13.607  -1.928  27.302  0.00  0.00    +0.020 A 
ATOM     25  C   LIG    1       12.476  -2.025  28.086  0.00  0.00    +0.113 A 
ATOM     26  N   LIG    1       11.292  -2.529  27.656  0.00  0.00    -0.240 NA
ENDBRANCH  19  21
ENDBRANCH  18  19
ENDBRANCH  17  18
ENDBRANCH  16  17
ENDBRANCH   4  16
TORSDOF 7
ENDMDL
MODEL 9
REMARK VINA RESULT:      -7.3      5.886      7.740
REMARK  Name = 
REMARK                            x       y       z     vdW  Elec       q    Type
REMARK                         _______ _______ _______ _____ _____    ______ ____
ROOT
ATOM      1  C   LIG    1        7.612  -3.960  21.826  0.00  0.00    -0.046 A 
ATOM      2  C   LIG    1        7.569  -3.486  23.135  0.00  0.00    +0.007 A 
ATOM      3  C   LIG    1        8.701  -3.525  23.941  0.00  0.00    +0.046 A 
ATOM      4  C   LIG    1        9.902  -4.083  23.489  0.00  0.00    +0.121 A 
ATOM      5  C   LIG    1        9.947  -4.586  22.189  0.00  0.00    +0.046 A 
ATOM      6  C   LIG    1        8.812  -4.520  21.360  0.00  0.00    +0.007 A 
ENDROOT
BRANCH   1   7
ATOM      7  C   LIG    1        6.371  -3.869  20.969  0.00  0.00    +0.059 C 
BRANCH   7  10
ATOM      8  O   LIG    1        8.082  -1.095  20.715  0.00  0.00    -0.274 OA
ATOM      9  C   LIG    1        6.901  -1.390  20.585  0.00  0.00    +0.234 C 
ATOM     10  C   LIG    1        6.369  -2.686  19.989  0.00  0.00    +0.146 C 
ATOM     11  S   LIG    1        4.625  -2.271  19.580  0.00  0.00    -0.054 S 
ATOM     12  C   LIG    1        4.676  -0.749  20.433  0.00  0.00    +0.279 C 
ATOM     13  O   LIG    1        3.745   0.032  20.491  0.00  0.00    -0.263 OA
ATOM     14  N   LIG    1        5.903  -0.546  20.962  0.00  0.00    -0.246 N 
ATOM     15  H   LIG    1        6.126   0.363  21.337  0.00  0.00    +0.158 HD
ENDBRANCH   7  10
ENDBRANCH   1   7
BRANCH   4  16
ATOM     16  O   LIG    1       11.055  -4.179  24.251  0.00  0.00    -0.490 OA
BRANCH  16  17
ATOM     17  C   LIG    1       10.885  -3.580  25.543  0.00  0.00    +0.248 C 
BRANCH  17  18
ATOM     18  C   LIG    1       10.880  -4.515  26.743  0.00  0.00    +0.147 C 
BRANCH  18  19
ATOM     19  N   LIG    1       10.571  -3.867  28.056  0.00  0.00    -0.315 N 
ATOM     20  C   LIG    1       10.893  -2.432  28.055  0.00  0.00    +0.131 C 
BRANCH  19  21
ATOM     21  C   LIG    1        9.374  -4.120  28.755  0.00  0.00    +0.121 A 
ATOM     22  C   LIG    1        9.340  -4.224  30.150  0.00  0.00    +0.043 A 
ATOM     23  C   LIG    1        8.146  -4.458  30.837  0.00  0.00    +0.005 A 
ATOM     24  C   LIG    1        6.963  -4.500  30.129  0.00  0.00    +0.020 A 
ATOM     25  C   LIG    1        7.040  -4.318  28.764  0.00  0.00    +0.113 A 
ATOM     26  N   LIG    1        8.201  -4.148  28.081  0.00  0.00    -0.240 NA
ENDBRANCH  19  21
ENDBRANCH  18  19
ENDBRANCH  17  18
ENDBRANCH  16  17
ENDBRANCH   4  16
TORSDOF 7
ENDMDL
