MODEL 1
REMARK VINA RESULT:      -8.8      0.000      0.000
REMARK  Name = 
REMARK                            x       y       z     vdW  Elec       q    Type
REMARK                         _______ _______ _______ _____ _____    ______ ____
ROOT
ATOM      1  C   LIG    1        9.879   1.060  30.971  0.00  0.00    -0.046 A 
ATOM      2  C   LIG    1       10.716   1.297  29.882  0.00  0.00    +0.007 A 
ATOM      3  C   LIG    1       10.195   1.415  28.599  0.00  0.00    +0.046 A 
ATOM      4  C   LIG    1        8.828   1.251  28.347  0.00  0.00    +0.121 A 
ATOM      5  C   LIG    1        7.986   0.986  29.426  0.00  0.00    +0.046 A 
ATOM      6  C   LIG    1        8.506   0.897  30.731  0.00  0.00    +0.007 A 
ENDROOT
BRANCH   1   7
ATOM      7  C   LIG    1       10.480   0.974  32.355  0.00  0.00    +0.059 C 
BRANCH   7  10
ATOM      8  O   LIG    1       11.497   4.076  32.191  0.00  0.00    -0.274 OA
ATOM      9  C   LIG    1       11.374   3.260  33.095  0.00  0.00    +0.234 C 
ATOM     10  C   LIG    1       10.261   2.228  33.215  0.00  0.00    +0.146 C 
ATOM     11  S   LIG    1       10.336   1.741  34.986  0.00  0.00    -0.054 S 
ATOM     12  C   LIG    1       11.840   2.580  35.264  0.00  0.00    +0.279 C 
ATOM     13  O   LIG    1       12.403   2.633  36.340  0.00  0.00    -0.263 OA
ATOM     14  N   LIG    1       12.248   3.202  34.135  0.00  0.00    -0.246 N 
ATOM     15  H   LIG    1       13.010   3.860  34.190  0.00  0.00    +0.158 HD
ENDBRANCH   7  10
ENDBRANCH   1   7
BRANCH   4  16
ATOM     16  O   LIG    1        8.250   1.327  27.090  0.00  0.00    -0.490 OA
BRANCH  16  17
ATOM     17  C   LIG    1        6.834   1.537  27.173  0.00  0.00    +0.248 C 
BRANCH  17  18
ATOM     18  C   LIG    1        6.280   2.783  26.498  0.00  0.00    +0.147 C 
BRANCH  18  19
ATOM     19  N   LIG    1        6.923   4.071  26.908  0.00  0.00    -0.315 N 
ATOM     20  C   LIG    1        7.934   4.518  25.939  0.00  0.00    +0.131 C 
BRANCH  19  21
ATOM     21  C   LIG    1        6.176   5.159  27.404  0.00  0.00    +0.121 A 
ATOM     22  C   LIG    1        5.098   4.980  28.277  0.00  0.00    +0.043 A 
ATOM     23  C   LIG    1        4.374   6.064  28.778  0.00  0.00    +0.005 A 
ATOM     24  C   LIG    1        4.788   7.344  28.472  0.00  0.00    +0.020 A 
ATOM     25  C   LIG    1        5.900   7.470  27.666  0.00  0.00    +0.113 A 
ATOM     26  N   LIG    1        6.575   6.423  27.128  0.00  0.00    -0.240 NA
ENDBRANCH  19  21
ENDBRANCH  18  19
ENDBRANCH  17  18
ENDBRANCH  16  17
ENDBRANCH   4  16
TORSDOF 7
ENDMDL
MODEL 2
REMARK VINA RESULT:      -8.4      1.171      2.488
REMARK  Name = 
REMARK                            x       y       z     vdW  Elec       q    Type
REMARK                         _______ _______ _______ _____ _____    ______ ____
ROOT
ATOM      1  C   LIG    1       10.093   1.121  30.674  0.00  0.00    -0.046 A 
ATOM      2  C   LIG    1       10.786   1.326  29.483  0.00  0.00    +0.007 A 
ATOM      3  C   LIG    1       10.115   1.342  28.266  0.00  0.00    +0.046 A 
ATOM      4  C   LIG    1        8.738   1.105  28.187  0.00  0.00    +0.121 A 
ATOM      5  C   LIG    1        8.040   0.871  29.371  0.00  0.00    +0.046 A 
ATOM      6  C   LIG    1        8.711   0.885  30.608  0.00  0.00    +0.007 A 
ENDROOT
BRANCH   1   7
ATOM      7  C   LIG    1       10.852   1.145  31.981  0.00  0.00    +0.059 C 
BRANCH   7  10
ATOM      8  O   LIG    1       11.856   4.256  32.064  0.00  0.00    -0.274 OA
ATOM      9  C   LIG    1       11.647   3.398  32.913  0.00  0.00    +0.234 C 
ATOM     10  C   LIG    1       10.536   2.358  32.869  0.00  0.00    +0.146 C 
ATOM     11  S   LIG    1       10.431   1.789  34.615  0.00  0.00    -0.054 S 
ATOM     12  C   LIG    1       11.892   2.620  35.085  0.00  0.00    +0.279 C 
ATOM     13  O   LIG    1       12.341   2.625  36.215  0.00  0.00    -0.263 OA
ATOM     14  N   LIG    1       12.409   3.295  34.034  0.00  0.00    -0.246 N 
ATOM     15  H   LIG    1       13.156   3.952  34.198  0.00  0.00    +0.158 HD
ENDBRANCH   7  10
ENDBRANCH   1   7
BRANCH   4  16
ATOM     16  O   LIG    1        8.016   1.079  27.005  0.00  0.00    -0.490 OA
BRANCH  16  17
ATOM     17  C   LIG    1        6.701   1.624  27.178  0.00  0.00    +0.248 C 
BRANCH  17  18
ATOM     18  C   LIG    1        6.293   2.754  26.244  0.00  0.00    +0.147 C 
BRANCH  18  19
ATOM     19  N   LIG    1        6.747   4.119  26.657  0.00  0.00    -0.315 N 
ATOM     20  C   LIG    1        6.105   4.563  27.903  0.00  0.00    +0.131 C 
BRANCH  19  21
ATOM     21  C   LIG    1        8.102   4.504  26.617  0.00  0.00    +0.121 A 
ATOM     22  C   LIG    1        8.706   4.964  25.441  0.00  0.00    +0.043 A 
ATOM     23  C   LIG    1       10.045   5.361  25.414  0.00  0.00    +0.005 A 
ATOM     24  C   LIG    1       10.761   5.381  26.592  0.00  0.00    +0.020 A 
ATOM     25  C   LIG    1       10.100   4.988  27.738  0.00  0.00    +0.113 A 
ATOM     26  N   LIG    1        8.818   4.546  27.764  0.00  0.00    -0.240 NA
ENDBRANCH  19  21
ENDBRANCH  18  19
ENDBRANCH  17  18
ENDBRANCH  16  17
ENDBRANCH   4  16
TORSDOF 7
ENDMDL
MODEL 3
REMARK VINA RESULT:      -8.1      3.245      8.309
REMARK  Name = 
REMARK                            x       y       z     vdW  Elec       q    Type
REMARK                         _______ _______ _______ _____ _____    ______ ____
ROOT
ATOM      1  C   LIG    1        9.141   4.334  26.689  0.00  0.00    -0.046 A 
ATOM      2  C   LIG    1       10.326   4.342  27.420  0.00  0.00    +0.007 A 
ATOM      3  C   LIG    1       10.661   3.271  28.240  0.00  0.00    +0.046 A 
ATOM      4  C   LIG    1        9.802   2.177  28.401  0.00  0.00    +0.121 A 
ATOM      5  C   LIG    1        8.600   2.173  27.694  0.00  0.00    +0.046 A 
ATOM      6  C   LIG    1        8.273   3.241  26.838  0.00  0.00    +0.007 A 
ENDROOT
BRANCH   1   7
ATOM      7  C   LIG    1        8.830   5.502  25.780  0.00  0.00    +0.059 C 
BRANCH   7  10
ATOM      8  O   LIG    1        7.031   7.598  24.031  0.00  0.00    -0.274 OA
ATOM      9  C   LIG    1        7.116   7.326  25.221  0.00  0.00    +0.234 C 
ATOM     10  C   LIG    1        7.357   5.938  25.800  0.00  0.00    +0.146 C 
ATOM     11  S   LIG    1        6.827   6.121  27.551  0.00  0.00    -0.054 S 
ATOM     12  C   LIG    1        6.685   7.856  27.439  0.00  0.00    +0.279 C 
ATOM     13  O   LIG    1        6.320   8.572  28.352  0.00  0.00    -0.263 OA
ATOM     14  N   LIG    1        6.982   8.273  26.188  0.00  0.00    -0.246 N 
ATOM     15  H   LIG    1        6.781   9.228  25.932  0.00  0.00    +0.158 HD
ENDBRANCH   7  10
ENDBRANCH   1   7
BRANCH   4  16
ATOM     16  O   LIG    1       10.062   1.093  29.224  0.00  0.00    -0.490 OA
BRANCH  16  17
ATOM     17  C   LIG    1       11.017   1.422  30.242  0.00  0.00    +0.248 C 
BRANCH  17  18
ATOM     18  C   LIG    1       10.526   1.402  31.682  0.00  0.00    +0.147 C 
BRANCH  18  19
ATOM     19  N   LIG    1       11.323   2.231  32.641  0.00  0.00    -0.315 N 
ATOM     20  C   LIG    1       11.294   3.660  32.294  0.00  0.00    +0.131 C 
BRANCH  19  21
ATOM     21  C   LIG    1       11.251   2.044  34.035  0.00  0.00    +0.121 A 
ATOM     22  C   LIG    1       12.276   2.461  34.892  0.00  0.00    +0.043 A 
ATOM     23  C   LIG    1       12.189   2.288  36.275  0.00  0.00    +0.005 A 
ATOM     24  C   LIG    1       11.028   1.774  36.814  0.00  0.00    +0.020 A 
ATOM     25  C   LIG    1       10.017   1.446  35.934  0.00  0.00    +0.113 A 
ATOM     26  N   LIG    1       10.115   1.556  34.585  0.00  0.00    -0.240 NA
ENDBRANCH  19  21
ENDBRANCH  18  19
ENDBRANCH  17  18
ENDBRANCH  16  17
ENDBRANCH   4  16
TORSDOF 7
ENDMDL
MODEL 4
REMARK VINA RESULT:      -8.0      5.702      8.586
REMARK  Name = 
REMARK                            x       y       z     vdW  Elec       q    Type
REMARK                         _______ _______ _______ _____ _____    ______ ____
ROOT
ATOM      1  C   LIG    1       15.631   2.820  28.720  0.00  0.00    -0.046 A 
ATOM      2  C   LIG    1       14.872   2.045  27.847  0.00  0.00    +0.007 A 
ATOM      3  C   LIG    1       13.508   1.872  28.055  0.00  0.00    +0.046 A 
ATOM      4  C   LIG    1       12.863   2.424  29.168  0.00  0.00    +0.121 A 
ATOM      5  C   LIG    1       13.620   3.178  30.062  0.00  0.00    +0.046 A 
ATOM      6  C   LIG    1       14.994   3.381  29.838  0.00  0.00    +0.007 A 
ENDROOT
BRANCH   1   7
ATOM      7  C   LIG    1       17.104   3.013  28.441  0.00  0.00    +0.059 C 
BRANCH   7  10
ATOM      8  O   LIG    1       18.926   3.767  25.833  0.00  0.00    -0.274 OA
ATOM      9  C   LIG    1       18.755   4.271  26.936  0.00  0.00    +0.234 C 
ATOM     10  C   LIG    1       17.437   4.315  27.697  0.00  0.00    +0.146 C 
ATOM     11  S   LIG    1       17.720   5.640  28.940  0.00  0.00    -0.054 S 
ATOM     12  C   LIG    1       19.428   5.746  28.596  0.00  0.00    +0.279 C 
ATOM     13  O   LIG    1       20.186   6.528  29.137  0.00  0.00    -0.263 OA
ATOM     14  N   LIG    1       19.764   4.884  27.611  0.00  0.00    -0.246 N 
ATOM     15  H   LIG    1       20.679   4.954  27.194  0.00  0.00    +0.158 HD
ENDBRANCH   7  10
ENDBRANCH   1   7
BRANCH   4  16
ATOM     16  O   LIG    1       11.515   2.265  29.448  0.00  0.00    -0.490 OA
BRANCH  16  17
ATOM     17  C   LIG    1       11.303   1.302  30.490  0.00  0.00    +0.248 C 
BRANCH  17  18
ATOM     18  C   LIG    1       10.517   1.765  31.708  0.00  0.00    +0.147 C 
BRANCH  18  19
ATOM     19  N   LIG    1       11.319   2.472  32.755  0.00  0.00    -0.315 N 
ATOM     20  C   LIG    1       11.324   3.929  32.558  0.00  0.00    +0.131 C 
BRANCH  19  21
ATOM     21  C   LIG    1       11.226   2.143  34.122  0.00  0.00    +0.121 A 
ATOM     22  C   LIG    1       12.235   2.476  35.033  0.00  0.00    +0.043 A 
ATOM     23  C   LIG    1       12.127   2.162  36.390  0.00  0.00    +0.005 A 
ATOM     24  C   LIG    1       10.961   1.589  36.854  0.00  0.00    +0.020 A 
ATOM     25  C   LIG    1        9.967   1.347  35.929  0.00  0.00    +0.113 A 
ATOM     26  N   LIG    1       10.085   1.595  34.600  0.00  0.00    -0.240 NA
ENDBRANCH  19  21
ENDBRANCH  18  19
ENDBRANCH  17  18
ENDBRANCH  16  17
ENDBRANCH   4  16
TORSDOF 7
ENDMDL
MODEL 5
REMARK VINA RESULT:      -7.8      6.074      9.142
REMARK  Name = 
REMARK                            x       y       z     vdW  Elec       q    Type
REMARK                         _______ _______ _______ _____ _____    ______ ____
ROOT
ATOM      1  C   LIG    1       15.958   2.999  28.480  0.00  0.00    -0.046 A 
ATOM      2  C   LIG    1       15.102   2.113  27.831  0.00  0.00    +0.007 A 
ATOM      3  C   LIG    1       13.826   1.869  28.324  0.00  0.00    +0.046 A 
ATOM      4  C   LIG    1       13.374   2.463  29.509  0.00  0.00    +0.121 A 
ATOM      5  C   LIG    1       14.234   3.331  30.181  0.00  0.00    +0.046 A 
ATOM      6  C   LIG    1       15.515   3.603  29.667  0.00  0.00    +0.007 A 
ENDROOT
BRANCH   1   7
ATOM      7  C   LIG    1       17.326   3.264  27.893  0.00  0.00    +0.059 C 
BRANCH   7  10
ATOM      8  O   LIG    1       15.778   4.223  25.177  0.00  0.00    -0.274 OA
ATOM      9  C   LIG    1       16.940   4.260  25.562  0.00  0.00    +0.234 C 
ATOM     10  C   LIG    1       17.394   4.508  26.994  0.00  0.00    +0.146 C 
ATOM     11  S   LIG    1       19.158   4.986  26.793  0.00  0.00    -0.054 S 
ATOM     12  C   LIG    1       19.198   4.539  25.107  0.00  0.00    +0.279 C 
ATOM     13  O   LIG    1       20.172   4.666  24.390  0.00  0.00    -0.263 OA
ATOM     14  N   LIG    1       17.986   4.093  24.708  0.00  0.00    -0.246 N 
ATOM     15  H   LIG    1       17.816   3.958  23.724  0.00  0.00    +0.158 HD
ENDBRANCH   7  10
ENDBRANCH   1   7
BRANCH   4  16
ATOM     16  O   LIG    1       12.127   2.240  30.069  0.00  0.00    -0.490 OA
BRANCH  16  17
ATOM     17  C   LIG    1       11.574   3.443  30.619  0.00  0.00    +0.248 C 
BRANCH  17  18
ATOM     18  C   LIG    1       10.920   3.340  31.989  0.00  0.00    +0.147 C 
BRANCH  18  19
ATOM     19  N   LIG    1       11.862   3.111  33.131  0.00  0.00    -0.315 N 
ATOM     20  C   LIG    1       12.833   4.206  33.275  0.00  0.00    +0.131 C 
BRANCH  19  21
ATOM     21  C   LIG    1       11.420   2.651  34.388  0.00  0.00    +0.121 A 
ATOM     22  C   LIG    1       10.338   1.773  34.516  0.00  0.00    +0.043 A 
ATOM     23  C   LIG    1        9.918   1.309  35.765  0.00  0.00    +0.005 A 
ATOM     24  C   LIG    1       10.642   1.656  36.887  0.00  0.00    +0.020 A 
ATOM     25  C   LIG    1       11.744   2.464  36.700  0.00  0.00    +0.113 A 
ATOM     26  N   LIG    1       12.126   2.967  35.499  0.00  0.00    -0.240 NA
ENDBRANCH  19  21
ENDBRANCH  18  19
ENDBRANCH  17  18
ENDBRANCH  16  17
ENDBRANCH   4  16
TORSDOF 7
ENDMDL
MODEL 6
REMARK VINA RESULT:      -7.7      1.546      2.280
REMARK  Name = 
REMARK                            x       y       z     vdW  Elec       q    Type
REMARK                         _______ _______ _______ _____ _____    ______ ____
ROOT
ATOM      1  C   LIG    1       10.942   2.282  30.768  0.00  0.00    -0.046 A 
ATOM      2  C   LIG    1       10.283   1.474  29.846  0.00  0.00    +0.007 A 
ATOM      3  C   LIG    1       10.002   1.940  28.567  0.00  0.00    +0.046 A 
ATOM      4  C   LIG    1       10.324   3.246  28.178  0.00  0.00    +0.121 A 
ATOM      5  C   LIG    1       10.960   4.072  29.104  0.00  0.00    +0.046 A 
ATOM      6  C   LIG    1       11.273   3.592  30.389  0.00  0.00    +0.007 A 
ENDROOT
BRANCH   1   7
ATOM      7  C   LIG    1       11.261   1.726  32.138  0.00  0.00    +0.059 C 
BRANCH   7  10
ATOM      8  O   LIG    1       12.985   4.128  33.534  0.00  0.00    -0.274 OA
ATOM      9  C   LIG    1       12.274   3.225  33.956  0.00  0.00    +0.234 C 
ATOM     10  C   LIG    1       11.005   2.709  33.290  0.00  0.00    +0.146 C 
ATOM     11  S   LIG    1       10.160   1.805  34.650  0.00  0.00    -0.054 S 
ATOM     12  C   LIG    1       11.541   1.899  35.713  0.00  0.00    +0.279 C 
ATOM     13  O   LIG    1       11.560   1.459  36.847  0.00  0.00    -0.263 OA
ATOM     14  N   LIG    1       12.549   2.575  35.119  0.00  0.00    -0.246 N 
ATOM     15  H   LIG    1       13.344   2.851  35.673  0.00  0.00    +0.158 HD
ENDBRANCH   7  10
ENDBRANCH   1   7
BRANCH   4  16
ATOM     16  O   LIG    1       10.046   3.781  26.930  0.00  0.00    -0.490 OA
BRANCH  16  17
ATOM     17  C   LIG    1        9.250   4.970  27.032  0.00  0.00    +0.248 C 
BRANCH  17  18
ATOM     18  C   LIG    1        8.466   5.384  25.796  0.00  0.00    +0.147 C 
BRANCH  18  19
ATOM     19  N   LIG    1        6.992   5.542  25.998  0.00  0.00    -0.315 N 
ATOM     20  C   LIG    1        6.290   4.250  25.993  0.00  0.00    +0.131 C 
BRANCH  19  21
ATOM     21  C   LIG    1        6.455   6.409  26.972  0.00  0.00    +0.121 A 
ATOM     22  C   LIG    1        6.823   7.757  27.045  0.00  0.00    +0.043 A 
ATOM     23  C   LIG    1        6.274   8.613  28.003  0.00  0.00    +0.005 A 
ATOM     24  C   LIG    1        5.282   8.139  28.836  0.00  0.00    +0.020 A 
ATOM     25  C   LIG    1        4.902   6.822  28.675  0.00  0.00    +0.113 A 
ATOM     26  N   LIG    1        5.470   5.967  27.788  0.00  0.00    -0.240 NA
ENDBRANCH  19  21
ENDBRANCH  18  19
ENDBRANCH  17  18
ENDBRANCH  16  17
ENDBRANCH   4  16
TORSDOF 7
ENDMDL
MODEL 7
REMARK VINA RESULT:      -7.7      2.913      7.964
REMARK  Name = 
REMARK                            x       y       z     vdW  Elec       q    Type
REMARK                         _______ _______ _______ _____ _____    ______ ____
ROOT
ATOM      1  C   LIG    1        8.118   1.864  27.219  0.00  0.00    -0.046 A 
ATOM      2  C   LIG    1        7.426   1.550  28.387  0.00  0.00    +0.007 A 
ATOM      3  C   LIG    1        8.106   1.351  29.582  0.00  0.00    +0.046 A 
ATOM      4  C   LIG    1        9.503   1.408  29.647  0.00  0.00    +0.121 A 
ATOM      5  C   LIG    1       10.207   1.694  28.477  0.00  0.00    +0.046 A 
ATOM      6  C   LIG    1        9.519   1.927  27.272  0.00  0.00    +0.007 A 
ENDROOT
BRANCH   1   7
ATOM      7  C   LIG    1        7.340   2.108  25.946  0.00  0.00    +0.059 C 
BRANCH   7  10
ATOM      8  O   LIG    1        8.917   4.971  26.012  0.00  0.00    -0.274 OA
ATOM      9  C   LIG    1        7.835   4.577  26.429  0.00  0.00    +0.234 C 
ATOM     10  C   LIG    1        6.928   3.572  25.732  0.00  0.00    +0.146 C 
ATOM     11  S   LIG    1        5.303   3.845  26.548  0.00  0.00    -0.054 S 
ATOM     12  C   LIG    1        5.977   4.873  27.786  0.00  0.00    +0.279 C 
ATOM     13  O   LIG    1        5.322   5.409  28.660  0.00  0.00    -0.263 OA
ATOM     14  N   LIG    1        7.306   5.029  27.597  0.00  0.00    -0.246 N 
ATOM     15  H   LIG    1        7.796   5.727  28.135  0.00  0.00    +0.158 HD
ENDBRANCH   7  10
ENDBRANCH   1   7
BRANCH   4  16
ATOM     16  O   LIG    1       10.242   1.190  30.799  0.00  0.00    -0.490 OA
BRANCH  16  17
ATOM     17  C   LIG    1       11.389   2.050  30.859  0.00  0.00    +0.248 C 
BRANCH  17  18
ATOM     18  C   LIG    1       11.327   3.216  31.834  0.00  0.00    +0.147 C 
BRANCH  18  19
ATOM     19  N   LIG    1       12.178   3.073  33.057  0.00  0.00    -0.315 N 
ATOM     20  C   LIG    1       12.954   4.290  33.337  0.00  0.00    +0.131 C 
BRANCH  19  21
ATOM     21  C   LIG    1       11.692   2.493  34.246  0.00  0.00    +0.121 A 
ATOM     22  C   LIG    1       12.440   2.496  35.429  0.00  0.00    +0.043 A 
ATOM     23  C   LIG    1       11.944   1.935  36.608  0.00  0.00    +0.005 A 
ATOM     24  C   LIG    1       10.654   1.447  36.627  0.00  0.00    +0.020 A 
ATOM     25  C   LIG    1        9.931   1.534  35.456  0.00  0.00    +0.113 A 
ATOM     26  N   LIG    1       10.424   2.024  34.290  0.00  0.00    -0.240 NA
ENDBRANCH  19  21
ENDBRANCH  18  19
ENDBRANCH  17  18
ENDBRANCH  16  17
ENDBRANCH   4  16
TORSDOF 7
ENDMDL
MODEL 8
REMARK VINA RESULT:      -7.4      6.585      9.335
REMARK  Name = 
REMARK                            x       y       z     vdW  Elec       q    Type
REMARK                         _______ _______ _______ _____ _____    ______ ____
ROOT
ATOM      1  C   LIG    1       13.233   2.267  29.099  0.00  0.00    -0.046 A 
ATOM      2  C   LIG    1       13.922   1.720  28.020  0.00  0.00    +0.007 A 
ATOM      3  C   LIG    1       15.264   2.014  27.812  0.00  0.00    +0.046 A 
ATOM      4  C   LIG    1       15.955   2.902  28.645  0.00  0.00    +0.121 A 
ATOM      5  C   LIG    1       15.267   3.477  29.712  0.00  0.00    +0.046 A 
ATOM      6  C   LIG    1       13.916   3.157  29.943  0.00  0.00    +0.007 A 
ENDROOT
BRANCH   1   7
ATOM      7  C   LIG    1       11.783   1.897  29.311  0.00  0.00    +0.059 C 
BRANCH   7  10
ATOM      8  O   LIG    1       10.884   4.219  27.193  0.00  0.00    -0.274 OA
ATOM      9  C   LIG    1       10.314   3.276  27.726  0.00  0.00    +0.234 C 
ATOM     10  C   LIG    1       10.934   1.920  28.030  0.00  0.00    +0.146 C 
ATOM     11  S   LIG    1        9.468   0.840  28.283  0.00  0.00    -0.054 S 
ATOM     12  C   LIG    1        8.350   2.179  28.296  0.00  0.00    +0.279 C 
ATOM     13  O   LIG    1        7.145   2.062  28.413  0.00  0.00    -0.263 OA
ATOM     14  N   LIG    1        9.007   3.344  28.099  0.00  0.00    -0.246 N 
ATOM     15  H   LIG    1        8.474   4.179  27.916  0.00  0.00    +0.158 HD
ENDBRANCH   7  10
ENDBRANCH   1   7
BRANCH   4  16
ATOM     16  O   LIG    1       17.283   3.259  28.476  0.00  0.00    -0.490 OA
BRANCH  16  17
ATOM     17  C   LIG    1       17.470   4.675  28.607  0.00  0.00    +0.248 C 
BRANCH  17  18
ATOM     18  C   LIG    1       17.344   5.508  27.340  0.00  0.00    +0.147 C 
BRANCH  18  19
ATOM     19  N   LIG    1       18.250   5.106  26.218  0.00  0.00    -0.315 N 
ATOM     20  C   LIG    1       19.628   4.872  26.676  0.00  0.00    +0.131 C 
BRANCH  19  21
ATOM     21  C   LIG    1       17.867   4.159  25.247  0.00  0.00    +0.121 A 
ATOM     22  C   LIG    1       16.525   3.925  24.931  0.00  0.00    +0.043 A 
ATOM     23  C   LIG    1       16.155   2.997  23.954  0.00  0.00    +0.005 A 
ATOM     24  C   LIG    1       17.140   2.362  23.226  0.00  0.00    +0.020 A 
ATOM     25  C   LIG    1       18.448   2.681  23.525  0.00  0.00    +0.113 A 
ATOM     26  N   LIG    1       18.818   3.537  24.511  0.00  0.00    -0.240 NA
ENDBRANCH  19  21
ENDBRANCH  18  19
ENDBRANCH  17  18
ENDBRANCH  16  17
ENDBRANCH   4  16
TORSDOF 7
ENDMDL
MODEL 9
REMARK VINA RESULT:      -7.3      1.596      1.910
REMARK  Name = 
REMARK                            x       y       z     vdW  Elec       q    Type
REMARK                         _______ _______ _______ _____ _____    ______ ____
ROOT
ATOM      1  C   LIG    1       10.076   1.118  30.626  0.00  0.00    -0.046 A 
ATOM      2  C   LIG    1        8.728   0.852  30.849  0.00  0.00    +0.007 A 
ATOM      3  C   LIG    1        7.874   0.575  29.789  0.00  0.00    +0.046 A 
ATOM      4  C   LIG    1        8.322   0.602  28.463  0.00  0.00    +0.121 A 
ATOM      5  C   LIG    1        9.665   0.895  28.227  0.00  0.00    +0.046 A 
ATOM      6  C   LIG    1       10.539   1.145  29.301  0.00  0.00    +0.007 A 
ENDROOT
BRANCH   1   7
ATOM      7  C   LIG    1       10.981   1.380  31.809  0.00  0.00    +0.059 C 
BRANCH   7  10
ATOM      8  O   LIG    1       11.061   4.157  30.085  0.00  0.00    -0.274 OA
ATOM      9  C   LIG    1       11.699   3.715  31.032  0.00  0.00    +0.234 C 
ATOM     10  C   LIG    1       11.136   2.866  32.164  0.00  0.00    +0.146 C 
ATOM     11  S   LIG    1       12.416   3.021  33.475  0.00  0.00    -0.054 S 
ATOM     12  C   LIG    1       13.560   3.803  32.414  0.00  0.00    +0.279 C 
ATOM     13  O   LIG    1       14.660   4.188  32.763  0.00  0.00    -0.263 OA
ATOM     14  N   LIG    1       13.028   3.965  31.183  0.00  0.00    -0.246 N 
ATOM     15  H   LIG    1       13.509   4.548  30.517  0.00  0.00    +0.158 HD
ENDBRANCH   7  10
ENDBRANCH   1   7
BRANCH   4  16
ATOM     16  O   LIG    1        7.517   0.365  27.360  0.00  0.00    -0.490 OA
BRANCH  16  17
ATOM     17  C   LIG    1        7.274   1.566  26.617  0.00  0.00    +0.248 C 
BRANCH  17  18
ATOM     18  C   LIG    1        6.383   2.614  27.268  0.00  0.00    +0.147 C 
BRANCH  18  19
ATOM     19  N   LIG    1        7.019   3.952  27.478  0.00  0.00    -0.315 N 
ATOM     20  C   LIG    1        8.132   4.188  26.546  0.00  0.00    +0.131 C 
BRANCH  19  21
ATOM     21  C   LIG    1        6.259   5.123  27.670  0.00  0.00    +0.121 A 
ATOM     22  C   LIG    1        5.035   5.107  28.348  0.00  0.00    +0.043 A 
ATOM     23  C   LIG    1        4.296   6.276  28.550  0.00  0.00    +0.005 A 
ATOM     24  C   LIG    1        4.829   7.483  28.149  0.00  0.00    +0.020 A 
ATOM     25  C   LIG    1        6.072   7.455  27.552  0.00  0.00    +0.113 A 
ATOM     26  N   LIG    1        6.771   6.320  27.299  0.00  0.00    -0.240 NA
ENDBRANCH  19  21
ENDBRANCH  18  19
ENDBRANCH  17  18
ENDBRANCH  16  17
ENDBRANCH   4  16
TORSDOF 7
ENDMDL
