MODEL 1
REMARK VINA RESULT:      -2.4      0.000      0.000
REMARK  Name = 
REMARK                            x       y       z     vdW  Elec       q    Type
REMARK                         _______ _______ _______ _____ _____    ______ ____
ROOT
ATOM      1  C   LIG    1       17.187   3.679  51.723  0.00  0.00    -0.046 A 
ATOM      2  C   LIG    1       17.414   5.044  51.877  0.00  0.00    +0.007 A 
ATOM      3  C   LIG    1       18.507   5.654  51.274  0.00  0.00    +0.046 A 
ATOM      4  C   LIG    1       19.442   4.917  50.538  0.00  0.00    +0.121 A 
ATOM      5  C   LIG    1       19.239   3.545  50.401  0.00  0.00    +0.046 A 
ATOM      6  C   LIG    1       18.116   2.929  50.983  0.00  0.00    +0.007 A 
ENDROOT
BRANCH   1   7
ATOM      7  C   LIG    1       15.967   3.058  52.364  0.00  0.00    +0.059 C 
BRANCH   7  10
ATOM      8  O   LIG    1       13.613   1.543  50.676  0.00  0.00    -0.274 OA
ATOM      9  C   LIG    1       14.237   1.287  51.697  0.00  0.00    +0.234 C 
ATOM     10  C   LIG    1       15.706   1.604  51.943  0.00  0.00    +0.146 C 
ATOM     11  S   LIG    1       16.139   0.503  53.351  0.00  0.00    -0.054 S 
ATOM     12  C   LIG    1       14.479   0.053  53.647  0.00  0.00    +0.279 C 
ATOM     13  O   LIG    1       14.128  -0.731  54.508  0.00  0.00    -0.263 OA
ATOM     14  N   LIG    1       13.661   0.651  52.752  0.00  0.00    -0.246 N 
ATOM     15  H   LIG    1       12.700   0.353  52.697  0.00  0.00    +0.158 HD
ENDBRANCH   7  10
ENDBRANCH   1   7
BRANCH   4  16
ATOM     16  O   LIG    1       20.567   5.459  49.938  0.00  0.00    -0.490 OA
BRANCH  16  17
ATOM     17  C   LIG    1       21.767   4.820  50.394  0.00  0.00    +0.248 C 
BRANCH  17  18
ATOM     18  C   LIG    1       22.404   5.371  51.661  0.00  0.00    +0.147 C 
BRANCH  18  19
ATOM     19  N   LIG    1       22.614   4.372  52.757  0.00  0.00    -0.315 N 
ATOM     20  C   LIG    1       23.544   4.865  53.784  0.00  0.00    +0.131 C 
BRANCH  19  21
ATOM     21  C   LIG    1       21.547   3.658  53.336  0.00  0.00    +0.121 A 
ATOM     22  C   LIG    1       20.551   4.294  54.086  0.00  0.00    +0.043 A 
ATOM     23  C   LIG    1       19.487   3.580  54.642  0.00  0.00    +0.005 A 
ATOM     24  C   LIG    1       19.370   2.233  54.372  0.00  0.00    +0.020 A 
ATOM     25  C   LIG    1       20.337   1.666  53.568  0.00  0.00    +0.113 A 
ATOM     26  N   LIG    1       21.405   2.338  53.070  0.00  0.00    -0.240 NA
ENDBRANCH  19  21
ENDBRANCH  18  19
ENDBRANCH  17  18
ENDBRANCH  16  17
ENDBRANCH   4  16
TORSDOF 7
ENDMDL
MODEL 2
REMARK VINA RESULT:      -2.2      2.071      3.602
REMARK  Name = 
REMARK                            x       y       z     vdW  Elec       q    Type
REMARK                         _______ _______ _______ _____ _____    ______ ____
ROOT
ATOM      1  C   LIG    1       16.876   3.228  52.728  0.00  0.00    -0.046 A 
ATOM      2  C   LIG    1       17.416   3.061  51.455  0.00  0.00    +0.007 A 
ATOM      3  C   LIG    1       18.791   2.968  51.273  0.00  0.00    +0.046 A 
ATOM      4  C   LIG    1       19.680   3.088  52.348  0.00  0.00    +0.121 A 
ATOM      5  C   LIG    1       19.150   3.284  53.623  0.00  0.00    +0.046 A 
ATOM      6  C   LIG    1       17.758   3.347  53.814  0.00  0.00    +0.007 A 
ENDROOT
BRANCH   1   7
ATOM      7  C   LIG    1       15.374   3.290  52.888  0.00  0.00    +0.059 C 
BRANCH   7  10
ATOM      8  O   LIG    1       16.218   0.396  54.156  0.00  0.00    -0.274 OA
ATOM      9  C   LIG    1       15.671   0.753  53.120  0.00  0.00    +0.234 C 
ATOM     10  C   LIG    1       14.696   1.915  52.985  0.00  0.00    +0.146 C 
ATOM     11  S   LIG    1       13.854   1.567  51.388  0.00  0.00    -0.054 S 
ATOM     12  C   LIG    1       14.963   0.289  50.960  0.00  0.00    +0.279 C 
ATOM     13  O   LIG    1       14.881  -0.374  49.943  0.00  0.00    -0.263 OA
ATOM     14  N   LIG    1       15.877   0.110  51.939  0.00  0.00    -0.246 N 
ATOM     15  H   LIG    1       16.474  -0.701  51.905  0.00  0.00    +0.158 HD
ENDBRANCH   7  10
ENDBRANCH   1   7
BRANCH   4  16
ATOM     16  O   LIG    1       21.059   3.034  52.231  0.00  0.00    -0.490 OA
BRANCH  16  17
ATOM     17  C   LIG    1       21.662   4.306  52.505  0.00  0.00    +0.248 C 
BRANCH  17  18
ATOM     18  C   LIG    1       21.831   5.258  51.331  0.00  0.00    +0.147 C 
BRANCH  18  19
ATOM     19  N   LIG    1       21.107   6.562  51.455  0.00  0.00    -0.315 N 
ATOM     20  C   LIG    1       21.746   7.628  50.668  0.00  0.00    +0.131 C 
BRANCH  19  21
ATOM     21  C   LIG    1       19.702   6.650  51.386  0.00  0.00    +0.121 A 
ATOM     22  C   LIG    1       19.008   6.467  50.185  0.00  0.00    +0.043 A 
ATOM     23  C   LIG    1       17.614   6.538  50.128  0.00  0.00    +0.005 A 
ATOM     24  C   LIG    1       16.903   6.706  51.298  0.00  0.00    +0.020 A 
ATOM     25  C   LIG    1       17.630   6.808  52.466  0.00  0.00    +0.113 A 
ATOM     26  N   LIG    1       18.986   6.798  52.524  0.00  0.00    -0.240 NA
ENDBRANCH  19  21
ENDBRANCH  18  19
ENDBRANCH  17  18
ENDBRANCH  16  17
ENDBRANCH   4  16
TORSDOF 7
ENDMDL
MODEL 3
REMARK VINA RESULT:      -2.1      1.633      2.068
REMARK  Name = 
REMARK                            x       y       z     vdW  Elec       q    Type
REMARK                         _______ _______ _______ _____ _____    ______ ____
ROOT
ATOM      1  C   LIG    1       17.641   3.277  51.595  0.00  0.00    -0.046 A 
ATOM      2  C   LIG    1       18.542   3.073  50.553  0.00  0.00    +0.007 A 
ATOM      3  C   LIG    1       19.253   4.137  50.011  0.00  0.00    +0.046 A 
ATOM      4  C   LIG    1       19.055   5.450  50.454  0.00  0.00    +0.121 A 
ATOM      5  C   LIG    1       18.134   5.668  51.478  0.00  0.00    +0.046 A 
ATOM      6  C   LIG    1       17.436   4.589  52.050  0.00  0.00    +0.007 A 
ENDROOT
BRANCH   1   7
ATOM      7  C   LIG    1       16.912   2.089  52.181  0.00  0.00    +0.059 C 
BRANCH   7  10
ATOM      8  O   LIG    1       14.218   3.369  53.520  0.00  0.00    -0.274 OA
ATOM      9  C   LIG    1       14.505   2.277  53.045  0.00  0.00    +0.234 C 
ATOM     10  C   LIG    1       15.414   2.043  51.846  0.00  0.00    +0.146 C 
ATOM     11  S   LIG    1       14.986   0.331  51.329  0.00  0.00    -0.054 S 
ATOM     12  C   LIG    1       14.032   0.024  52.758  0.00  0.00    +0.279 C 
ATOM     13  O   LIG    1       13.438  -1.015  52.972  0.00  0.00    -0.263 OA
ATOM     14  N   LIG    1       14.007   1.118  53.552  0.00  0.00    -0.246 N 
ATOM     15  H   LIG    1       13.362   1.143  54.326  0.00  0.00    +0.158 HD
ENDBRANCH   7  10
ENDBRANCH   1   7
BRANCH   4  16
ATOM     16  O   LIG    1       19.709   6.557  49.938  0.00  0.00    -0.490 OA
BRANCH  16  17
ATOM     17  C   LIG    1       20.397   7.288  50.961  0.00  0.00    +0.248 C 
BRANCH  17  18
ATOM     18  C   LIG    1       21.696   6.692  51.482  0.00  0.00    +0.147 C 
BRANCH  18  19
ATOM     19  N   LIG    1       21.676   6.274  52.919  0.00  0.00    -0.315 N 
ATOM     20  C   LIG    1       21.223   7.357  53.805  0.00  0.00    +0.131 C 
BRANCH  19  21
ATOM     21  C   LIG    1       21.161   5.029  53.332  0.00  0.00    +0.121 A 
ATOM     22  C   LIG    1       21.610   3.823  52.781  0.00  0.00    +0.043 A 
ATOM     23  C   LIG    1       21.107   2.592  53.209  0.00  0.00    +0.005 A 
ATOM     24  C   LIG    1       20.212   2.562  54.258  0.00  0.00    +0.020 A 
ATOM     25  C   LIG    1       19.857   3.772  54.817  0.00  0.00    +0.113 A 
ATOM     26  N   LIG    1       20.295   4.976  54.371  0.00  0.00    -0.240 NA
ENDBRANCH  19  21
ENDBRANCH  18  19
ENDBRANCH  17  18
ENDBRANCH  16  17
ENDBRANCH   4  16
TORSDOF 7
ENDMDL
MODEL 4
REMARK VINA RESULT:      -2.0      2.139      2.934
REMARK  Name = 
REMARK                            x       y       z     vdW  Elec       q    Type
REMARK                         _______ _______ _______ _____ _____    ______ ____
ROOT
ATOM      1  C   LIG    1       18.173   4.387  51.292  0.00  0.00    -0.046 A 
ATOM      2  C   LIG    1       18.258   5.136  52.464  0.00  0.00    +0.007 A 
ATOM      3  C   LIG    1       18.657   6.466  52.427  0.00  0.00    +0.046 A 
ATOM      4  C   LIG    1       19.034   7.084  51.229  0.00  0.00    +0.121 A 
ATOM      5  C   LIG    1       18.978   6.335  50.055  0.00  0.00    +0.046 A 
ATOM      6  C   LIG    1       18.545   4.996  50.084  0.00  0.00    +0.007 A 
ENDROOT
BRANCH   1   7
ATOM      7  C   LIG    1       17.701   2.952  51.369  0.00  0.00    +0.059 C 
BRANCH   7  10
ATOM      8  O   LIG    1       18.439   1.629  54.266  0.00  0.00    -0.274 OA
ATOM      9  C   LIG    1       17.512   1.504  53.476  0.00  0.00    +0.234 C 
ATOM     10  C   LIG    1       16.903   2.620  52.638  0.00  0.00    +0.146 C 
ATOM     11  S   LIG    1       15.276   1.924  52.138  0.00  0.00    -0.054 S 
ATOM     12  C   LIG    1       15.662   0.325  52.721  0.00  0.00    +0.279 C 
ATOM     13  O   LIG    1       14.898  -0.621  52.677  0.00  0.00    -0.263 OA
ATOM     14  N   LIG    1       16.896   0.309  53.273  0.00  0.00    -0.246 N 
ATOM     15  H   LIG    1       17.184  -0.502  53.799  0.00  0.00    +0.158 HD
ENDBRANCH   7  10
ENDBRANCH   1   7
BRANCH   4  16
ATOM     16  O   LIG    1       19.468   8.396  51.129  0.00  0.00    -0.490 OA
BRANCH  16  17
ATOM     17  C   LIG    1       20.835   8.468  50.701  0.00  0.00    +0.248 C 
BRANCH  17  18
ATOM     18  C   LIG    1       21.902   8.172  51.744  0.00  0.00    +0.147 C 
BRANCH  18  19
ATOM     19  N   LIG    1       22.723   6.947  51.488  0.00  0.00    -0.315 N 
ATOM     20  C   LIG    1       24.129   7.132  51.877  0.00  0.00    +0.131 C 
BRANCH  19  21
ATOM     21  C   LIG    1       22.269   5.655  51.820  0.00  0.00    +0.121 A 
ATOM     22  C   LIG    1       22.163   4.639  50.864  0.00  0.00    +0.043 A 
ATOM     23  C   LIG    1       21.729   3.356  51.205  0.00  0.00    +0.005 A 
ATOM     24  C   LIG    1       21.482   3.062  52.530  0.00  0.00    +0.020 A 
ATOM     25  C   LIG    1       21.671   4.077  53.445  0.00  0.00    +0.113 A 
ATOM     26  N   LIG    1       22.037   5.342  53.116  0.00  0.00    -0.240 NA
ENDBRANCH  19  21
ENDBRANCH  18  19
ENDBRANCH  17  18
ENDBRANCH  16  17
ENDBRANCH   4  16
TORSDOF 7
ENDMDL
MODEL 5
REMARK VINA RESULT:      -2.0      2.341      3.185
REMARK  Name = 
REMARK                            x       y       z     vdW  Elec       q    Type
REMARK                         _______ _______ _______ _____ _____    ______ ____
ROOT
ATOM      1  C   LIG    1       16.684   3.705  52.242  0.00  0.00    -0.046 A 
ATOM      2  C   LIG    1       16.205   4.078  53.496  0.00  0.00    +0.007 A 
ATOM      3  C   LIG    1       16.284   5.398  53.922  0.00  0.00    +0.046 A 
ATOM      4  C   LIG    1       16.889   6.385  53.134  0.00  0.00    +0.121 A 
ATOM      5  C   LIG    1       17.396   6.016  51.889  0.00  0.00    +0.046 A 
ATOM      6  C   LIG    1       17.289   4.686  51.442  0.00  0.00    +0.007 A 
ENDROOT
BRANCH   1   7
ATOM      7  C   LIG    1       16.548   2.265  51.801  0.00  0.00    +0.059 C 
BRANCH   7  10
ATOM      8  O   LIG    1       16.373  -0.339  53.770  0.00  0.00    -0.274 OA
ATOM      9  C   LIG    1       15.730   0.052  52.804  0.00  0.00    +0.234 C 
ATOM     10  C   LIG    1       15.402   1.504  52.484  0.00  0.00    +0.146 C 
ATOM     11  S   LIG    1       14.006   1.363  51.295  0.00  0.00    -0.054 S 
ATOM     12  C   LIG    1       14.200  -0.362  51.109  0.00  0.00    +0.279 C 
ATOM     13  O   LIG    1       13.488  -1.057  50.410  0.00  0.00    -0.263 OA
ATOM     14  N   LIG    1       15.207  -0.810  51.891  0.00  0.00    -0.246 N 
ATOM     15  H   LIG    1       15.324  -1.804  52.012  0.00  0.00    +0.158 HD
ENDBRANCH   7  10
ENDBRANCH   1   7
BRANCH   4  16
ATOM     16  O   LIG    1       17.026   7.711  53.512  0.00  0.00    -0.490 OA
BRANCH  16  17
ATOM     17  C   LIG    1       18.402   8.114  53.534  0.00  0.00    +0.248 C 
BRANCH  17  18
ATOM     18  C   LIG    1       19.246   7.625  54.701  0.00  0.00    +0.147 C 
BRANCH  18  19
ATOM     19  N   LIG    1       20.497   6.894  54.323  0.00  0.00    -0.315 N 
ATOM     20  C   LIG    1       21.570   7.085  55.310  0.00  0.00    +0.131 C 
BRANCH  19  21
ATOM     21  C   LIG    1       20.476   5.569  53.843  0.00  0.00    +0.121 A 
ATOM     22  C   LIG    1       19.866   4.532  54.558  0.00  0.00    +0.043 A 
ATOM     23  C   LIG    1       19.835   3.225  54.067  0.00  0.00    +0.005 A 
ATOM     24  C   LIG    1       20.340   2.970  52.810  0.00  0.00    +0.020 A 
ATOM     25  C   LIG    1       20.865   4.039  52.113  0.00  0.00    +0.113 A 
ATOM     26  N   LIG    1       20.952   5.300  52.605  0.00  0.00    -0.240 NA
ENDBRANCH  19  21
ENDBRANCH  18  19
ENDBRANCH  17  18
ENDBRANCH  16  17
ENDBRANCH   4  16
TORSDOF 7
ENDMDL
MODEL 6
REMARK VINA RESULT:      -1.8      2.356      3.091
REMARK  Name = 
REMARK                            x       y       z     vdW  Elec       q    Type
REMARK                         _______ _______ _______ _____ _____    ______ ____
ROOT
ATOM      1  C   LIG    1       19.152   4.691  50.977  0.00  0.00    -0.046 A 
ATOM      2  C   LIG    1       19.838   5.728  50.350  0.00  0.00    +0.007 A 
ATOM      3  C   LIG    1       21.204   5.634  50.112  0.00  0.00    +0.046 A 
ATOM      4  C   LIG    1       21.944   4.523  50.533  0.00  0.00    +0.121 A 
ATOM      5  C   LIG    1       21.272   3.491  51.186  0.00  0.00    +0.046 A 
ATOM      6  C   LIG    1       19.883   3.570  51.401  0.00  0.00    +0.007 A 
ENDROOT
BRANCH   1   7
ATOM      7  C   LIG    1       17.660   4.816  51.187  0.00  0.00    +0.059 C 
BRANCH   7  10
ATOM      8  O   LIG    1       16.365   1.900  51.900  0.00  0.00    -0.274 OA
ATOM      9  C   LIG    1       16.118   3.053  52.229  0.00  0.00    +0.234 C 
ATOM     10  C   LIG    1       17.148   4.148  52.472  0.00  0.00    +0.146 C 
ATOM     11  S   LIG    1       16.209   5.395  53.442  0.00  0.00    -0.054 S 
ATOM     12  C   LIG    1       14.675   4.607  53.171  0.00  0.00    +0.279 C 
ATOM     13  O   LIG    1       13.617   4.997  53.628  0.00  0.00    -0.263 OA
ATOM     14  N   LIG    1       14.845   3.484  52.438  0.00  0.00    -0.246 N 
ATOM     15  H   LIG    1       14.074   2.842  52.346  0.00  0.00    +0.158 HD
ENDBRANCH   7  10
ENDBRANCH   1   7
BRANCH   4  16
ATOM     16  O   LIG    1       23.311   4.381  50.353  0.00  0.00    -0.490 OA
BRANCH  16  17
ATOM     17  C   LIG    1       23.969   4.019  51.575  0.00  0.00    +0.248 C 
BRANCH  17  18
ATOM     18  C   LIG    1       24.532   5.154  52.418  0.00  0.00    +0.147 C 
BRANCH  18  19
ATOM     19  N   LIG    1       24.004   5.234  53.816  0.00  0.00    -0.315 N 
ATOM     20  C   LIG    1       24.825   6.107  54.669  0.00  0.00    +0.131 C 
BRANCH  19  21
ATOM     21  C   LIG    1       22.632   5.396  54.092  0.00  0.00    +0.121 A 
ATOM     22  C   LIG    1       21.914   6.511  53.646  0.00  0.00    +0.043 A 
ATOM     23  C   LIG    1       20.549   6.655  53.909  0.00  0.00    +0.005 A 
ATOM     24  C   LIG    1       19.878   5.633  54.548  0.00  0.00    +0.020 A 
ATOM     25  C   LIG    1       20.615   4.522  54.903  0.00  0.00    +0.113 A 
ATOM     26  N   LIG    1       21.952   4.398  54.703  0.00  0.00    -0.240 NA
ENDBRANCH  19  21
ENDBRANCH  18  19
ENDBRANCH  17  18
ENDBRANCH  16  17
ENDBRANCH   4  16
TORSDOF 7
ENDMDL
MODEL 7
REMARK VINA RESULT:      -1.8      3.486      6.857
REMARK  Name = 
REMARK                            x       y       z     vdW  Elec       q    Type
REMARK                         _______ _______ _______ _____ _____    ______ ____
ROOT
ATOM      1  C   LIG    1       19.649   5.796  50.672  0.00  0.00    -0.046 A 
ATOM      2  C   LIG    1       19.696   6.244  51.990  0.00  0.00    +0.007 A 
ATOM      3  C   LIG    1       18.581   6.822  52.585  0.00  0.00    +0.046 A 
ATOM      4  C   LIG    1       17.393   7.019  51.871  0.00  0.00    +0.121 A 
ATOM      5  C   LIG    1       17.343   6.599  50.543  0.00  0.00    +0.046 A 
ATOM      6  C   LIG    1       18.461   5.986  49.948  0.00  0.00    +0.007 A 
ENDROOT
BRANCH   1   7
ATOM      7  C   LIG    1       20.872   5.141  50.073  0.00  0.00    +0.059 C 
BRANCH   7  10
ATOM      8  O   LIG    1       23.699   6.730  50.493  0.00  0.00    -0.274 OA
ATOM      9  C   LIG    1       23.366   5.551  50.504  0.00  0.00    +0.234 C 
ATOM     10  C   LIG    1       22.052   5.004  51.046  0.00  0.00    +0.146 C 
ATOM     11  S   LIG    1       22.411   3.216  51.279  0.00  0.00    -0.054 S 
ATOM     12  C   LIG    1       23.935   3.303  50.433  0.00  0.00    +0.279 C 
ATOM     13  O   LIG    1       24.686   2.358  50.281  0.00  0.00    -0.263 OA
ATOM     14  N   LIG    1       24.179   4.570  50.029  0.00  0.00    -0.246 N 
ATOM     15  H   LIG    1       25.094   4.801  49.677  0.00  0.00    +0.158 HD
ENDBRANCH   7  10
ENDBRANCH   1   7
BRANCH   4  16
ATOM     16  O   LIG    1       16.256   7.614  52.395  0.00  0.00    -0.490 OA
BRANCH  16  17
ATOM     17  C   LIG    1       15.799   6.933  53.571  0.00  0.00    +0.248 C 
BRANCH  17  18
ATOM     18  C   LIG    1       14.853   5.759  53.365  0.00  0.00    +0.147 C 
BRANCH  18  19
ATOM     19  N   LIG    1       15.325   4.453  53.924  0.00  0.00    -0.315 N 
ATOM     20  C   LIG    1       14.219   3.502  54.119  0.00  0.00    +0.131 C 
BRANCH  19  21
ATOM     21  C   LIG    1       16.477   3.801  53.442  0.00  0.00    +0.121 A 
ATOM     22  C   LIG    1       16.582   3.370  52.115  0.00  0.00    +0.043 A 
ATOM     23  C   LIG    1       17.736   2.741  51.640  0.00  0.00    +0.005 A 
ATOM     24  C   LIG    1       18.827   2.622  52.476  0.00  0.00    +0.020 A 
ATOM     25  C   LIG    1       18.699   3.129  53.752  0.00  0.00    +0.113 A 
ATOM     26  N   LIG    1       17.564   3.689  54.241  0.00  0.00    -0.240 NA
ENDBRANCH  19  21
ENDBRANCH  18  19
ENDBRANCH  17  18
ENDBRANCH  16  17
ENDBRANCH   4  16
TORSDOF 7
ENDMDL
MODEL 8
REMARK VINA RESULT:      -1.8      3.290      6.619
REMARK  Name = 
REMARK                            x       y       z     vdW  Elec       q    Type
REMARK                         _______ _______ _______ _____ _____    ______ ____
ROOT
ATOM      1  C   LIG    1       18.004   2.332  53.231  0.00  0.00    -0.046 A 
ATOM      2  C   LIG    1       17.431   2.474  54.492  0.00  0.00    +0.007 A 
ATOM      3  C   LIG    1       16.086   2.797  54.628  0.00  0.00    +0.046 A 
ATOM      4  C   LIG    1       15.276   3.038  53.512  0.00  0.00    +0.121 A 
ATOM      5  C   LIG    1       15.847   2.926  52.245  0.00  0.00    +0.046 A 
ATOM      6  C   LIG    1       17.201   2.569  52.104  0.00  0.00    +0.007 A 
ENDROOT
BRANCH   1   7
ATOM      7  C   LIG    1       19.462   1.946  53.124  0.00  0.00    +0.059 C 
BRANCH   7  10
ATOM      8  O   LIG    1       20.168   3.727  50.475  0.00  0.00    -0.274 OA
ATOM      9  C   LIG    1       20.830   3.231  51.378  0.00  0.00    +0.234 C 
ATOM     10  C   LIG    1       20.404   3.124  52.836  0.00  0.00    +0.146 C 
ATOM     11  S   LIG    1       21.993   2.827  53.712  0.00  0.00    -0.054 S 
ATOM     12  C   LIG    1       22.883   2.570  52.233  0.00  0.00    +0.279 C 
ATOM     13  O   LIG    1       24.077   2.340  52.186  0.00  0.00    -0.263 OA
ATOM     14  N   LIG    1       22.072   2.720  51.162  0.00  0.00    -0.246 N 
ATOM     15  H   LIG    1       22.483   2.766  50.243  0.00  0.00    +0.158 HD
ENDBRANCH   7  10
ENDBRANCH   1   7
BRANCH   4  16
ATOM     16  O   LIG    1       13.937   3.392  53.579  0.00  0.00    -0.490 OA
BRANCH  16  17
ATOM     17  C   LIG    1       13.705   4.389  54.583  0.00  0.00    +0.248 C 
BRANCH  17  18
ATOM     18  C   LIG    1       13.476   5.814  54.102  0.00  0.00    +0.147 C 
BRANCH  18  19
ATOM     19  N   LIG    1       14.631   6.747  54.293  0.00  0.00    -0.315 N 
ATOM     20  C   LIG    1       14.861   7.061  55.711  0.00  0.00    +0.131 C 
BRANCH  19  21
ATOM     21  C   LIG    1       15.850   6.584  53.604  0.00  0.00    +0.121 A 
ATOM     22  C   LIG    1       17.042   6.281  54.270  0.00  0.00    +0.043 A 
ATOM     23  C   LIG    1       18.242   6.104  53.578  0.00  0.00    +0.005 A 
ATOM     24  C   LIG    1       18.232   6.143  52.199  0.00  0.00    +0.020 A 
ATOM     25  C   LIG    1       17.019   6.371  51.585  0.00  0.00    +0.113 A 
ATOM     26  N   LIG    1       15.859   6.602  52.250  0.00  0.00    -0.240 NA
ENDBRANCH  19  21
ENDBRANCH  18  19
ENDBRANCH  17  18
ENDBRANCH  16  17
ENDBRANCH   4  16
TORSDOF 7
ENDMDL
MODEL 9
REMARK VINA RESULT:      -1.7      2.835      4.300
REMARK  Name = 
REMARK                            x       y       z     vdW  Elec       q    Type
REMARK                         _______ _______ _______ _____ _____    ______ ____
ROOT
ATOM      1  C   LIG    1       19.797   3.763  52.062  0.00  0.00    -0.046 A 
ATOM      2  C   LIG    1       19.982   4.246  53.355  0.00  0.00    +0.007 A 
ATOM      3  C   LIG    1       20.908   5.250  53.612  0.00  0.00    +0.046 A 
ATOM      4  C   LIG    1       21.719   5.773  52.598  0.00  0.00    +0.121 A 
ATOM      5  C   LIG    1       21.561   5.277  51.305  0.00  0.00    +0.046 A 
ATOM      6  C   LIG    1       20.602   4.283  51.036  0.00  0.00    +0.007 A 
ENDROOT
BRANCH   1   7
ATOM      7  C   LIG    1       18.755   2.696  51.817  0.00  0.00    +0.059 C 
BRANCH   7  10
ATOM      8  O   LIG    1       18.559   0.929  54.561  0.00  0.00    -0.274 OA
ATOM      9  C   LIG    1       17.770   1.226  53.673  0.00  0.00    +0.234 C 
ATOM     10  C   LIG    1       17.717   2.560  52.941  0.00  0.00    +0.146 C 
ATOM     11  S   LIG    1       16.040   2.555  52.188  0.00  0.00    -0.054 S 
ATOM     12  C   LIG    1       15.754   0.878  52.579  0.00  0.00    +0.279 C 
ATOM     13  O   LIG    1       14.722   0.285  52.328  0.00  0.00    -0.263 OA
ATOM     14  N   LIG    1       16.811   0.362  53.244  0.00  0.00    -0.246 N 
ATOM     15  H   LIG    1       16.718  -0.543  53.678  0.00  0.00    +0.158 HD
ENDBRANCH   7  10
ENDBRANCH   1   7
BRANCH   4  16
ATOM     16  O   LIG    1       22.680   6.752  52.793  0.00  0.00    -0.490 OA
BRANCH  16  17
ATOM     17  C   LIG    1       22.098   7.975  53.266  0.00  0.00    +0.248 C 
BRANCH  17  18
ATOM     18  C   LIG    1       21.480   8.894  52.223  0.00  0.00    +0.147 C 
BRANCH  18  19
ATOM     19  N   LIG    1       19.992   9.035  52.298  0.00  0.00    -0.315 N 
ATOM     20  C   LIG    1       19.546  10.392  51.944  0.00  0.00    +0.131 C 
BRANCH  19  21
ATOM     21  C   LIG    1       19.117   8.060  51.778  0.00  0.00    +0.121 A 
ATOM     22  C   LIG    1       18.148   7.437  52.571  0.00  0.00    +0.043 A 
ATOM     23  C   LIG    1       17.273   6.484  52.044  0.00  0.00    +0.005 A 
ATOM     24  C   LIG    1       17.310   6.217  50.691  0.00  0.00    +0.020 A 
ATOM     25  C   LIG    1       18.234   6.911  49.938  0.00  0.00    +0.113 A 
ATOM     26  N   LIG    1       19.127   7.795  50.451  0.00  0.00    -0.240 NA
ENDBRANCH  19  21
ENDBRANCH  18  19
ENDBRANCH  17  18
ENDBRANCH  16  17
ENDBRANCH   4  16
TORSDOF 7
ENDMDL
