MODEL 1
REMARK VINA RESULT:      -8.4      0.000      0.000
REMARK  Name = 
REMARK                            x       y       z     vdW  Elec       q    Type
REMARK                         _______ _______ _______ _____ _____    ______ ____
ROOT
ATOM      1  C   LIG    1       25.982   2.264  16.664  0.00  0.00    -0.046 A 
ATOM      2  C   LIG    1       26.144   0.972  17.159  0.00  0.00    +0.007 A 
ATOM      3  C   LIG    1       26.238   0.742  18.526  0.00  0.00    +0.046 A 
ATOM      4  C   LIG    1       26.224   1.796  19.447  0.00  0.00    +0.121 A 
ATOM      5  C   LIG    1       26.090   3.095  18.961  0.00  0.00    +0.046 A 
ATOM      6  C   LIG    1       25.963   3.329  17.579  0.00  0.00    +0.007 A 
ENDROOT
BRANCH   1   7
ATOM      7  C   LIG    1       25.848   2.470  15.173  0.00  0.00    +0.059 C 
BRANCH   7  10
ATOM      8  O   LIG    1       22.936   3.792  15.854  0.00  0.00    -0.274 OA
ATOM      9  C   LIG    1       23.617   3.689  14.841  0.00  0.00    +0.234 C 
ATOM     10  C   LIG    1       25.136   3.773  14.780  0.00  0.00    +0.146 C 
ATOM     11  S   LIG    1       25.462   4.100  13.000  0.00  0.00    -0.054 S 
ATOM     12  C   LIG    1       23.809   3.795  12.531  0.00  0.00    +0.279 C 
ATOM     13  O   LIG    1       23.394   3.890  11.392  0.00  0.00    -0.263 OA
ATOM     14  N   LIG    1       23.059   3.498  13.616  0.00  0.00    -0.246 N 
ATOM     15  H   LIG    1       22.056   3.462  13.519  0.00  0.00    +0.158 HD
ENDBRANCH   7  10
ENDBRANCH   1   7
BRANCH   4  16
ATOM     16  O   LIG    1       26.343   1.637  20.819  0.00  0.00    -0.490 OA
BRANCH  16  17
ATOM     17  C   LIG    1       27.464   0.810  21.159  0.00  0.00    +0.248 C 
BRANCH  17  18
ATOM     18  C   LIG    1       28.805   1.505  21.341  0.00  0.00    +0.147 C 
BRANCH  18  19
ATOM     19  N   LIG    1       30.003   0.610  21.275  0.00  0.00    -0.315 N 
ATOM     20  C   LIG    1       31.258   1.349  21.479  0.00  0.00    +0.131 C 
BRANCH  19  21
ATOM     21  C   LIG    1       30.040  -0.644  21.916  0.00  0.00    +0.121 A 
ATOM     22  C   LIG    1       30.595  -1.773  21.303  0.00  0.00    +0.043 A 
ATOM     23  C   LIG    1       30.644  -3.008  21.953  0.00  0.00    +0.005 A 
ATOM     24  C   LIG    1       30.214  -3.095  23.261  0.00  0.00    +0.020 A 
ATOM     25  C   LIG    1       29.742  -1.938  23.846  0.00  0.00    +0.113 A 
ATOM     26  N   LIG    1       29.637  -0.747  23.204  0.00  0.00    -0.240 NA
ENDBRANCH  19  21
ENDBRANCH  18  19
ENDBRANCH  17  18
ENDBRANCH  16  17
ENDBRANCH   4  16
TORSDOF 7
ENDMDL
MODEL 2
REMARK VINA RESULT:      -8.3      3.409      9.824
REMARK  Name = 
REMARK                            x       y       z     vdW  Elec       q    Type
REMARK                         _______ _______ _______ _____ _____    ______ ____
ROOT
ATOM      1  C   LIG    1       27.793  -0.450  19.725  0.00  0.00    -0.046 A 
ATOM      2  C   LIG    1       27.235  -1.248  18.730  0.00  0.00    +0.007 A 
ATOM      3  C   LIG    1       26.522  -0.681  17.681  0.00  0.00    +0.046 A 
ATOM      4  C   LIG    1       26.296   0.699  17.612  0.00  0.00    +0.121 A 
ATOM      5  C   LIG    1       26.827   1.505  18.619  0.00  0.00    +0.046 A 
ATOM      6  C   LIG    1       27.576   0.936  19.666  0.00  0.00    +0.007 A 
ENDROOT
BRANCH   1   7
ATOM      7  C   LIG    1       28.591  -1.101  20.831  0.00  0.00    +0.059 C 
BRANCH   7  10
ATOM      8  O   LIG    1       30.821   1.254  21.244  0.00  0.00    -0.274 OA
ATOM      9  C   LIG    1       30.400   0.339  21.940  0.00  0.00    +0.234 C 
ATOM     10  C   LIG    1       28.960  -0.154  21.983  0.00  0.00    +0.146 C 
ATOM     11  S   LIG    1       28.891  -1.098  23.559  0.00  0.00    -0.054 S 
ATOM     12  C   LIG    1       30.619  -1.039  23.794  0.00  0.00    +0.279 C 
ATOM     13  O   LIG    1       31.194  -1.514  24.754  0.00  0.00    -0.263 OA
ATOM     14  N   LIG    1       31.207  -0.346  22.793  0.00  0.00    -0.246 N 
ATOM     15  H   LIG    1       32.177  -0.089  22.884  0.00  0.00    +0.158 HD
ENDBRANCH   7  10
ENDBRANCH   1   7
BRANCH   4  16
ATOM     16  O   LIG    1       25.571   1.324  16.611  0.00  0.00    -0.490 OA
BRANCH  16  17
ATOM     17  C   LIG    1       25.643   2.752  16.720  0.00  0.00    +0.248 C 
BRANCH  17  18
ATOM     18  C   LIG    1       24.390   3.536  16.363  0.00  0.00    +0.147 C 
BRANCH  18  19
ATOM     19  N   LIG    1       23.917   3.379  14.951  0.00  0.00    -0.315 N 
ATOM     20  C   LIG    1       22.560   3.912  14.759  0.00  0.00    +0.131 C 
BRANCH  19  21
ATOM     21  C   LIG    1       24.741   3.671  13.846  0.00  0.00    +0.121 A 
ATOM     22  C   LIG    1       25.812   4.567  13.939  0.00  0.00    +0.043 A 
ATOM     23  C   LIG    1       26.635   4.838  12.843  0.00  0.00    +0.005 A 
ATOM     24  C   LIG    1       26.439   4.141  11.669  0.00  0.00    +0.020 A 
ATOM     25  C   LIG    1       25.417   3.214  11.651  0.00  0.00    +0.113 A 
ATOM     26  N   LIG    1       24.576   2.986  12.691  0.00  0.00    -0.240 NA
ENDBRANCH  19  21
ENDBRANCH  18  19
ENDBRANCH  17  18
ENDBRANCH  16  17
ENDBRANCH   4  16
TORSDOF 7
ENDMDL
MODEL 3
REMARK VINA RESULT:      -8.2      1.205      1.766
REMARK  Name = 
REMARK                            x       y       z     vdW  Elec       q    Type
REMARK                         _______ _______ _______ _____ _____    ______ ____
ROOT
ATOM      1  C   LIG    1       25.911   2.489  16.289  0.00  0.00    -0.046 A 
ATOM      2  C   LIG    1       25.968   3.652  17.052  0.00  0.00    +0.007 A 
ATOM      3  C   LIG    1       26.132   3.590  18.431  0.00  0.00    +0.046 A 
ATOM      4  C   LIG    1       26.194   2.364  19.104  0.00  0.00    +0.121 A 
ATOM      5  C   LIG    1       26.111   1.193  18.352  0.00  0.00    +0.046 A 
ATOM      6  C   LIG    1       25.977   1.254  16.953  0.00  0.00    +0.007 A 
ENDROOT
BRANCH   1   7
ATOM      7  C   LIG    1       25.768   2.599  14.788  0.00  0.00    +0.059 C 
BRANCH   7  10
ATOM      8  O   LIG    1       22.870   3.868  15.614  0.00  0.00    -0.274 OA
ATOM      9  C   LIG    1       23.451   3.671  14.554  0.00  0.00    +0.234 C 
ATOM     10  C   LIG    1       24.949   3.813  14.322  0.00  0.00    +0.146 C 
ATOM     11  S   LIG    1       25.077   3.934  12.492  0.00  0.00    -0.054 S 
ATOM     12  C   LIG    1       23.405   3.502  12.240  0.00  0.00    +0.279 C 
ATOM     13  O   LIG    1       22.873   3.439  11.148  0.00  0.00    -0.263 OA
ATOM     14  N   LIG    1       22.784   3.308  13.425  0.00  0.00    -0.246 N 
ATOM     15  H   LIG    1       21.780   3.218  13.440  0.00  0.00    +0.158 HD
ENDBRANCH   7  10
ENDBRANCH   1   7
BRANCH   4  16
ATOM     16  O   LIG    1       26.327   2.233  20.477  0.00  0.00    -0.490 OA
BRANCH  16  17
ATOM     17  C   LIG    1       27.635   2.618  20.920  0.00  0.00    +0.248 C 
BRANCH  17  18
ATOM     18  C   LIG    1       28.763   1.623  20.689  0.00  0.00    +0.147 C 
BRANCH  18  19
ATOM     19  N   LIG    1       28.539   0.258  21.260  0.00  0.00    -0.315 N 
ATOM     20  C   LIG    1       28.300  -0.747  20.214  0.00  0.00    +0.131 C 
BRANCH  19  21
ATOM     21  C   LIG    1       29.340  -0.264  22.295  0.00  0.00    +0.121 A 
ATOM     22  C   LIG    1       28.791  -0.971  23.371  0.00  0.00    +0.043 A 
ATOM     23  C   LIG    1       29.593  -1.500  24.384  0.00  0.00    +0.005 A 
ATOM     24  C   LIG    1       30.964  -1.398  24.274  0.00  0.00    +0.020 A 
ATOM     25  C   LIG    1       31.461  -0.757  23.158  0.00  0.00    +0.113 A 
ATOM     26  N   LIG    1       30.688  -0.188  22.199  0.00  0.00    -0.240 NA
ENDBRANCH  19  21
ENDBRANCH  18  19
ENDBRANCH  17  18
ENDBRANCH  16  17
ENDBRANCH   4  16
TORSDOF 7
ENDMDL
MODEL 4
REMARK VINA RESULT:      -7.0      1.583      2.166
REMARK  Name = 
REMARK                            x       y       z     vdW  Elec       q    Type
REMARK                         _______ _______ _______ _____ _____    ______ ____
ROOT
ATOM      1  C   LIG    1       25.516   3.043  16.272  0.00  0.00    -0.046 A 
ATOM      2  C   LIG    1       25.608   3.534  17.572  0.00  0.00    +0.007 A 
ATOM      3  C   LIG    1       26.027   2.714  18.613  0.00  0.00    +0.046 A 
ATOM      4  C   LIG    1       26.322   1.362  18.405  0.00  0.00    +0.121 A 
ATOM      5  C   LIG    1       26.207   0.853  17.112  0.00  0.00    +0.046 A 
ATOM      6  C   LIG    1       25.813   1.689  16.050  0.00  0.00    +0.007 A 
ENDROOT
BRANCH   1   7
ATOM      7  C   LIG    1       25.090   3.975  15.161  0.00  0.00    +0.059 C 
BRANCH   7  10
ATOM      8  O   LIG    1       27.101   4.111  12.587  0.00  0.00    -0.274 OA
ATOM      9  C   LIG    1       25.885   4.127  12.728  0.00  0.00    +0.234 C 
ATOM     10  C   LIG    1       25.101   3.334  13.765  0.00  0.00    +0.146 C 
ATOM     11  S   LIG    1       23.387   3.361  13.099  0.00  0.00    -0.054 S 
ATOM     12  C   LIG    1       23.769   4.541  11.871  0.00  0.00    +0.279 C 
ATOM     13  O   LIG    1       22.971   4.957  11.053  0.00  0.00    -0.263 OA
ATOM     14  N   LIG    1       25.078   4.874  11.928  0.00  0.00    -0.246 N 
ATOM     15  H   LIG    1       25.475   5.416  11.177  0.00  0.00    +0.158 HD
ENDBRANCH   7  10
ENDBRANCH   1   7
BRANCH   4  16
ATOM     16  O   LIG    1       26.717   0.485  19.403  0.00  0.00    -0.490 OA
BRANCH  16  17
ATOM     17  C   LIG    1       26.497   1.038  20.708  0.00  0.00    +0.248 C 
BRANCH  17  18
ATOM     18  C   LIG    1       27.713   1.585  21.440  0.00  0.00    +0.147 C 
BRANCH  18  19
ATOM     19  N   LIG    1       29.005   0.890  21.141  0.00  0.00    -0.315 N 
ATOM     20  C   LIG    1       30.099   1.840  20.890  0.00  0.00    +0.131 C 
BRANCH  19  21
ATOM     21  C   LIG    1       29.453  -0.217  21.889  0.00  0.00    +0.121 A 
ATOM     22  C   LIG    1       28.787  -0.650  23.041  0.00  0.00    +0.043 A 
ATOM     23  C   LIG    1       29.228  -1.759  23.767  0.00  0.00    +0.005 A 
ATOM     24  C   LIG    1       30.291  -2.495  23.286  0.00  0.00    +0.020 A 
ATOM     25  C   LIG    1       30.867  -2.072  22.107  0.00  0.00    +0.113 A 
ATOM     26  N   LIG    1       30.484  -0.962  21.426  0.00  0.00    -0.240 NA
ENDBRANCH  19  21
ENDBRANCH  18  19
ENDBRANCH  17  18
ENDBRANCH  16  17
ENDBRANCH   4  16
TORSDOF 7
ENDMDL
MODEL 5
REMARK VINA RESULT:      -7.0      1.256      2.324
REMARK  Name = 
REMARK                            x       y       z     vdW  Elec       q    Type
REMARK                         _______ _______ _______ _____ _____    ______ ____
ROOT
ATOM      1  C   LIG    1       25.972   2.259  16.504  0.00  0.00    -0.046 A 
ATOM      2  C   LIG    1       25.886   3.346  17.371  0.00  0.00    +0.007 A 
ATOM      3  C   LIG    1       26.058   3.177  18.739  0.00  0.00    +0.046 A 
ATOM      4  C   LIG    1       26.272   1.912  19.299  0.00  0.00    +0.121 A 
ATOM      5  C   LIG    1       26.332   0.814  18.442  0.00  0.00    +0.046 A 
ATOM      6  C   LIG    1       26.189   0.986  17.053  0.00  0.00    +0.007 A 
ENDROOT
BRANCH   1   7
ATOM      7  C   LIG    1       25.814   2.489  15.018  0.00  0.00    +0.059 C 
BRANCH   7  10
ATOM      8  O   LIG    1       22.897   3.784  15.729  0.00  0.00    -0.274 OA
ATOM      9  C   LIG    1       23.579   3.709  14.715  0.00  0.00    +0.234 C 
ATOM     10  C   LIG    1       25.098   3.799  14.657  0.00  0.00    +0.146 C 
ATOM     11  S   LIG    1       25.425   4.173  12.887  0.00  0.00    -0.054 S 
ATOM     12  C   LIG    1       23.773   3.874  12.409  0.00  0.00    +0.279 C 
ATOM     13  O   LIG    1       23.359   3.997  11.272  0.00  0.00    -0.263 OA
ATOM     14  N   LIG    1       23.023   3.547  13.484  0.00  0.00    -0.246 N 
ATOM     15  H   LIG    1       22.020   3.511  13.386  0.00  0.00    +0.158 HD
ENDBRANCH   7  10
ENDBRANCH   1   7
BRANCH   4  16
ATOM     16  O   LIG    1       26.422   1.672  20.655  0.00  0.00    -0.490 OA
BRANCH  16  17
ATOM     17  C   LIG    1       26.062   0.327  20.995  0.00  0.00    +0.248 C 
BRANCH  17  18
ATOM     18  C   LIG    1       27.196  -0.628  21.336  0.00  0.00    +0.147 C 
BRANCH  18  19
ATOM     19  N   LIG    1       28.184  -0.115  22.337  0.00  0.00    -0.315 N 
ATOM     20  C   LIG    1       28.265  -0.977  23.526  0.00  0.00    +0.131 C 
BRANCH  19  21
ATOM     21  C   LIG    1       29.458   0.356  21.962  0.00  0.00    +0.121 A 
ATOM     22  C   LIG    1       29.619   1.453  21.109  0.00  0.00    +0.043 A 
ATOM     23  C   LIG    1       30.886   1.925  20.756  0.00  0.00    +0.005 A 
ATOM     24  C   LIG    1       31.999   1.350  21.331  0.00  0.00    +0.020 A 
ATOM     25  C   LIG    1       31.785   0.319  22.223  0.00  0.00    +0.113 A 
ATOM     26  N   LIG    1       30.563  -0.184  22.528  0.00  0.00    -0.240 NA
ENDBRANCH  19  21
ENDBRANCH  18  19
ENDBRANCH  17  18
ENDBRANCH  16  17
ENDBRANCH   4  16
TORSDOF 7
ENDMDL
MODEL 6
REMARK VINA RESULT:      -6.8      1.103      1.670
REMARK  Name = 
REMARK                            x       y       z     vdW  Elec       q    Type
REMARK                         _______ _______ _______ _____ _____    ______ ____
ROOT
ATOM      1  C   LIG    1       26.039   1.973  16.694  0.00  0.00    -0.046 A 
ATOM      2  C   LIG    1       26.305   0.654  17.053  0.00  0.00    +0.007 A 
ATOM      3  C   LIG    1       26.483   0.303  18.385  0.00  0.00    +0.046 A 
ATOM      4  C   LIG    1       26.451   1.262  19.405  0.00  0.00    +0.121 A 
ATOM      5  C   LIG    1       26.213   2.590  19.053  0.00  0.00    +0.046 A 
ATOM      6  C   LIG    1       26.002   2.944  17.708  0.00  0.00    +0.007 A 
ENDROOT
BRANCH   1   7
ATOM      7  C   LIG    1       25.817   2.309  15.237  0.00  0.00    +0.059 C 
BRANCH   7  10
ATOM      8  O   LIG    1       22.975   3.747  15.974  0.00  0.00    -0.274 OA
ATOM      9  C   LIG    1       23.697   3.729  14.985  0.00  0.00    +0.234 C 
ATOM     10  C   LIG    1       25.219   3.704  14.998  0.00  0.00    +0.146 C 
ATOM     11  S   LIG    1       25.658   4.241  13.295  0.00  0.00    -0.054 S 
ATOM     12  C   LIG    1       24.013   4.129  12.722  0.00  0.00    +0.279 C 
ATOM     13  O   LIG    1       23.664   4.408  11.590  0.00  0.00    -0.263 OA
ATOM     14  N   LIG    1       23.190   3.747  13.723  0.00  0.00    -0.246 N 
ATOM     15  H   LIG    1       22.193   3.802  13.582  0.00  0.00    +0.158 HD
ENDBRANCH   7  10
ENDBRANCH   1   7
BRANCH   4  16
ATOM     16  O   LIG    1       26.649   0.983  20.747  0.00  0.00    -0.490 OA
BRANCH  16  17
ATOM     17  C   LIG    1       27.076  -0.371  20.947  0.00  0.00    +0.248 C 
BRANCH  17  18
ATOM     18  C   LIG    1       28.330  -0.816  20.208  0.00  0.00    +0.147 C 
BRANCH  18  19
ATOM     19  N   LIG    1       29.233  -1.731  20.975  0.00  0.00    -0.315 N 
ATOM     20  C   LIG    1       30.146  -2.474  20.094  0.00  0.00    +0.131 C 
BRANCH  19  21
ATOM     21  C   LIG    1       29.884  -1.325  22.157  0.00  0.00    +0.121 A 
ATOM     22  C   LIG    1       29.538  -1.848  23.408  0.00  0.00    +0.043 A 
ATOM     23  C   LIG    1       30.200  -1.454  24.574  0.00  0.00    +0.005 A 
ATOM     24  C   LIG    1       31.276  -0.597  24.475  0.00  0.00    +0.020 A 
ATOM     25  C   LIG    1       31.625  -0.167  23.212  0.00  0.00    +0.113 A 
ATOM     26  N   LIG    1       30.952  -0.498  22.081  0.00  0.00    -0.240 NA
ENDBRANCH  19  21
ENDBRANCH  18  19
ENDBRANCH  17  18
ENDBRANCH  16  17
ENDBRANCH   4  16
TORSDOF 7
ENDMDL
MODEL 7
REMARK VINA RESULT:      -6.8      3.558      9.491
REMARK  Name = 
REMARK                            x       y       z     vdW  Elec       q    Type
REMARK                         _______ _______ _______ _____ _____    ______ ____
ROOT
ATOM      1  C   LIG    1       28.427  -0.197  22.451  0.00  0.00    -0.046 A 
ATOM      2  C   LIG    1       27.289  -0.618  21.767  0.00  0.00    +0.007 A 
ATOM      3  C   LIG    1       26.890   0.015  20.596  0.00  0.00    +0.046 A 
ATOM      4  C   LIG    1       27.582   1.122  20.091  0.00  0.00    +0.121 A 
ATOM      5  C   LIG    1       28.707   1.569  20.784  0.00  0.00    +0.046 A 
ATOM      6  C   LIG    1       29.131   0.910  21.953  0.00  0.00    +0.007 A 
ENDROOT
BRANCH   1   7
ATOM      7  C   LIG    1       28.848  -0.934  23.702  0.00  0.00    +0.059 C 
BRANCH   7  10
ATOM      8  O   LIG    1       31.916   0.121  23.298  0.00  0.00    -0.274 OA
ATOM      9  C   LIG    1       31.259  -0.804  22.838  0.00  0.00    +0.234 C 
ATOM     10  C   LIG    1       30.219  -1.618  23.597  0.00  0.00    +0.146 C 
ATOM     11  S   LIG    1       30.039  -3.128  22.563  0.00  0.00    -0.054 S 
ATOM     12  C   LIG    1       30.971  -2.466  21.244  0.00  0.00    +0.279 C 
ATOM     13  O   LIG    1       31.224  -3.067  20.218  0.00  0.00    -0.263 OA
ATOM     14  N   LIG    1       31.410  -1.225  21.553  0.00  0.00    -0.246 N 
ATOM     15  H   LIG    1       32.097  -0.789  20.958  0.00  0.00    +0.158 HD
ENDBRANCH   7  10
ENDBRANCH   1   7
BRANCH   4  16
ATOM     16  O   LIG    1       27.221   1.815  18.947  0.00  0.00    -0.490 OA
BRANCH  16  17
ATOM     17  C   LIG    1       26.434   2.973  19.259  0.00  0.00    +0.248 C 
BRANCH  17  18
ATOM     18  C   LIG    1       25.606   3.570  18.131  0.00  0.00    +0.147 C 
BRANCH  18  19
ATOM     19  N   LIG    1       25.815   2.947  16.786  0.00  0.00    -0.315 N 
ATOM     20  C   LIG    1       25.819   1.478  16.850  0.00  0.00    +0.131 C 
BRANCH  19  21
ATOM     21  C   LIG    1       25.145   3.405  15.634  0.00  0.00    +0.121 A 
ATOM     22  C   LIG    1       25.801   3.552  14.406  0.00  0.00    +0.043 A 
ATOM     23  C   LIG    1       25.125   3.990  13.264  0.00  0.00    +0.005 A 
ATOM     24  C   LIG    1       23.763   4.197  13.330  0.00  0.00    +0.020 A 
ATOM     25  C   LIG    1       23.149   3.967  14.544  0.00  0.00    +0.113 A 
ATOM     26  N   LIG    1       23.806   3.599  15.673  0.00  0.00    -0.240 NA
ENDBRANCH  19  21
ENDBRANCH  18  19
ENDBRANCH  17  18
ENDBRANCH  16  17
ENDBRANCH   4  16
TORSDOF 7
ENDMDL
MODEL 8
REMARK VINA RESULT:      -6.3      1.986      3.935
REMARK  Name = 
REMARK                            x       y       z     vdW  Elec       q    Type
REMARK                         _______ _______ _______ _____ _____    ______ ____
ROOT
ATOM      1  C   LIG    1       26.255   1.154  16.497  0.00  0.00    -0.046 A 
ATOM      2  C   LIG    1       25.774   1.797  17.635  0.00  0.00    +0.007 A 
ATOM      3  C   LIG    1       25.969   1.248  18.897  0.00  0.00    +0.046 A 
ATOM      4  C   LIG    1       26.607   0.014  19.066  0.00  0.00    +0.121 A 
ATOM      5  C   LIG    1       27.068  -0.651  17.930  0.00  0.00    +0.046 A 
ATOM      6  C   LIG    1       26.899  -0.083  16.654  0.00  0.00    +0.007 A 
ENDROOT
BRANCH   1   7
ATOM      7  C   LIG    1       26.053   1.801  15.146  0.00  0.00    +0.059 C 
BRANCH   7  10
ATOM      8  O   LIG    1       23.502   3.336  16.498  0.00  0.00    -0.274 OA
ATOM      9  C   LIG    1       24.085   3.421  15.424  0.00  0.00    +0.234 C 
ATOM     10  C   LIG    1       25.584   3.262  15.212  0.00  0.00    +0.146 C 
ATOM     11  S   LIG    1       25.855   4.036  13.566  0.00  0.00    -0.054 S 
ATOM     12  C   LIG    1       24.148   4.163  13.226  0.00  0.00    +0.279 C 
ATOM     13  O   LIG    1       23.688   4.655  12.214  0.00  0.00    -0.263 OA
ATOM     14  N   LIG    1       23.424   3.693  14.266  0.00  0.00    -0.246 N 
ATOM     15  H   LIG    1       22.429   3.856  14.281  0.00  0.00    +0.158 HD
ENDBRANCH   7  10
ENDBRANCH   1   7
BRANCH   4  16
ATOM     16  O   LIG    1       26.808  -0.601  20.291  0.00  0.00    -0.490 OA
BRANCH  16  17
ATOM     17  C   LIG    1       28.158  -0.442  20.746  0.00  0.00    +0.248 C 
BRANCH  17  18
ATOM     18  C   LIG    1       28.414   0.640  21.784  0.00  0.00    +0.147 C 
BRANCH  18  19
ATOM     19  N   LIG    1       28.745   1.991  21.231  0.00  0.00    -0.315 N 
ATOM     20  C   LIG    1       29.869   1.941  20.284  0.00  0.00    +0.131 C 
BRANCH  19  21
ATOM     21  C   LIG    1       27.750   2.888  20.794  0.00  0.00    +0.121 A 
ATOM     22  C   LIG    1       26.511   2.989  21.435  0.00  0.00    +0.043 A 
ATOM     23  C   LIG    1       25.536   3.893  21.006  0.00  0.00    +0.005 A 
ATOM     24  C   LIG    1       25.838   4.766  19.982  0.00  0.00    +0.020 A 
ATOM     25  C   LIG    1       27.099   4.678  19.431  0.00  0.00    +0.113 A 
ATOM     26  N   LIG    1       28.031   3.764  19.801  0.00  0.00    -0.240 NA
ENDBRANCH  19  21
ENDBRANCH  18  19
ENDBRANCH  17  18
ENDBRANCH  16  17
ENDBRANCH   4  16
TORSDOF 7
ENDMDL
MODEL 9
REMARK VINA RESULT:      -5.8      1.860      2.522
REMARK  Name = 
REMARK                            x       y       z     vdW  Elec       q    Type
REMARK                         _______ _______ _______ _____ _____    ______ ____
ROOT
ATOM      1  C   LIG    1       26.046   3.139  18.877  0.00  0.00    -0.046 A 
ATOM      2  C   LIG    1       25.762   1.894  19.433  0.00  0.00    +0.007 A 
ATOM      3  C   LIG    1       26.637   1.303  20.336  0.00  0.00    +0.046 A 
ATOM      4  C   LIG    1       27.851   1.909  20.680  0.00  0.00    +0.121 A 
ATOM      5  C   LIG    1       28.158   3.143  20.108  0.00  0.00    +0.046 A 
ATOM      6  C   LIG    1       27.259   3.758  19.217  0.00  0.00    +0.007 A 
ENDROOT
BRANCH   1   7
ATOM      7  C   LIG    1       25.052   3.764  17.926  0.00  0.00    +0.059 C 
BRANCH   7  10
ATOM      8  O   LIG    1       26.485   1.268  16.375  0.00  0.00    -0.274 OA
ATOM      9  C   LIG    1       25.861   2.258  16.015  0.00  0.00    +0.234 C 
ATOM     10  C   LIG    1       24.668   2.867  16.739  0.00  0.00    +0.146 C 
ATOM     11  S   LIG    1       23.888   3.915  15.445  0.00  0.00    -0.054 S 
ATOM     12  C   LIG    1       25.225   3.732  14.339  0.00  0.00    +0.279 C 
ATOM     13  O   LIG    1       25.262   4.220  13.226  0.00  0.00    -0.263 OA
ATOM     14  N   LIG    1       26.172   2.930  14.874  0.00  0.00    -0.246 N 
ATOM     15  H   LIG    1       26.922   2.601  14.285  0.00  0.00    +0.158 HD
ENDBRANCH   7  10
ENDBRANCH   1   7
BRANCH   4  16
ATOM     16  O   LIG    1       28.780   1.361  21.550  0.00  0.00    -0.490 OA
BRANCH  16  17
ATOM     17  C   LIG    1       30.071   1.964  21.392  0.00  0.00    +0.248 C 
BRANCH  17  18
ATOM     18  C   LIG    1       31.201   1.063  20.914  0.00  0.00    +0.147 C 
BRANCH  18  19
ATOM     19  N   LIG    1       31.798   0.177  21.963  0.00  0.00    -0.315 N 
ATOM     20  C   LIG    1       32.296   0.942  23.116  0.00  0.00    +0.131 C 
BRANCH  19  21
ATOM     21  C   LIG    1       31.180  -1.021  22.374  0.00  0.00    +0.121 A 
ATOM     22  C   LIG    1       30.451  -1.105  23.566  0.00  0.00    +0.043 A 
ATOM     23  C   LIG    1       29.826  -2.292  23.958  0.00  0.00    +0.005 A 
ATOM     24  C   LIG    1       29.858  -3.378  23.108  0.00  0.00    +0.020 A 
ATOM     25  C   LIG    1       30.527  -3.222  21.912  0.00  0.00    +0.113 A 
ATOM     26  N   LIG    1       31.185  -2.092  21.548  0.00  0.00    -0.240 NA
ENDBRANCH  19  21
ENDBRANCH  18  19
ENDBRANCH  17  18
ENDBRANCH  16  17
ENDBRANCH   4  16
TORSDOF 7
ENDMDL
