MODEL 1
REMARK VINA RESULT:      -7.8      0.000      0.000
REMARK  Name = 
REMARK                            x       y       z     vdW  Elec       q    Type
REMARK                         _______ _______ _______ _____ _____    ______ ____
ROOT
ATOM      1  C   LIG    1        4.150  18.060  30.826  0.00  0.00    -0.046 A 
ATOM      2  C   LIG    1        5.433  17.550  31.011  0.00  0.00    +0.007 A 
ATOM      3  C   LIG    1        6.551  18.347  30.801  0.00  0.00    +0.046 A 
ATOM      4  C   LIG    1        6.434  19.667  30.350  0.00  0.00    +0.121 A 
ATOM      5  C   LIG    1        5.155  20.179  30.135  0.00  0.00    +0.046 A 
ATOM      6  C   LIG    1        4.019  19.384  30.377  0.00  0.00    +0.007 A 
ENDROOT
BRANCH   1   7
ATOM      7  C   LIG    1        2.958  17.172  31.099  0.00  0.00    +0.059 C 
BRANCH   7  10
ATOM      8  O   LIG    1        1.502  14.597  32.491  0.00  0.00    -0.274 OA
ATOM      9  C   LIG    1        1.675  15.765  32.815  0.00  0.00    +0.234 C 
ATOM     10  C   LIG    1        2.917  16.594  32.521  0.00  0.00    +0.146 C 
ATOM     11  S   LIG    1        2.778  17.988  33.712  0.00  0.00    -0.054 S 
ATOM     12  C   LIG    1        1.147  17.571  34.174  0.00  0.00    +0.279 C 
ATOM     13  O   LIG    1        0.500  18.172  35.009  0.00  0.00    -0.263 OA
ATOM     14  N   LIG    1        0.740  16.463  33.516  0.00  0.00    -0.246 N 
ATOM     15  H   LIG    1       -0.113  16.011  33.804  0.00  0.00    +0.158 HD
ENDBRANCH   7  10
ENDBRANCH   1   7
BRANCH   4  16
ATOM     16  O   LIG    1        7.508  20.504  30.093  0.00  0.00    -0.490 OA
BRANCH  16  17
ATOM     17  C   LIG    1        7.884  20.471  28.710  0.00  0.00    +0.248 C 
BRANCH  17  18
ATOM     18  C   LIG    1        7.018  21.261  27.740  0.00  0.00    +0.147 C 
BRANCH  18  19
ATOM     19  N   LIG    1        6.492  20.483  26.574  0.00  0.00    -0.315 N 
ATOM     20  C   LIG    1        7.572  19.877  25.781  0.00  0.00    +0.131 C 
BRANCH  19  21
ATOM     21  C   LIG    1        5.392  19.610  26.687  0.00  0.00    +0.121 A 
ATOM     22  C   LIG    1        5.547  18.267  27.047  0.00  0.00    +0.043 A 
ATOM     23  C   LIG    1        4.450  17.413  27.175  0.00  0.00    +0.005 A 
ATOM     24  C   LIG    1        3.179  17.929  27.028  0.00  0.00    +0.020 A 
ATOM     25  C   LIG    1        3.075  19.275  26.747  0.00  0.00    +0.113 A 
ATOM     26  N   LIG    1        4.136  20.100  26.563  0.00  0.00    -0.240 NA
ENDBRANCH  19  21
ENDBRANCH  18  19
ENDBRANCH  17  18
ENDBRANCH  16  17
ENDBRANCH   4  16
TORSDOF 7
ENDMDL
MODEL 2
REMARK VINA RESULT:      -7.8      3.248      8.535
REMARK  Name = 
REMARK                            x       y       z     vdW  Elec       q    Type
REMARK                         _______ _______ _______ _____ _____    ______ ____
ROOT
ATOM      1  C   LIG    1        7.002  20.096  28.181  0.00  0.00    -0.046 A 
ATOM      2  C   LIG    1        5.836  19.635  27.574  0.00  0.00    +0.007 A 
ATOM      3  C   LIG    1        4.731  19.278  28.338  0.00  0.00    +0.046 A 
ATOM      4  C   LIG    1        4.766  19.319  29.737  0.00  0.00    +0.121 A 
ATOM      5  C   LIG    1        5.938  19.753  30.355  0.00  0.00    +0.046 A 
ATOM      6  C   LIG    1        7.047  20.145  29.583  0.00  0.00    +0.007 A 
ENDROOT
BRANCH   1   7
ATOM      7  C   LIG    1        8.169  20.509  27.314  0.00  0.00    +0.059 C 
BRANCH   7  10
ATOM      8  O   LIG    1        9.451  20.907  24.333  0.00  0.00    -0.274 OA
ATOM      9  C   LIG    1        8.944  21.658  25.157  0.00  0.00    +0.234 C 
ATOM     10  C   LIG    1        7.773  21.315  26.068  0.00  0.00    +0.146 C 
ATOM     11  S   LIG    1        7.171  22.966  26.610  0.00  0.00    -0.054 S 
ATOM     12  C   LIG    1        8.548  23.805  25.942  0.00  0.00    +0.279 C 
ATOM     13  O   LIG    1        8.695  25.012  25.979  0.00  0.00    -0.263 OA
ATOM     14  N   LIG    1        9.383  22.932  25.335  0.00  0.00    -0.246 N 
ATOM     15  H   LIG    1       10.131  23.292  24.763  0.00  0.00    +0.158 HD
ENDBRANCH   7  10
ENDBRANCH   1   7
BRANCH   4  16
ATOM     16  O   LIG    1        3.711  18.949  30.556  0.00  0.00    -0.490 OA
BRANCH  16  17
ATOM     17  C   LIG    1        3.198  17.657  30.204  0.00  0.00    +0.248 C 
BRANCH  17  18
ATOM     18  C   LIG    1        3.322  16.557  31.247  0.00  0.00    +0.147 C 
BRANCH  18  19
ATOM     19  N   LIG    1        2.172  16.445  32.198  0.00  0.00    -0.315 N 
ATOM     20  C   LIG    1        1.800  15.045  32.455  0.00  0.00    +0.131 C 
BRANCH  19  21
ATOM     21  C   LIG    1        2.091  17.218  33.373  0.00  0.00    +0.121 A 
ATOM     22  C   LIG    1        3.157  18.012  33.811  0.00  0.00    +0.043 A 
ATOM     23  C   LIG    1        3.062  18.789  34.968  0.00  0.00    +0.005 A 
ATOM     24  C   LIG    1        1.861  18.841  35.644  0.00  0.00    +0.020 A 
ATOM     25  C   LIG    1        0.818  18.098  35.132  0.00  0.00    +0.113 A 
ATOM     26  N   LIG    1        0.917  17.295  34.042  0.00  0.00    -0.240 NA
ENDBRANCH  19  21
ENDBRANCH  18  19
ENDBRANCH  17  18
ENDBRANCH  16  17
ENDBRANCH   4  16
TORSDOF 7
ENDMDL
MODEL 3
REMARK VINA RESULT:      -7.7      2.145      3.858
REMARK  Name = 
REMARK                            x       y       z     vdW  Elec       q    Type
REMARK                         _______ _______ _______ _____ _____    ______ ____
ROOT
ATOM      1  C   LIG    1        3.699  18.319  30.858  0.00  0.00    -0.046 A 
ATOM      2  C   LIG    1        4.172  17.262  30.084  0.00  0.00    +0.007 A 
ATOM      3  C   LIG    1        4.088  17.303  28.698  0.00  0.00    +0.046 A 
ATOM      4  C   LIG    1        3.485  18.378  28.034  0.00  0.00    +0.121 A 
ATOM      5  C   LIG    1        2.984  19.430  28.800  0.00  0.00    +0.046 A 
ATOM      6  C   LIG    1        3.095  19.404  30.203  0.00  0.00    +0.007 A 
ENDROOT
BRANCH   1   7
ATOM      7  C   LIG    1        3.840  18.252  32.361  0.00  0.00    +0.059 C 
BRANCH   7  10
ATOM      8  O   LIG    1        3.077  19.099  35.426  0.00  0.00    -0.274 OA
ATOM      9  C   LIG    1        2.647  18.273  34.631  0.00  0.00    +0.234 C 
ATOM     10  C   LIG    1        2.525  18.468  33.126  0.00  0.00    +0.146 C 
ATOM     11  S   LIG    1        1.340  17.152  32.631  0.00  0.00    -0.054 S 
ATOM     12  C   LIG    1        1.388  16.374  34.192  0.00  0.00    +0.279 C 
ATOM     13  O   LIG    1        0.736  15.390  34.485  0.00  0.00    -0.263 OA
ATOM     14  N   LIG    1        2.200  17.053  35.033  0.00  0.00    -0.246 N 
ATOM     15  H   LIG    1        2.194  16.817  36.013  0.00  0.00    +0.158 HD
ENDBRANCH   7  10
ENDBRANCH   1   7
BRANCH   4  16
ATOM     16  O   LIG    1        3.344  18.467  26.658  0.00  0.00    -0.490 OA
BRANCH  16  17
ATOM     17  C   LIG    1        4.184  19.491  26.108  0.00  0.00    +0.248 C 
BRANCH  17  18
ATOM     18  C   LIG    1        5.671  19.405  26.418  0.00  0.00    +0.147 C 
BRANCH  18  19
ATOM     19  N   LIG    1        6.286  20.662  26.950  0.00  0.00    -0.315 N 
ATOM     20  C   LIG    1        6.477  20.611  28.407  0.00  0.00    +0.131 C 
BRANCH  19  21
ATOM     21  C   LIG    1        7.374  21.292  26.315  0.00  0.00    +0.121 A 
ATOM     22  C   LIG    1        8.242  20.595  25.467  0.00  0.00    +0.043 A 
ATOM     23  C   LIG    1        9.308  21.231  24.828  0.00  0.00    +0.005 A 
ATOM     24  C   LIG    1        9.455  22.595  24.968  0.00  0.00    +0.020 A 
ATOM     25  C   LIG    1        8.531  23.250  25.755  0.00  0.00    +0.113 A 
ATOM     26  N   LIG    1        7.527  22.632  26.426  0.00  0.00    -0.240 NA
ENDBRANCH  19  21
ENDBRANCH  18  19
ENDBRANCH  17  18
ENDBRANCH  16  17
ENDBRANCH   4  16
TORSDOF 7
ENDMDL
MODEL 4
REMARK VINA RESULT:      -7.6      3.525      8.229
REMARK  Name = 
REMARK                            x       y       z     vdW  Elec       q    Type
REMARK                         _______ _______ _______ _____ _____    ______ ____
ROOT
ATOM      1  C   LIG    1        7.419  20.540  28.639  0.00  0.00    -0.046 A 
ATOM      2  C   LIG    1        7.902  20.030  29.842  0.00  0.00    +0.007 A 
ATOM      3  C   LIG    1        7.146  19.132  30.586  0.00  0.00    +0.046 A 
ATOM      4  C   LIG    1        5.862  18.748  30.184  0.00  0.00    +0.121 A 
ATOM      5  C   LIG    1        5.358  19.274  28.995  0.00  0.00    +0.046 A 
ATOM      6  C   LIG    1        6.134  20.159  28.223  0.00  0.00    +0.007 A 
ENDROOT
BRANCH   1   7
ATOM      7  C   LIG    1        8.285  21.487  27.841  0.00  0.00    +0.059 C 
BRANCH   7  10
ATOM      8  O   LIG    1        7.866  19.385  25.372  0.00  0.00    -0.274 OA
ATOM      9  C   LIG    1        8.380  20.491  25.480  0.00  0.00    +0.234 C 
ATOM     10  C   LIG    1        7.876  21.622  26.366  0.00  0.00    +0.146 C 
ATOM     11  S   LIG    1        8.709  23.103  25.664  0.00  0.00    -0.054 S 
ATOM     12  C   LIG    1        9.754  22.158  24.634  0.00  0.00    +0.279 C 
ATOM     13  O   LIG    1       10.565  22.635  23.863  0.00  0.00    -0.263 OA
ATOM     14  N   LIG    1        9.490  20.841  24.776  0.00  0.00    -0.246 N 
ATOM     15  H   LIG    1        9.899  20.189  24.124  0.00  0.00    +0.158 HD
ENDBRANCH   7  10
ENDBRANCH   1   7
BRANCH   4  16
ATOM     16  O   LIG    1        5.047  17.880  30.894  0.00  0.00    -0.490 OA
BRANCH  16  17
ATOM     17  C   LIG    1        4.056  17.279  30.050  0.00  0.00    +0.248 C 
BRANCH  17  18
ATOM     18  C   LIG    1        2.616  17.733  30.243  0.00  0.00    +0.147 C 
BRANCH  18  19
ATOM     19  N   LIG    1        2.412  18.781  31.292  0.00  0.00    -0.315 N 
ATOM     20  C   LIG    1        1.604  19.906  30.799  0.00  0.00    +0.131 C 
BRANCH  19  21
ATOM     21  C   LIG    1        2.078  18.457  32.622  0.00  0.00    +0.121 A 
ATOM     22  C   LIG    1        3.054  18.302  33.613  0.00  0.00    +0.043 A 
ATOM     23  C   LIG    1        2.713  17.998  34.933  0.00  0.00    +0.005 A 
ATOM     24  C   LIG    1        1.380  17.938  35.284  0.00  0.00    +0.020 A 
ATOM     25  C   LIG    1        0.456  18.172  34.287  0.00  0.00    +0.113 A 
ATOM     26  N   LIG    1        0.777  18.409  32.990  0.00  0.00    -0.240 NA
ENDBRANCH  19  21
ENDBRANCH  18  19
ENDBRANCH  17  18
ENDBRANCH  16  17
ENDBRANCH   4  16
TORSDOF 7
ENDMDL
MODEL 5
REMARK VINA RESULT:      -7.3      1.893      3.436
REMARK  Name = 
REMARK                            x       y       z     vdW  Elec       q    Type
REMARK                         _______ _______ _______ _____ _____    ______ ____
ROOT
ATOM      1  C   LIG    1        3.637  16.909  31.407  0.00  0.00    -0.046 A 
ATOM      2  C   LIG    1        3.820  16.952  30.026  0.00  0.00    +0.007 A 
ATOM      3  C   LIG    1        4.851  17.700  29.470  0.00  0.00    +0.046 A 
ATOM      4  C   LIG    1        5.706  18.472  30.266  0.00  0.00    +0.121 A 
ATOM      5  C   LIG    1        5.514  18.457  31.647  0.00  0.00    +0.046 A 
ATOM      6  C   LIG    1        4.491  17.675  32.215  0.00  0.00    +0.007 A 
ENDROOT
BRANCH   1   7
ATOM      7  C   LIG    1        2.527  16.056  31.975  0.00  0.00    +0.059 C 
BRANCH   7  10
ATOM      8  O   LIG    1        1.262  18.985  31.261  0.00  0.00    -0.274 OA
ATOM      9  C   LIG    1        1.451  18.361  32.298  0.00  0.00    +0.234 C 
ATOM     10  C   LIG    1        1.309  16.854  32.465  0.00  0.00    +0.146 C 
ATOM     11  S   LIG    1        1.173  16.650  34.287  0.00  0.00    -0.054 S 
ATOM     12  C   LIG    1        1.601  18.310  34.613  0.00  0.00    +0.279 C 
ATOM     13  O   LIG    1        1.655  18.795  35.726  0.00  0.00    -0.263 OA
ATOM     14  N   LIG    1        1.805  18.979  33.456  0.00  0.00    -0.246 N 
ATOM     15  H   LIG    1        1.894  19.983  33.484  0.00  0.00    +0.158 HD
ENDBRANCH   7  10
ENDBRANCH   1   7
BRANCH   4  16
ATOM     16  O   LIG    1        6.732  19.261  29.773  0.00  0.00    -0.490 OA
BRANCH  16  17
ATOM     17  C   LIG    1        6.364  20.647  29.743  0.00  0.00    +0.248 C 
BRANCH  17  18
ATOM     18  C   LIG    1        5.983  21.231  28.391  0.00  0.00    +0.147 C 
BRANCH  18  19
ATOM     19  N   LIG    1        6.563  20.528  27.204  0.00  0.00    -0.315 N 
ATOM     20  C   LIG    1        5.540  19.801  26.437  0.00  0.00    +0.131 C 
BRANCH  19  21
ATOM     21  C   LIG    1        7.499  21.144  26.349  0.00  0.00    +0.121 A 
ATOM     22  C   LIG    1        7.757  22.518  26.403  0.00  0.00    +0.043 A 
ATOM     23  C   LIG    1        8.699  23.118  25.564  0.00  0.00    +0.005 A 
ATOM     24  C   LIG    1        9.453  22.323  24.726  0.00  0.00    +0.020 A 
ATOM     25  C   LIG    1        9.213  20.965  24.763  0.00  0.00    +0.113 A 
ATOM     26  N   LIG    1        8.260  20.380  25.532  0.00  0.00    -0.240 NA
ENDBRANCH  19  21
ENDBRANCH  18  19
ENDBRANCH  17  18
ENDBRANCH  16  17
ENDBRANCH   4  16
TORSDOF 7
ENDMDL
MODEL 6
REMARK VINA RESULT:      -7.3      1.830      3.304
REMARK  Name = 
REMARK                            x       y       z     vdW  Elec       q    Type
REMARK                         _______ _______ _______ _____ _____    ______ ____
ROOT
ATOM      1  C   LIG    1        2.801  18.259  31.014  0.00  0.00    -0.046 A 
ATOM      2  C   LIG    1        4.012  17.575  31.082  0.00  0.00    +0.007 A 
ATOM      3  C   LIG    1        4.648  17.142  29.925  0.00  0.00    +0.046 A 
ATOM      4  C   LIG    1        4.076  17.330  28.661  0.00  0.00    +0.121 A 
ATOM      5  C   LIG    1        2.850  17.989  28.585  0.00  0.00    +0.046 A 
ATOM      6  C   LIG    1        2.218  18.457  29.752  0.00  0.00    +0.007 A 
ENDROOT
BRANCH   1   7
ATOM      7  C   LIG    1        2.158  18.745  32.292  0.00  0.00    +0.059 C 
BRANCH   7  10
ATOM      8  O   LIG    1        0.904  16.042  33.637  0.00  0.00    -0.274 OA
ATOM      9  C   LIG    1        1.316  17.108  34.077  0.00  0.00    +0.234 C 
ATOM     10  C   LIG    1        2.496  17.898  33.528  0.00  0.00    +0.146 C 
ATOM     11  S   LIG    1        2.918  19.031  34.914  0.00  0.00    -0.054 S 
ATOM     12  C   LIG    1        1.478  18.635  35.816  0.00  0.00    +0.279 C 
ATOM     13  O   LIG    1        1.209  19.096  36.909  0.00  0.00    -0.263 OA
ATOM     14  N   LIG    1        0.747  17.710  35.156  0.00  0.00    -0.246 N 
ATOM     15  H   LIG    1       -0.022  17.265  35.633  0.00  0.00    +0.158 HD
ENDBRANCH   7  10
ENDBRANCH   1   7
BRANCH   4  16
ATOM     16  O   LIG    1        4.643  16.897  27.473  0.00  0.00    -0.490 OA
BRANCH  16  17
ATOM     17  C   LIG    1        4.351  17.793  26.393  0.00  0.00    +0.248 C 
BRANCH  17  18
ATOM     18  C   LIG    1        5.395  18.853  26.073  0.00  0.00    +0.147 C 
BRANCH  18  19
ATOM     19  N   LIG    1        5.295  20.111  26.878  0.00  0.00    -0.315 N 
ATOM     20  C   LIG    1        3.902  20.553  27.045  0.00  0.00    +0.131 C 
BRANCH  19  21
ATOM     21  C   LIG    1        6.037  20.307  28.060  0.00  0.00    +0.121 A 
ATOM     22  C   LIG    1        5.421  20.624  29.276  0.00  0.00    +0.043 A 
ATOM     23  C   LIG    1        6.162  20.799  30.447  0.00  0.00    +0.005 A 
ATOM     24  C   LIG    1        7.521  20.568  30.421  0.00  0.00    +0.020 A 
ATOM     25  C   LIG    1        8.071  20.186  29.215  0.00  0.00    +0.113 A 
ATOM     26  N   LIG    1        7.369  20.070  28.059  0.00  0.00    -0.240 NA
ENDBRANCH  19  21
ENDBRANCH  18  19
ENDBRANCH  17  18
ENDBRANCH  16  17
ENDBRANCH   4  16
TORSDOF 7
ENDMDL
MODEL 7
REMARK VINA RESULT:      -7.3      1.861      3.493
REMARK  Name = 
REMARK                            x       y       z     vdW  Elec       q    Type
REMARK                         _______ _______ _______ _____ _____    ______ ____
ROOT
ATOM      1  C   LIG    1        2.632  18.102  30.716  0.00  0.00    -0.046 A 
ATOM      2  C   LIG    1        3.962  17.727  30.892  0.00  0.00    +0.007 A 
ATOM      3  C   LIG    1        4.869  17.814  29.842  0.00  0.00    +0.046 A 
ATOM      4  C   LIG    1        4.471  18.230  28.566  0.00  0.00    +0.121 A 
ATOM      5  C   LIG    1        3.136  18.581  28.372  0.00  0.00    +0.046 A 
ATOM      6  C   LIG    1        2.223  18.524  29.441  0.00  0.00    +0.007 A 
ENDROOT
BRANCH   1   7
ATOM      7  C   LIG    1        1.685  18.026  31.891  0.00  0.00    +0.059 C 
BRANCH   7  10
ATOM      8  O   LIG    1        1.022  15.415  33.744  0.00  0.00    -0.274 OA
ATOM      9  C   LIG    1        1.332  16.576  33.977  0.00  0.00    +0.234 C 
ATOM     10  C   LIG    1        2.303  17.417  33.159  0.00  0.00    +0.146 C 
ATOM     11  S   LIG    1        2.739  18.784  34.309  0.00  0.00    -0.054 S 
ATOM     12  C   LIG    1        1.504  18.350  35.463  0.00  0.00    +0.279 C 
ATOM     13  O   LIG    1        1.320  18.930  36.516  0.00  0.00    -0.263 OA
ATOM     14  N   LIG    1        0.832  17.254  35.044  0.00  0.00    -0.246 N 
ATOM     15  H   LIG    1        0.206  16.793  35.685  0.00  0.00    +0.158 HD
ENDBRANCH   7  10
ENDBRANCH   1   7
BRANCH   4  16
ATOM     16  O   LIG    1        5.317  18.311  27.471  0.00  0.00    -0.490 OA
BRANCH  16  17
ATOM     17  C   LIG    1        5.068  19.492  26.698  0.00  0.00    +0.248 C 
BRANCH  17  18
ATOM     18  C   LIG    1        5.319  20.829  27.379  0.00  0.00    +0.147 C 
BRANCH  18  19
ATOM     19  N   LIG    1        6.758  21.172  27.605  0.00  0.00    -0.315 N 
ATOM     20  C   LIG    1        7.382  20.304  28.615  0.00  0.00    +0.131 C 
BRANCH  19  21
ATOM     21  C   LIG    1        7.644  21.432  26.540  0.00  0.00    +0.121 A 
ATOM     22  C   LIG    1        8.099  22.724  26.256  0.00  0.00    +0.043 A 
ATOM     23  C   LIG    1        8.991  22.971  25.209  0.00  0.00    +0.005 A 
ATOM     24  C   LIG    1        9.502  21.905  24.498  0.00  0.00    +0.020 A 
ATOM     25  C   LIG    1        9.079  20.644  24.865  0.00  0.00    +0.113 A 
ATOM     26  N   LIG    1        8.169  20.399  25.841  0.00  0.00    -0.240 NA
ENDBRANCH  19  21
ENDBRANCH  18  19
ENDBRANCH  17  18
ENDBRANCH  16  17
ENDBRANCH   4  16
TORSDOF 7
ENDMDL
MODEL 8
REMARK VINA RESULT:      -7.2      1.448      1.960
REMARK  Name = 
REMARK                            x       y       z     vdW  Elec       q    Type
REMARK                         _______ _______ _______ _____ _____    ______ ____
ROOT
ATOM      1  C   LIG    1        3.116  17.476  31.320  0.00  0.00    -0.046 A 
ATOM      2  C   LIG    1        2.399  18.301  30.457  0.00  0.00    +0.007 A 
ATOM      3  C   LIG    1        3.009  19.388  29.843  0.00  0.00    +0.046 A 
ATOM      4  C   LIG    1        4.343  19.721  30.105  0.00  0.00    +0.121 A 
ATOM      5  C   LIG    1        5.062  18.918  30.989  0.00  0.00    +0.046 A 
ATOM      6  C   LIG    1        4.456  17.798  31.588  0.00  0.00    +0.007 A 
ENDROOT
BRANCH   1   7
ATOM      7  C   LIG    1        2.426  16.283  31.941  0.00  0.00    +0.059 C 
BRANCH   7  10
ATOM      8  O   LIG    1       -0.160  18.180  32.574  0.00  0.00    -0.274 OA
ATOM      9  C   LIG    1        0.902  17.958  33.142  0.00  0.00    +0.234 C 
ATOM     10  C   LIG    1        1.613  16.613  33.202  0.00  0.00    +0.146 C 
ATOM     11  S   LIG    1        2.778  16.821  34.608  0.00  0.00    -0.054 S 
ATOM     12  C   LIG    1        2.487  18.537  34.735  0.00  0.00    +0.279 C 
ATOM     13  O   LIG    1        3.003  19.258  35.568  0.00  0.00    -0.263 OA
ATOM     14  N   LIG    1        1.572  18.928  33.821  0.00  0.00    -0.246 N 
ATOM     15  H   LIG    1        1.183  19.856  33.887  0.00  0.00    +0.158 HD
ENDBRANCH   7  10
ENDBRANCH   1   7
BRANCH   4  16
ATOM     16  O   LIG    1        5.001  20.807  29.550  0.00  0.00    -0.490 OA
BRANCH  16  17
ATOM     17  C   LIG    1        6.420  20.718  29.743  0.00  0.00    +0.248 C 
BRANCH  17  18
ATOM     18  C   LIG    1        7.247  20.211  28.571  0.00  0.00    +0.147 C 
BRANCH  18  19
ATOM     19  N   LIG    1        6.557  20.240  27.243  0.00  0.00    -0.315 N 
ATOM     20  C   LIG    1        7.512  20.295  26.125  0.00  0.00    +0.131 C 
BRANCH  19  21
ATOM     21  C   LIG    1        5.469  19.396  26.942  0.00  0.00    +0.121 A 
ATOM     22  C   LIG    1        5.429  18.063  27.364  0.00  0.00    +0.043 A 
ATOM     23  C   LIG    1        4.339  17.238  27.077  0.00  0.00    +0.005 A 
ATOM     24  C   LIG    1        3.240  17.776  26.440  0.00  0.00    +0.020 A 
ATOM     25  C   LIG    1        3.298  19.115  26.110  0.00  0.00    +0.113 A 
ATOM     26  N   LIG    1        4.376  19.909  26.333  0.00  0.00    -0.240 NA
ENDBRANCH  19  21
ENDBRANCH  18  19
ENDBRANCH  17  18
ENDBRANCH  16  17
ENDBRANCH   4  16
TORSDOF 7
ENDMDL
MODEL 9
REMARK VINA RESULT:      -7.0      3.439      8.476
REMARK  Name = 
REMARK                            x       y       z     vdW  Elec       q    Type
REMARK                         _______ _______ _______ _____ _____    ______ ____
ROOT
ATOM      1  C   LIG    1        7.353  20.054  27.178  0.00  0.00    -0.046 A 
ATOM      2  C   LIG    1        7.557  20.311  28.531  0.00  0.00    +0.007 A 
ATOM      3  C   LIG    1        6.553  20.064  29.460  0.00  0.00    +0.046 A 
ATOM      4  C   LIG    1        5.293  19.599  29.067  0.00  0.00    +0.121 A 
ATOM      5  C   LIG    1        5.069  19.365  27.711  0.00  0.00    +0.046 A 
ATOM      6  C   LIG    1        6.094  19.585  26.772  0.00  0.00    +0.007 A 
ENDROOT
BRANCH   1   7
ATOM      7  C   LIG    1        8.481  20.303  26.203  0.00  0.00    +0.059 C 
BRANCH   7  10
ATOM      8  O   LIG    1       10.155  21.637  23.731  0.00  0.00    -0.274 OA
ATOM      9  C   LIG    1        9.440  22.079  24.622  0.00  0.00    +0.234 C 
ATOM     10  C   LIG    1        8.191  21.407  25.174  0.00  0.00    +0.146 C 
ATOM     11  S   LIG    1        7.320  22.784  26.027  0.00  0.00    -0.054 S 
ATOM     12  C   LIG    1        8.675  23.874  25.877  0.00  0.00    +0.279 C 
ATOM     13  O   LIG    1        8.670  25.025  26.269  0.00  0.00    -0.263 OA
ATOM     14  N   LIG    1        9.692  23.275  25.219  0.00  0.00    -0.246 N 
ATOM     15  H   LIG    1       10.472  23.836  24.914  0.00  0.00    +0.158 HD
ENDBRANCH   7  10
ENDBRANCH   1   7
BRANCH   4  16
ATOM     16  O   LIG    1        4.241  19.360  29.938  0.00  0.00    -0.490 OA
BRANCH  16  17
ATOM     17  C   LIG    1        3.112  18.795  29.258  0.00  0.00    +0.248 C 
BRANCH  17  18
ATOM     18  C   LIG    1        1.808  18.709  30.037  0.00  0.00    +0.147 C 
BRANCH  18  19
ATOM     19  N   LIG    1        1.919  18.999  31.502  0.00  0.00    -0.315 N 
ATOM     20  C   LIG    1        1.096  20.150  31.903  0.00  0.00    +0.131 C 
BRANCH  19  21
ATOM     21  C   LIG    1        1.877  17.979  32.474  0.00  0.00    +0.121 A 
ATOM     22  C   LIG    1        2.069  16.633  32.144  0.00  0.00    +0.043 A 
ATOM     23  C   LIG    1        2.044  15.631  33.116  0.00  0.00    +0.005 A 
ATOM     24  C   LIG    1        1.913  15.987  34.442  0.00  0.00    +0.020 A 
ATOM     25  C   LIG    1        1.800  17.333  34.724  0.00  0.00    +0.113 A 
ATOM     26  N   LIG    1        1.766  18.309  33.782  0.00  0.00    -0.240 NA
ENDBRANCH  19  21
ENDBRANCH  18  19
ENDBRANCH  17  18
ENDBRANCH  16  17
ENDBRANCH   4  16
TORSDOF 7
ENDMDL
