MODEL 1
REMARK VINA RESULT:      -9.7      0.000      0.000
REMARK  Name = 
REMARK                            x       y       z     vdW  Elec       q    Type
REMARK                         _______ _______ _______ _____ _____    ______ ____
ROOT
ATOM      1  C   LIG    1       19.881 -15.134  18.104  0.00  0.00    -0.046 A 
ATOM      2  C   LIG    1       20.519 -14.591  16.991  0.00  0.00    +0.007 A 
ATOM      3  C   LIG    1       21.899 -14.682  16.849  0.00  0.00    +0.046 A 
ATOM      4  C   LIG    1       22.697 -15.273  17.835  0.00  0.00    +0.121 A 
ATOM      5  C   LIG    1       22.071 -15.796  18.966  0.00  0.00    +0.046 A 
ATOM      6  C   LIG    1       20.671 -15.733  19.098  0.00  0.00    +0.007 A 
ENDROOT
BRANCH   1   7
ATOM      7  C   LIG    1       18.376 -15.045  18.205  0.00  0.00    +0.059 C 
BRANCH   7  10
ATOM      8  O   LIG    1       17.939 -18.279  18.006  0.00  0.00    -0.274 OA
ATOM      9  C   LIG    1       17.246 -17.341  18.376  0.00  0.00    +0.234 C 
ATOM     10  C   LIG    1       17.744 -16.107  19.117  0.00  0.00    +0.146 C 
ATOM     11  S   LIG    1       16.205 -15.410  19.843  0.00  0.00    -0.054 S 
ATOM     12  C   LIG    1       15.166 -16.479  18.936  0.00  0.00    +0.279 C 
ATOM     13  O   LIG    1       13.953 -16.494  19.029  0.00  0.00    -0.263 OA
ATOM     14  N   LIG    1       15.902 -17.313  18.169  0.00  0.00    -0.246 N 
ATOM     15  H   LIG    1       15.446 -18.092  17.720  0.00  0.00    +0.158 HD
ENDBRANCH   7  10
ENDBRANCH   1   7
BRANCH   4  16
ATOM     16  O   LIG    1       24.078 -15.370  17.768  0.00  0.00    -0.490 OA
BRANCH  16  17
ATOM     17  C   LIG    1       24.700 -14.868  18.959  0.00  0.00    +0.248 C 
BRANCH  17  18
ATOM     18  C   LIG    1       25.204 -13.433  18.923  0.00  0.00    +0.147 C 
BRANCH  18  19
ATOM     19  N   LIG    1       26.635 -13.269  18.514  0.00  0.00    -0.315 N 
ATOM     20  C   LIG    1       26.951 -11.879  18.152  0.00  0.00    +0.131 C 
BRANCH  19  21
ATOM     21  C   LIG    1       27.693 -13.862  19.231  0.00  0.00    +0.121 A 
ATOM     22  C   LIG    1       28.182 -13.310  20.420  0.00  0.00    +0.043 A 
ATOM     23  C   LIG    1       29.220 -13.914  21.133  0.00  0.00    +0.005 A 
ATOM     24  C   LIG    1       29.713 -15.127  20.701  0.00  0.00    +0.020 A 
ATOM     25  C   LIG    1       29.148 -15.667  19.564  0.00  0.00    +0.113 A 
ATOM     26  N   LIG    1       28.180 -15.060  18.832  0.00  0.00    -0.240 NA
ENDBRANCH  19  21
ENDBRANCH  18  19
ENDBRANCH  17  18
ENDBRANCH  16  17
ENDBRANCH   4  16
TORSDOF 7
ENDMDL
MODEL 2
REMARK VINA RESULT:      -9.5      1.100      1.974
REMARK  Name = 
REMARK                            x       y       z     vdW  Elec       q    Type
REMARK                         _______ _______ _______ _____ _____    ______ ____
ROOT
ATOM      1  C   LIG    1       19.410 -15.118  18.238  0.00  0.00    -0.046 A 
ATOM      2  C   LIG    1       20.098 -15.706  19.297  0.00  0.00    +0.007 A 
ATOM      3  C   LIG    1       21.487 -15.745  19.307  0.00  0.00    +0.046 A 
ATOM      4  C   LIG    1       22.240 -15.243  18.239  0.00  0.00    +0.121 A 
ATOM      5  C   LIG    1       21.560 -14.677  17.162  0.00  0.00    +0.046 A 
ATOM      6  C   LIG    1       20.155 -14.608  17.162  0.00  0.00    +0.007 A 
ENDROOT
BRANCH   1   7
ATOM      7  C   LIG    1       17.900 -15.065  18.280  0.00  0.00    +0.059 C 
BRANCH   7  10
ATOM      8  O   LIG    1       17.128 -18.204  17.787  0.00  0.00    -0.274 OA
ATOM      9  C   LIG    1       16.570 -17.256  18.326  0.00  0.00    +0.234 C 
ATOM     10  C   LIG    1       17.256 -16.165  19.137  0.00  0.00    +0.146 C 
ATOM     11  S   LIG    1       15.870 -15.424  20.091  0.00  0.00    -0.054 S 
ATOM     12  C   LIG    1       14.648 -16.285  19.191  0.00  0.00    +0.279 C 
ATOM     13  O   LIG    1       13.455 -16.204  19.411  0.00  0.00    -0.263 OA
ATOM     14  N   LIG    1       15.221 -17.087  18.267  0.00  0.00    -0.246 N 
ATOM     15  H   LIG    1       14.649 -17.766  17.789  0.00  0.00    +0.158 HD
ENDBRANCH   7  10
ENDBRANCH   1   7
BRANCH   4  16
ATOM     16  O   LIG    1       23.624 -15.277  18.175  0.00  0.00    -0.490 OA
BRANCH  16  17
ATOM     17  C   LIG    1       24.143 -16.526  18.649  0.00  0.00    +0.248 C 
BRANCH  17  18
ATOM     18  C   LIG    1       25.250 -16.464  19.690  0.00  0.00    +0.147 C 
BRANCH  18  19
ATOM     19  N   LIG    1       26.621 -16.200  19.151  0.00  0.00    -0.315 N 
ATOM     20  C   LIG    1       26.724 -16.521  17.719  0.00  0.00    +0.131 C 
BRANCH  19  21
ATOM     21  C   LIG    1       27.339 -15.028  19.463  0.00  0.00    +0.121 A 
ATOM     22  C   LIG    1       28.447 -15.045  20.317  0.00  0.00    +0.043 A 
ATOM     23  C   LIG    1       29.164 -13.882  20.608  0.00  0.00    +0.005 A 
ATOM     24  C   LIG    1       28.824 -12.708  19.968  0.00  0.00    +0.020 A 
ATOM     25  C   LIG    1       27.770 -12.759  19.079  0.00  0.00    +0.113 A 
ATOM     26  N   LIG    1       27.031 -13.870  18.834  0.00  0.00    -0.240 NA
ENDBRANCH  19  21
ENDBRANCH  18  19
ENDBRANCH  17  18
ENDBRANCH  16  17
ENDBRANCH   4  16
TORSDOF 7
ENDMDL
MODEL 3
REMARK VINA RESULT:      -9.5      2.195      3.726
REMARK  Name = 
REMARK                            x       y       z     vdW  Elec       q    Type
REMARK                         _______ _______ _______ _____ _____    ______ ____
ROOT
ATOM      1  C   LIG    1       19.657 -15.001  17.972  0.00  0.00    -0.046 A 
ATOM      2  C   LIG    1       20.451 -15.491  19.006  0.00  0.00    +0.007 A 
ATOM      3  C   LIG    1       21.833 -15.353  18.966  0.00  0.00    +0.046 A 
ATOM      4  C   LIG    1       22.478 -14.767  17.871  0.00  0.00    +0.121 A 
ATOM      5  C   LIG    1       21.694 -14.298  16.818  0.00  0.00    +0.046 A 
ATOM      6  C   LIG    1       20.292 -14.407  16.869  0.00  0.00    +0.007 A 
ENDROOT
BRANCH   1   7
ATOM      7  C   LIG    1       18.155 -15.138  18.068  0.00  0.00    +0.059 C 
BRANCH   7  10
ATOM      8  O   LIG    1       17.855 -18.391  17.941  0.00  0.00    -0.274 OA
ATOM      9  C   LIG    1       17.164 -17.482  18.384  0.00  0.00    +0.234 C 
ATOM     10  C   LIG    1       17.684 -16.218  19.054  0.00  0.00    +0.146 C 
ATOM     11  S   LIG    1       16.208 -15.586  19.950  0.00  0.00    -0.054 S 
ATOM     12  C   LIG    1       15.124 -16.713  19.176  0.00  0.00    +0.279 C 
ATOM     13  O   LIG    1       13.932 -16.784  19.410  0.00  0.00    -0.263 OA
ATOM     14  N   LIG    1       15.806 -17.521  18.333  0.00  0.00    -0.246 N 
ATOM     15  H   LIG    1       15.339 -18.325  17.946  0.00  0.00    +0.158 HD
ENDBRANCH   7  10
ENDBRANCH   1   7
BRANCH   4  16
ATOM     16  O   LIG    1       23.852 -14.626  17.756  0.00  0.00    -0.490 OA
BRANCH  16  17
ATOM     17  C   LIG    1       24.461 -14.353  19.025  0.00  0.00    +0.248 C 
BRANCH  17  18
ATOM     18  C   LIG    1       25.199 -15.500  19.699  0.00  0.00    +0.147 C 
BRANCH  18  19
ATOM     19  N   LIG    1       25.798 -16.508  18.769  0.00  0.00    -0.315 N 
ATOM     20  C   LIG    1       27.119 -16.965  19.225  0.00  0.00    +0.131 C 
BRANCH  19  21
ATOM     21  C   LIG    1       25.048 -17.573  18.231  0.00  0.00    +0.121 A 
ATOM     22  C   LIG    1       25.048 -17.860  16.861  0.00  0.00    +0.043 A 
ATOM     23  C   LIG    1       24.316 -18.928  16.338  0.00  0.00    +0.005 A 
ATOM     24  C   LIG    1       23.649 -19.770  17.203  0.00  0.00    +0.020 A 
ATOM     25  C   LIG    1       23.739 -19.488  18.551  0.00  0.00    +0.113 A 
ATOM     26  N   LIG    1       24.400 -18.420  19.063  0.00  0.00    -0.240 NA
ENDBRANCH  19  21
ENDBRANCH  18  19
ENDBRANCH  17  18
ENDBRANCH  16  17
ENDBRANCH   4  16
TORSDOF 7
ENDMDL
MODEL 4
REMARK VINA RESULT:      -9.5      1.203      2.159
REMARK  Name = 
REMARK                            x       y       z     vdW  Elec       q    Type
REMARK                         _______ _______ _______ _____ _____    ______ ____
ROOT
ATOM      1  C   LIG    1       19.205 -15.165  18.299  0.00  0.00    -0.046 A 
ATOM      2  C   LIG    1       19.915 -15.774  19.331  0.00  0.00    +0.007 A 
ATOM      3  C   LIG    1       21.304 -15.806  19.314  0.00  0.00    +0.046 A 
ATOM      4  C   LIG    1       22.034 -15.276  18.244  0.00  0.00    +0.121 A 
ATOM      5  C   LIG    1       21.332 -14.689  17.192  0.00  0.00    +0.046 A 
ATOM      6  C   LIG    1       19.926 -14.627  17.222  0.00  0.00    +0.007 A 
ENDROOT
BRANCH   1   7
ATOM      7  C   LIG    1       17.695 -15.120  18.372  0.00  0.00    +0.059 C 
BRANCH   7  10
ATOM      8  O   LIG    1       16.991 -18.263  17.812  0.00  0.00    -0.274 OA
ATOM      9  C   LIG    1       16.411 -17.339  18.368  0.00  0.00    +0.234 C 
ATOM     10  C   LIG    1       17.072 -16.251  19.204  0.00  0.00    +0.146 C 
ATOM     11  S   LIG    1       15.669 -15.558  20.169  0.00  0.00    -0.054 S 
ATOM     12  C   LIG    1       14.467 -16.426  19.247  0.00  0.00    +0.279 C 
ATOM     13  O   LIG    1       13.272 -16.374  19.464  0.00  0.00    -0.263 OA
ATOM     14  N   LIG    1       15.060 -17.196  18.308  0.00  0.00    -0.246 N 
ATOM     15  H   LIG    1       14.503 -17.877  17.814  0.00  0.00    +0.158 HD
ENDBRANCH   7  10
ENDBRANCH   1   7
BRANCH   4  16
ATOM     16  O   LIG    1       23.417 -15.302  18.152  0.00  0.00    -0.490 OA
BRANCH  16  17
ATOM     17  C   LIG    1       23.953 -16.548  18.616  0.00  0.00    +0.248 C 
BRANCH  17  18
ATOM     18  C   LIG    1       25.223 -16.486  19.451  0.00  0.00    +0.147 C 
BRANCH  18  19
ATOM     19  N   LIG    1       26.468 -16.142  18.695  0.00  0.00    -0.315 N 
ATOM     20  C   LIG    1       26.406 -16.584  17.294  0.00  0.00    +0.131 C 
BRANCH  19  21
ATOM     21  C   LIG    1       27.089 -14.881  18.804  0.00  0.00    +0.121 A 
ATOM     22  C   LIG    1       26.484 -13.715  18.324  0.00  0.00    +0.043 A 
ATOM     23  C   LIG    1       27.098 -12.467  18.451  0.00  0.00    +0.005 A 
ATOM     24  C   LIG    1       28.287 -12.373  19.145  0.00  0.00    +0.020 A 
ATOM     25  C   LIG    1       28.807 -13.540  19.663  0.00  0.00    +0.113 A 
ATOM     26  N   LIG    1       28.247 -14.765  19.495  0.00  0.00    -0.240 NA
ENDBRANCH  19  21
ENDBRANCH  18  19
ENDBRANCH  17  18
ENDBRANCH  16  17
ENDBRANCH   4  16
TORSDOF 7
ENDMDL
MODEL 5
REMARK VINA RESULT:      -9.0      2.388      3.661
REMARK  Name = 
REMARK                            x       y       z     vdW  Elec       q    Type
REMARK                         _______ _______ _______ _____ _____    ______ ____
ROOT
ATOM      1  C   LIG    1       20.782 -15.912  18.004  0.00  0.00    -0.046 A 
ATOM      2  C   LIG    1       20.994 -14.891  17.080  0.00  0.00    +0.007 A 
ATOM      3  C   LIG    1       22.157 -14.132  17.117  0.00  0.00    +0.046 A 
ATOM      4  C   LIG    1       23.127 -14.328  18.106  0.00  0.00    +0.121 A 
ATOM      5  C   LIG    1       22.912 -15.330  19.052  0.00  0.00    +0.046 A 
ATOM      6  C   LIG    1       21.750 -16.122  18.998  0.00  0.00    +0.007 A 
ENDROOT
BRANCH   1   7
ATOM      7  C   LIG    1       19.520 -16.740  17.909  0.00  0.00    +0.059 C 
BRANCH   7  10
ATOM      8  O   LIG    1       17.220 -18.375  19.561  0.00  0.00    -0.274 OA
ATOM      9  C   LIG    1       17.252 -17.307  18.963  0.00  0.00    +0.234 C 
ATOM     10  C   LIG    1       18.434 -16.347  18.922  0.00  0.00    +0.146 C 
ATOM     11  S   LIG    1       17.668 -14.769  18.371  0.00  0.00    -0.054 S 
ATOM     12  C   LIG    1       16.143 -15.522  17.979  0.00  0.00    +0.279 C 
ATOM     13  O   LIG    1       15.172 -14.920  17.560  0.00  0.00    -0.263 OA
ATOM     14  N   LIG    1       16.184 -16.843  18.260  0.00  0.00    -0.246 N 
ATOM     15  H   LIG    1       15.326 -17.372  18.241  0.00  0.00    +0.158 HD
ENDBRANCH   7  10
ENDBRANCH   1   7
BRANCH   4  16
ATOM     16  O   LIG    1       24.293 -13.587  18.216  0.00  0.00    -0.490 OA
BRANCH  16  17
ATOM     17  C   LIG    1       25.365 -14.368  18.763  0.00  0.00    +0.248 C 
BRANCH  17  18
ATOM     18  C   LIG    1       26.336 -14.995  17.774  0.00  0.00    +0.147 C 
BRANCH  18  19
ATOM     19  N   LIG    1       26.569 -16.463  17.952  0.00  0.00    -0.315 N 
ATOM     20  C   LIG    1       27.083 -16.784  19.292  0.00  0.00    +0.131 C 
BRANCH  19  21
ATOM     21  C   LIG    1       25.640 -17.429  17.517  0.00  0.00    +0.121 A 
ATOM     22  C   LIG    1       25.487 -18.656  18.173  0.00  0.00    +0.043 A 
ATOM     23  C   LIG    1       24.551 -19.601  17.746  0.00  0.00    +0.005 A 
ATOM     24  C   LIG    1       23.698 -19.280  16.711  0.00  0.00    +0.020 A 
ATOM     25  C   LIG    1       23.839 -18.029  16.145  0.00  0.00    +0.113 A 
ATOM     26  N   LIG    1       24.783 -17.128  16.514  0.00  0.00    -0.240 NA
ENDBRANCH  19  21
ENDBRANCH  18  19
ENDBRANCH  17  18
ENDBRANCH  16  17
ENDBRANCH   4  16
TORSDOF 7
ENDMDL
MODEL 6
REMARK VINA RESULT:      -8.9      1.781      2.336
REMARK  Name = 
REMARK                            x       y       z     vdW  Elec       q    Type
REMARK                         _______ _______ _______ _____ _____    ______ ____
ROOT
ATOM      1  C   LIG    1       19.998 -15.945  18.384  0.00  0.00    -0.046 A 
ATOM      2  C   LIG    1       20.348 -14.909  17.522  0.00  0.00    +0.007 A 
ATOM      3  C   LIG    1       21.486 -14.998  16.730  0.00  0.00    +0.046 A 
ATOM      4  C   LIG    1       22.344 -16.102  16.805  0.00  0.00    +0.121 A 
ATOM      5  C   LIG    1       22.017 -17.133  17.684  0.00  0.00    +0.046 A 
ATOM      6  C   LIG    1       20.848 -17.059  18.465  0.00  0.00    +0.007 A 
ENDROOT
BRANCH   1   7
ATOM      7  C   LIG    1       18.733 -15.826  19.203  0.00  0.00    +0.059 C 
BRANCH   7  10
ATOM      8  O   LIG    1       15.878 -14.274  18.840  0.00  0.00    -0.274 OA
ATOM      9  C   LIG    1       16.206 -15.443  19.001  0.00  0.00    +0.234 C 
ATOM     10  C   LIG    1       17.445 -16.106  18.415  0.00  0.00    +0.146 C 
ATOM     11  S   LIG    1       17.059 -17.899  18.549  0.00  0.00    -0.054 S 
ATOM     12  C   LIG    1       15.647 -17.629  19.539  0.00  0.00    +0.279 C 
ATOM     13  O   LIG    1       14.918 -18.515  19.944  0.00  0.00    -0.263 OA
ATOM     14  N   LIG    1       15.454 -16.306  19.736  0.00  0.00    -0.246 N 
ATOM     15  H   LIG    1       14.588 -15.995  20.146  0.00  0.00    +0.158 HD
ENDBRANCH   7  10
ENDBRANCH   1   7
BRANCH   4  16
ATOM     16  O   LIG    1       23.508 -16.239  16.065  0.00  0.00    -0.490 OA
BRANCH  16  17
ATOM     17  C   LIG    1       24.629 -16.554  16.901  0.00  0.00    +0.248 C 
BRANCH  17  18
ATOM     18  C   LIG    1       25.358 -15.386  17.548  0.00  0.00    +0.147 C 
BRANCH  18  19
ATOM     19  N   LIG    1       25.677 -15.556  19.000  0.00  0.00    -0.315 N 
ATOM     20  C   LIG    1       25.305 -16.890  19.496  0.00  0.00    +0.131 C 
BRANCH  19  21
ATOM     21  C   LIG    1       26.900 -15.129  19.556  0.00  0.00    +0.121 A 
ATOM     22  C   LIG    1       28.092 -15.832  19.350  0.00  0.00    +0.043 A 
ATOM     23  C   LIG    1       29.303 -15.392  19.890  0.00  0.00    +0.005 A 
ATOM     24  C   LIG    1       29.337 -14.191  20.568  0.00  0.00    +0.020 A 
ATOM     25  C   LIG    1       28.149 -13.498  20.681  0.00  0.00    +0.113 A 
ATOM     26  N   LIG    1       26.957 -13.946  20.211  0.00  0.00    -0.240 NA
ENDBRANCH  19  21
ENDBRANCH  18  19
ENDBRANCH  17  18
ENDBRANCH  16  17
ENDBRANCH   4  16
TORSDOF 7
ENDMDL
MODEL 7
REMARK VINA RESULT:      -8.5      1.968      2.831
REMARK  Name = 
REMARK                            x       y       z     vdW  Elec       q    Type
REMARK                         _______ _______ _______ _____ _____    ______ ____
ROOT
ATOM      1  C   LIG    1       18.681 -15.845  18.832  0.00  0.00    -0.046 A 
ATOM      2  C   LIG    1       19.429 -17.005  19.014  0.00  0.00    +0.007 A 
ATOM      3  C   LIG    1       20.676 -17.146  18.417  0.00  0.00    +0.046 A 
ATOM      4  C   LIG    1       21.200 -16.157  17.576  0.00  0.00    +0.121 A 
ATOM      5  C   LIG    1       20.446 -15.003  17.365  0.00  0.00    +0.046 A 
ATOM      6  C   LIG    1       19.197 -14.844  17.994  0.00  0.00    +0.007 A 
ENDROOT
BRANCH   1   7
ATOM      7  C   LIG    1       17.345 -15.715  19.527  0.00  0.00    +0.059 C 
BRANCH   7  10
ATOM      8  O   LIG    1       15.726 -12.879  19.692  0.00  0.00    -0.274 OA
ATOM      9  C   LIG    1       15.409 -14.035  19.442  0.00  0.00    +0.234 C 
ATOM     10  C   LIG    1       16.257 -15.042  18.676  0.00  0.00    +0.146 C 
ATOM     11  S   LIG    1       15.034 -16.321  18.178  0.00  0.00    -0.054 S 
ATOM     12  C   LIG    1       13.771 -15.658  19.184  0.00  0.00    +0.279 C 
ATOM     13  O   LIG    1       12.643 -16.108  19.249  0.00  0.00    -0.263 OA
ATOM     14  N   LIG    1       14.211 -14.552  19.824  0.00  0.00    -0.246 N 
ATOM     15  H   LIG    1       13.543 -13.971  20.307  0.00  0.00    +0.158 HD
ENDBRANCH   7  10
ENDBRANCH   1   7
BRANCH   4  16
ATOM     16  O   LIG    1       22.422 -16.249  16.928  0.00  0.00    -0.490 OA
BRANCH  16  17
ATOM     17  C   LIG    1       23.402 -15.392  17.529  0.00  0.00    +0.248 C 
BRANCH  17  18
ATOM     18  C   LIG    1       23.665 -15.579  19.016  0.00  0.00    +0.147 C 
BRANCH  18  19
ATOM     19  N   LIG    1       25.015 -16.124  19.363  0.00  0.00    -0.315 N 
ATOM     20  C   LIG    1       25.467 -17.139  18.399  0.00  0.00    +0.131 C 
BRANCH  19  21
ATOM     21  C   LIG    1       26.080 -15.293  19.765  0.00  0.00    +0.121 A 
ATOM     22  C   LIG    1       25.870 -13.980  20.200  0.00  0.00    +0.043 A 
ATOM     23  C   LIG    1       26.929 -13.169  20.613  0.00  0.00    +0.005 A 
ATOM     24  C   LIG    1       28.198 -13.705  20.677  0.00  0.00    +0.020 A 
ATOM     25  C   LIG    1       28.343 -15.026  20.307  0.00  0.00    +0.113 A 
ATOM     26  N   LIG    1       27.330 -15.805  19.849  0.00  0.00    -0.240 NA
ENDBRANCH  19  21
ENDBRANCH  18  19
ENDBRANCH  17  18
ENDBRANCH  16  17
ENDBRANCH   4  16
TORSDOF 7
ENDMDL
MODEL 8
REMARK VINA RESULT:      -8.4      3.154      9.964
REMARK  Name = 
REMARK                            x       y       z     vdW  Elec       q    Type
REMARK                         _______ _______ _______ _____ _____    ______ ____
ROOT
ATOM      1  C   LIG    1       24.407 -15.306  17.729  0.00  0.00    -0.046 A 
ATOM      2  C   LIG    1       24.192 -16.680  17.660  0.00  0.00    +0.007 A 
ATOM      3  C   LIG    1       22.903 -17.197  17.632  0.00  0.00    +0.046 A 
ATOM      4  C   LIG    1       21.780 -16.365  17.723  0.00  0.00    +0.121 A 
ATOM      5  C   LIG    1       21.984 -14.989  17.820  0.00  0.00    +0.046 A 
ATOM      6  C   LIG    1       23.289 -14.461  17.817  0.00  0.00    +0.007 A 
ENDROOT
BRANCH   1   7
ATOM      7  C   LIG    1       25.824 -14.780  17.722  0.00  0.00    +0.059 C 
BRANCH   7  10
ATOM      8  O   LIG    1       26.878 -11.735  18.271  0.00  0.00    -0.274 OA
ATOM      9  C   LIG    1       27.176 -12.838  18.710  0.00  0.00    +0.234 C 
ATOM     10  C   LIG    1       26.204 -13.980  18.977  0.00  0.00    +0.146 C 
ATOM     11  S   LIG    1       27.154 -15.079  20.104  0.00  0.00    -0.054 S 
ATOM     12  C   LIG    1       28.649 -14.210  19.864  0.00  0.00    +0.279 C 
ATOM     13  O   LIG    1       29.696 -14.489  20.417  0.00  0.00    -0.263 OA
ATOM     14  N   LIG    1       28.457 -13.163  19.032  0.00  0.00    -0.246 N 
ATOM     15  H   LIG    1       29.190 -12.478  18.935  0.00  0.00    +0.158 HD
ENDBRANCH   7  10
ENDBRANCH   1   7
BRANCH   4  16
ATOM     16  O   LIG    1       20.471 -16.818  17.730  0.00  0.00    -0.490 OA
BRANCH  16  17
ATOM     17  C   LIG    1       20.279 -17.862  18.694  0.00  0.00    +0.248 C 
BRANCH  17  18
ATOM     18  C   LIG    1       18.889 -18.000  19.296  0.00  0.00    +0.147 C 
BRANCH  18  19
ATOM     19  N   LIG    1       17.788 -17.351  18.517  0.00  0.00    -0.315 N 
ATOM     20  C   LIG    1       16.937 -18.337  17.834  0.00  0.00    +0.131 C 
BRANCH  19  21
ATOM     21  C   LIG    1       17.019 -16.292  19.042  0.00  0.00    +0.121 A 
ATOM     22  C   LIG    1       17.096 -14.995  18.523  0.00  0.00    +0.043 A 
ATOM     23  C   LIG    1       16.318 -13.955  19.037  0.00  0.00    +0.005 A 
ATOM     24  C   LIG    1       15.391 -14.234  20.019  0.00  0.00    +0.020 A 
ATOM     25  C   LIG    1       15.301 -15.543  20.446  0.00  0.00    +0.113 A 
ATOM     26  N   LIG    1       16.093 -16.548  19.994  0.00  0.00    -0.240 NA
ENDBRANCH  19  21
ENDBRANCH  18  19
ENDBRANCH  17  18
ENDBRANCH  16  17
ENDBRANCH   4  16
TORSDOF 7
ENDMDL
MODEL 9
REMARK VINA RESULT:      -8.2      4.303      8.666
REMARK  Name = 
REMARK                            x       y       z     vdW  Elec       q    Type
REMARK                         _______ _______ _______ _____ _____    ______ ____
ROOT
ATOM      1  C   LIG    1       25.569 -14.687  18.648  0.00  0.00    -0.046 A 
ATOM      2  C   LIG    1       26.271 -15.312  17.621  0.00  0.00    +0.007 A 
ATOM      3  C   LIG    1       26.308 -16.698  17.527  0.00  0.00    +0.046 A 
ATOM      4  C   LIG    1       25.687 -17.512  18.482  0.00  0.00    +0.121 A 
ATOM      5  C   LIG    1       25.004 -16.897  19.530  0.00  0.00    +0.046 A 
ATOM      6  C   LIG    1       24.939 -15.493  19.610  0.00  0.00    +0.007 A 
ENDROOT
BRANCH   1   7
ATOM      7  C   LIG    1       25.523 -13.177  18.696  0.00  0.00    +0.059 C 
BRANCH   7  10
ATOM      8  O   LIG    1       28.341 -11.627  18.109  0.00  0.00    -0.274 OA
ATOM      9  C   LIG    1       27.980 -12.475  18.914  0.00  0.00    +0.234 C 
ATOM     10  C   LIG    1       26.610 -12.543  19.577  0.00  0.00    +0.146 C 
ATOM     11  S   LIG    1       26.902 -13.642  21.022  0.00  0.00    -0.054 S 
ATOM     12  C   LIG    1       28.496 -14.105  20.482  0.00  0.00    +0.279 C 
ATOM     13  O   LIG    1       29.234 -14.853  21.096  0.00  0.00    -0.263 OA
ATOM     14  N   LIG    1       28.806 -13.473  19.329  0.00  0.00    -0.246 N 
ATOM     15  H   LIG    1       29.754 -13.514  18.990  0.00  0.00    +0.158 HD
ENDBRANCH   7  10
ENDBRANCH   1   7
BRANCH   4  16
ATOM     16  O   LIG    1       25.711 -18.898  18.462  0.00  0.00    -0.490 OA
BRANCH  16  17
ATOM     17  C   LIG    1       24.439 -19.452  18.825  0.00  0.00    +0.248 C 
BRANCH  17  18
ATOM     18  C   LIG    1       23.385 -19.536  17.731  0.00  0.00    +0.147 C 
BRANCH  18  19
ATOM     19  N   LIG    1       23.366 -18.387  16.772  0.00  0.00    -0.315 N 
ATOM     20  C   LIG    1       23.317 -18.836  15.372  0.00  0.00    +0.131 C 
BRANCH  19  21
ATOM     21  C   LIG    1       22.554 -17.254  16.972  0.00  0.00    +0.121 A 
ATOM     22  C   LIG    1       22.781 -16.051  16.294  0.00  0.00    +0.043 A 
ATOM     23  C   LIG    1       21.959 -14.937  16.485  0.00  0.00    +0.005 A 
ATOM     24  C   LIG    1       20.849 -15.055  17.295  0.00  0.00    +0.020 A 
ATOM     25  C   LIG    1       20.627 -16.283  17.883  0.00  0.00    +0.113 A 
ATOM     26  N   LIG    1       21.450 -17.353  17.750  0.00  0.00    -0.240 NA
ENDBRANCH  19  21
ENDBRANCH  18  19
ENDBRANCH  17  18
ENDBRANCH  16  17
ENDBRANCH   4  16
TORSDOF 7
ENDMDL
