MODEL 1
REMARK VINA RESULT:      -7.8      0.000      0.000
REMARK  Name = 
REMARK                            x       y       z     vdW  Elec       q    Type
REMARK                         _______ _______ _______ _____ _____    ______ ____
ROOT
ATOM      1  C   LIG    1        4.246   7.248  -5.372  0.00  0.00    -0.046 A 
ATOM      2  C   LIG    1        4.975   6.123  -5.751  0.00  0.00    +0.007 A 
ATOM      3  C   LIG    1        6.133   6.250  -6.508  0.00  0.00    +0.046 A 
ATOM      4  C   LIG    1        6.580   7.498  -6.957  0.00  0.00    +0.121 A 
ATOM      5  C   LIG    1        5.842   8.628  -6.607  0.00  0.00    +0.046 A 
ATOM      6  C   LIG    1        4.686   8.506  -5.814  0.00  0.00    +0.007 A 
ENDROOT
BRANCH   1   7
ATOM      7  C   LIG    1        3.010   7.072  -4.519  0.00  0.00    +0.059 C 
BRANCH   7  10
ATOM      8  O   LIG    1        1.062   5.421  -2.477  0.00  0.00    -0.274 OA
ATOM      9  C   LIG    1        2.023   6.165  -2.333  0.00  0.00    +0.234 C 
ATOM     10  C   LIG    1        3.237   6.236  -3.250  0.00  0.00    +0.146 C 
ATOM     11  S   LIG    1        4.494   7.085  -2.211  0.00  0.00    -0.054 S 
ATOM     12  C   LIG    1        3.340   7.504  -0.970  0.00  0.00    +0.279 C 
ATOM     13  O   LIG    1        3.624   8.097   0.054  0.00  0.00    -0.263 OA
ATOM     14  N   LIG    1        2.115   7.027  -1.285  0.00  0.00    -0.246 N 
ATOM     15  H   LIG    1        1.390   7.048  -0.585  0.00  0.00    +0.158 HD
ENDBRANCH   7  10
ENDBRANCH   1   7
BRANCH   4  16
ATOM     16  O   LIG    1        7.708   7.690  -7.738  0.00  0.00    -0.490 OA
BRANCH  16  17
ATOM     17  C   LIG    1        8.497   6.495  -7.827  0.00  0.00    +0.248 C 
BRANCH  17  18
ATOM     18  C   LIG    1        9.987   6.668  -8.079  0.00  0.00    +0.147 C 
BRANCH  18  19
ATOM     19  N   LIG    1       10.413   6.544  -9.508  0.00  0.00    -0.315 N 
ATOM     20  C   LIG    1       10.034   5.247 -10.088  0.00  0.00    +0.131 C 
BRANCH  19  21
ATOM     21  C   LIG    1       10.236   7.588 -10.438  0.00  0.00    +0.121 A 
ATOM     22  C   LIG    1       10.192   7.352 -11.817  0.00  0.00    +0.043 A 
ATOM     23  C   LIG    1        9.999   8.391 -12.731  0.00  0.00    +0.005 A 
ATOM     24  C   LIG    1        9.759   9.663 -12.257  0.00  0.00    +0.020 A 
ATOM     25  C   LIG    1        9.739   9.832 -10.888  0.00  0.00    +0.113 A 
ATOM     26  N   LIG    1        9.983   8.841  -9.994  0.00  0.00    -0.240 NA
ENDBRANCH  19  21
ENDBRANCH  18  19
ENDBRANCH  17  18
ENDBRANCH  16  17
ENDBRANCH   4  16
TORSDOF 7
ENDMDL
MODEL 2
REMARK VINA RESULT:      -7.7      6.349      8.786
REMARK  Name = 
REMARK                            x       y       z     vdW  Elec       q    Type
REMARK                         _______ _______ _______ _____ _____    ______ ____
ROOT
ATOM      1  C   LIG    1       11.500   2.682  -3.339  0.00  0.00    -0.046 A 
ATOM      2  C   LIG    1       11.234   2.050  -4.551  0.00  0.00    +0.007 A 
ATOM      3  C   LIG    1       10.125   2.407  -5.309  0.00  0.00    +0.046 A 
ATOM      4  C   LIG    1        9.214   3.372  -4.862  0.00  0.00    +0.121 A 
ATOM      5  C   LIG    1        9.458   3.991  -3.636  0.00  0.00    +0.046 A 
ATOM      6  C   LIG    1       10.596   3.654  -2.882  0.00  0.00    +0.007 A 
ENDROOT
BRANCH   1   7
ATOM      7  C   LIG    1       12.735   2.290  -2.560  0.00  0.00    +0.059 C 
BRANCH   7  10
ATOM      8  O   LIG    1       14.677   1.274  -4.987  0.00  0.00    -0.274 OA
ATOM      9  C   LIG    1       14.869   1.707  -3.858  0.00  0.00    +0.234 C 
ATOM     10  C   LIG    1       14.051   2.794  -3.173  0.00  0.00    +0.146 C 
ATOM     11  S   LIG    1       15.154   3.347  -1.810  0.00  0.00    -0.054 S 
ATOM     12  C   LIG    1       16.280   2.035  -2.045  0.00  0.00    +0.279 C 
ATOM     13  O   LIG    1       17.299   1.885  -1.398  0.00  0.00    -0.263 OA
ATOM     14  N   LIG    1       15.886   1.255  -3.077  0.00  0.00    -0.246 N 
ATOM     15  H   LIG    1       16.523   0.560  -3.433  0.00  0.00    +0.158 HD
ENDBRANCH   7  10
ENDBRANCH   1   7
BRANCH   4  16
ATOM     16  O   LIG    1        8.076   3.753  -5.554  0.00  0.00    -0.490 OA
BRANCH  16  17
ATOM     17  C   LIG    1        8.156   5.116  -5.991  0.00  0.00    +0.248 C 
BRANCH  17  18
ATOM     18  C   LIG    1        9.420   5.534  -6.726  0.00  0.00    +0.147 C 
BRANCH  18  19
ATOM     19  N   LIG    1        9.238   5.863  -8.175  0.00  0.00    -0.315 N 
ATOM     20  C   LIG    1        9.742   7.205  -8.505  0.00  0.00    +0.131 C 
BRANCH  19  21
ATOM     21  C   LIG    1        9.536   4.942  -9.198  0.00  0.00    +0.121 A 
ATOM     22  C   LIG    1       10.247   5.313 -10.344  0.00  0.00    +0.043 A 
ATOM     23  C   LIG    1       10.553   4.389 -11.346  0.00  0.00    +0.005 A 
ATOM     24  C   LIG    1       10.223   3.063 -11.158  0.00  0.00    +0.020 A 
ATOM     25  C   LIG    1        9.588   2.734  -9.978  0.00  0.00    +0.113 A 
ATOM     26  N   LIG    1        9.235   3.633  -9.026  0.00  0.00    -0.240 NA
ENDBRANCH  19  21
ENDBRANCH  18  19
ENDBRANCH  17  18
ENDBRANCH  16  17
ENDBRANCH   4  16
TORSDOF 7
ENDMDL
MODEL 3
REMARK VINA RESULT:      -7.6      1.153      1.539
REMARK  Name = 
REMARK                            x       y       z     vdW  Elec       q    Type
REMARK                         _______ _______ _______ _____ _____    ______ ____
ROOT
ATOM      1  C   LIG    1        4.481   7.204  -5.003  0.00  0.00    -0.046 A 
ATOM      2  C   LIG    1        5.158   6.098  -5.512  0.00  0.00    +0.007 A 
ATOM      3  C   LIG    1        6.187   6.257  -6.432  0.00  0.00    +0.046 A 
ATOM      4  C   LIG    1        6.545   7.520  -6.917  0.00  0.00    +0.121 A 
ATOM      5  C   LIG    1        5.855   8.631  -6.435  0.00  0.00    +0.046 A 
ATOM      6  C   LIG    1        4.833   8.476  -5.479  0.00  0.00    +0.007 A 
ENDROOT
BRANCH   1   7
ATOM      7  C   LIG    1        3.391   6.992  -3.977  0.00  0.00    +0.059 C 
BRANCH   7  10
ATOM      8  O   LIG    1        3.100   4.879  -1.499  0.00  0.00    -0.274 OA
ATOM      9  C   LIG    1        3.041   6.098  -1.600  0.00  0.00    +0.234 C 
ATOM     10  C   LIG    1        3.893   6.955  -2.526  0.00  0.00    +0.146 C 
ATOM     11  S   LIG    1        3.723   8.639  -1.807  0.00  0.00    -0.054 S 
ATOM     12  C   LIG    1        2.449   8.159  -0.715  0.00  0.00    +0.279 C 
ATOM     13  O   LIG    1        1.919   8.906   0.085  0.00  0.00    -0.263 OA
ATOM     14  N   LIG    1        2.184   6.841  -0.849  0.00  0.00    -0.246 N 
ATOM     15  H   LIG    1        1.591   6.392  -0.169  0.00  0.00    +0.158 HD
ENDBRANCH   7  10
ENDBRANCH   1   7
BRANCH   4  16
ATOM     16  O   LIG    1        7.540   7.744  -7.855  0.00  0.00    -0.490 OA
BRANCH  16  17
ATOM     17  C   LIG    1        8.604   6.791  -7.732  0.00  0.00    +0.248 C 
BRANCH  17  18
ATOM     18  C   LIG    1        9.859   7.047  -8.554  0.00  0.00    +0.147 C 
BRANCH  18  19
ATOM     19  N   LIG    1        9.767   8.184  -9.523  0.00  0.00    -0.315 N 
ATOM     20  C   LIG    1       10.201   9.457  -8.927  0.00  0.00    +0.131 C 
BRANCH  19  21
ATOM     21  C   LIG    1       10.207   8.071 -10.857  0.00  0.00    +0.121 A 
ATOM     22  C   LIG    1       10.302   6.833 -11.502  0.00  0.00    +0.043 A 
ATOM     23  C   LIG    1       10.722   6.731 -12.830  0.00  0.00    +0.005 A 
ATOM     24  C   LIG    1       10.963   7.885 -13.547  0.00  0.00    +0.020 A 
ATOM     25  C   LIG    1       10.783   9.084 -12.889  0.00  0.00    +0.113 A 
ATOM     26  N   LIG    1       10.432   9.191 -11.583  0.00  0.00    -0.240 NA
ENDBRANCH  19  21
ENDBRANCH  18  19
ENDBRANCH  17  18
ENDBRANCH  16  17
ENDBRANCH   4  16
TORSDOF 7
ENDMDL
MODEL 4
REMARK VINA RESULT:      -7.5      6.117      8.321
REMARK  Name = 
REMARK                            x       y       z     vdW  Elec       q    Type
REMARK                         _______ _______ _______ _____ _____    ______ ____
ROOT
ATOM      1  C   LIG    1       11.424   2.619  -3.855  0.00  0.00    -0.046 A 
ATOM      2  C   LIG    1       10.885   2.128  -5.042  0.00  0.00    +0.007 A 
ATOM      3  C   LIG    1        9.807   2.763  -5.648  0.00  0.00    +0.046 A 
ATOM      4  C   LIG    1        9.197   3.881  -5.067  0.00  0.00    +0.121 A 
ATOM      5  C   LIG    1        9.712   4.364  -3.865  0.00  0.00    +0.046 A 
ATOM      6  C   LIG    1       10.822   3.742  -3.265  0.00  0.00    +0.007 A 
ENDROOT
BRANCH   1   7
ATOM      7  C   LIG    1       12.618   1.922  -3.245  0.00  0.00    +0.059 C 
BRANCH   7  10
ATOM      8  O   LIG    1       15.064   0.740  -5.065  0.00  0.00    -0.274 OA
ATOM      9  C   LIG    1       15.001   1.388  -4.027  0.00  0.00    +0.234 C 
ATOM     10  C   LIG    1       13.974   2.469  -3.716  0.00  0.00    +0.146 C 
ATOM     11  S   LIG    1       14.747   3.388  -2.324  0.00  0.00    -0.054 S 
ATOM     12  C   LIG    1       16.011   2.205  -2.105  0.00  0.00    +0.279 C 
ATOM     13  O   LIG    1       16.900   2.300  -1.280  0.00  0.00    -0.263 OA
ATOM     14  N   LIG    1       15.890   1.211  -3.013  0.00  0.00    -0.246 N 
ATOM     15  H   LIG    1       16.643   0.549  -3.114  0.00  0.00    +0.158 HD
ENDBRANCH   7  10
ENDBRANCH   1   7
BRANCH   4  16
ATOM     16  O   LIG    1        8.103   4.541  -5.605  0.00  0.00    -0.490 OA
BRANCH  16  17
ATOM     17  C   LIG    1        8.340   4.935  -6.963  0.00  0.00    +0.248 C 
BRANCH  17  18
ATOM     18  C   LIG    1        9.416   5.985  -7.200  0.00  0.00    +0.147 C 
BRANCH  18  19
ATOM     19  N   LIG    1        9.987   6.014  -8.584  0.00  0.00    -0.315 N 
ATOM     20  C   LIG    1        9.586   4.839  -9.372  0.00  0.00    +0.131 C 
BRANCH  19  21
ATOM     21  C   LIG    1        9.985   7.181  -9.372  0.00  0.00    +0.121 A 
ATOM     22  C   LIG    1       10.323   7.157 -10.730  0.00  0.00    +0.043 A 
ATOM     23  C   LIG    1       10.302   8.317 -11.509  0.00  0.00    +0.005 A 
ATOM     24  C   LIG    1        9.852   9.493 -10.947  0.00  0.00    +0.020 A 
ATOM     25  C   LIG    1        9.460   9.450  -9.626  0.00  0.00    +0.113 A 
ATOM     26  N   LIG    1        9.532   8.342  -8.845  0.00  0.00    -0.240 NA
ENDBRANCH  19  21
ENDBRANCH  18  19
ENDBRANCH  17  18
ENDBRANCH  16  17
ENDBRANCH   4  16
TORSDOF 7
ENDMDL
MODEL 5
REMARK VINA RESULT:      -7.5      1.494      2.019
REMARK  Name = 
REMARK                            x       y       z     vdW  Elec       q    Type
REMARK                         _______ _______ _______ _____ _____    ______ ____
ROOT
ATOM      1  C   LIG    1        4.040   7.094  -5.083  0.00  0.00    -0.046 A 
ATOM      2  C   LIG    1        4.375   8.340  -5.607  0.00  0.00    +0.007 A 
ATOM      3  C   LIG    1        5.472   8.485  -6.448  0.00  0.00    +0.046 A 
ATOM      4  C   LIG    1        6.305   7.402  -6.756  0.00  0.00    +0.121 A 
ATOM      5  C   LIG    1        5.994   6.156  -6.213  0.00  0.00    +0.046 A 
ATOM      6  C   LIG    1        4.865   6.000  -5.387  0.00  0.00    +0.007 A 
ENDROOT
BRANCH   1   7
ATOM      7  C   LIG    1        2.818   6.971  -4.201  0.00  0.00    +0.059 C 
BRANCH   7  10
ATOM      8  O   LIG    1        5.035   8.669  -2.499  0.00  0.00    -0.274 OA
ATOM      9  C   LIG    1        4.544   7.552  -2.395  0.00  0.00    +0.234 C 
ATOM     10  C   LIG    1        3.099   7.185  -2.706  0.00  0.00    +0.146 C 
ATOM     11  S   LIG    1        2.883   5.578  -1.838  0.00  0.00    -0.054 S 
ATOM     12  C   LIG    1        4.585   5.416  -1.490  0.00  0.00    +0.279 C 
ATOM     13  O   LIG    1        5.069   4.489  -0.868  0.00  0.00    -0.263 OA
ATOM     14  N   LIG    1        5.266   6.486  -1.956  0.00  0.00    -0.246 N 
ATOM     15  H   LIG    1        6.228   6.608  -1.682  0.00  0.00    +0.158 HD
ENDBRANCH   7  10
ENDBRANCH   1   7
BRANCH   4  16
ATOM     16  O   LIG    1        7.429   7.485  -7.562  0.00  0.00    -0.490 OA
BRANCH  16  17
ATOM     17  C   LIG    1        8.208   6.283  -7.504  0.00  0.00    +0.248 C 
BRANCH  17  18
ATOM     18  C   LIG    1        9.716   6.430  -7.642  0.00  0.00    +0.147 C 
BRANCH  18  19
ATOM     19  N   LIG    1       10.229   6.464  -9.047  0.00  0.00    -0.315 N 
ATOM     20  C   LIG    1        9.851   5.261  -9.804  0.00  0.00    +0.131 C 
BRANCH  19  21
ATOM     21  C   LIG    1       10.144   7.619  -9.850  0.00  0.00    +0.121 A 
ATOM     22  C   LIG    1       10.170   7.552 -11.247  0.00  0.00    +0.043 A 
ATOM     23  C   LIG    1       10.068   8.700 -12.036  0.00  0.00    +0.005 A 
ATOM     24  C   LIG    1        9.847   9.916 -11.424  0.00  0.00    +0.020 A 
ATOM     25  C   LIG    1        9.755   9.920 -10.048  0.00  0.00    +0.113 A 
ATOM     26  N   LIG    1        9.912   8.819  -9.270  0.00  0.00    -0.240 NA
ENDBRANCH  19  21
ENDBRANCH  18  19
ENDBRANCH  17  18
ENDBRANCH  16  17
ENDBRANCH   4  16
TORSDOF 7
ENDMDL
MODEL 6
REMARK VINA RESULT:      -7.4      3.301      5.120
REMARK  Name = 
REMARK                            x       y       z     vdW  Elec       q    Type
REMARK                         _______ _______ _______ _____ _____    ______ ____
ROOT
ATOM      1  C   LIG    1        4.398   8.128  -4.594  0.00  0.00    -0.046 A 
ATOM      2  C   LIG    1        5.061   8.843  -5.588  0.00  0.00    +0.007 A 
ATOM      3  C   LIG    1        5.841   8.189  -6.534  0.00  0.00    +0.046 A 
ATOM      4  C   LIG    1        6.029   6.802  -6.493  0.00  0.00    +0.121 A 
ATOM      5  C   LIG    1        5.391   6.080  -5.486  0.00  0.00    +0.046 A 
ATOM      6  C   LIG    1        4.576   6.736  -4.545  0.00  0.00    +0.007 A 
ENDROOT
BRANCH   1   7
ATOM      7  C   LIG    1        3.531   8.872  -3.605  0.00  0.00    +0.059 C 
BRANCH   7  10
ATOM      8  O   LIG    1        2.234   8.973  -0.606  0.00  0.00    -0.274 OA
ATOM      9  C   LIG    1        3.163   9.547  -1.159  0.00  0.00    +0.234 C 
ATOM     10  C   LIG    1        4.106   8.928  -2.182  0.00  0.00    +0.146 C 
ATOM     11  S   LIG    1        5.538  10.081  -2.178  0.00  0.00    -0.054 S 
ATOM     12  C   LIG    1        4.710  11.276  -1.212  0.00  0.00    +0.279 C 
ATOM     13  O   LIG    1        5.209  12.323  -0.845  0.00  0.00    -0.263 OA
ATOM     14  N   LIG    1        3.470  10.844  -0.890  0.00  0.00    -0.246 N 
ATOM     15  H   LIG    1        2.941  11.354  -0.200  0.00  0.00    +0.158 HD
ENDBRANCH   7  10
ENDBRANCH   1   7
BRANCH   4  16
ATOM     16  O   LIG    1        6.816   6.093  -7.387  0.00  0.00    -0.490 OA
BRANCH  16  17
ATOM     17  C   LIG    1        8.143   6.632  -7.463  0.00  0.00    +0.248 C 
BRANCH  17  18
ATOM     18  C   LIG    1        9.296   5.653  -7.308  0.00  0.00    +0.147 C 
BRANCH  18  19
ATOM     19  N   LIG    1        8.900   4.243  -6.997  0.00  0.00    -0.315 N 
ATOM     20  C   LIG    1        9.323   3.304  -8.047  0.00  0.00    +0.131 C 
BRANCH  19  21
ATOM     21  C   LIG    1        9.067   3.682  -5.715  0.00  0.00    +0.121 A 
ATOM     22  C   LIG    1        9.801   2.508  -5.511  0.00  0.00    +0.043 A 
ATOM     23  C   LIG    1        9.976   1.968  -4.235  0.00  0.00    +0.005 A 
ATOM     24  C   LIG    1        9.487   2.655  -3.144  0.00  0.00    +0.020 A 
ATOM     25  C   LIG    1        8.834   3.845  -3.390  0.00  0.00    +0.113 A 
ATOM     26  N   LIG    1        8.608   4.348  -4.630  0.00  0.00    -0.240 NA
ENDBRANCH  19  21
ENDBRANCH  18  19
ENDBRANCH  17  18
ENDBRANCH  16  17
ENDBRANCH   4  16
TORSDOF 7
ENDMDL
MODEL 7
REMARK VINA RESULT:      -7.3      3.521      8.577
REMARK  Name = 
REMARK                            x       y       z     vdW  Elec       q    Type
REMARK                         _______ _______ _______ _____ _____    ______ ____
ROOT
ATOM      1  C   LIG    1        5.181   6.953  -6.199  0.00  0.00    -0.046 A 
ATOM      2  C   LIG    1        5.699   8.237  -6.356  0.00  0.00    +0.007 A 
ATOM      3  C   LIG    1        4.949   9.352  -6.003  0.00  0.00    +0.046 A 
ATOM      4  C   LIG    1        3.638   9.231  -5.527  0.00  0.00    +0.121 A 
ATOM      5  C   LIG    1        3.101   7.952  -5.392  0.00  0.00    +0.046 A 
ATOM      6  C   LIG    1        3.869   6.819  -5.719  0.00  0.00    +0.007 A 
ENDROOT
BRANCH   1   7
ATOM      7  C   LIG    1        6.041   5.764  -6.562  0.00  0.00    +0.059 C 
BRANCH   7  10
ATOM      8  O   LIG    1        8.690   6.864  -8.131  0.00  0.00    -0.274 OA
ATOM      9  C   LIG    1        8.461   5.913  -7.394  0.00  0.00    +0.234 C 
ATOM     10  C   LIG    1        7.523   5.924  -6.194  0.00  0.00    +0.146 C 
ATOM     11  S   LIG    1        8.051   4.443  -5.241  0.00  0.00    -0.054 S 
ATOM     12  C   LIG    1        9.081   3.855  -6.520  0.00  0.00    +0.279 C 
ATOM     13  O   LIG    1        9.756   2.846  -6.443  0.00  0.00    -0.263 OA
ATOM     14  N   LIG    1        9.061   4.705  -7.570  0.00  0.00    -0.246 N 
ATOM     15  H   LIG    1        9.734   4.581  -8.310  0.00  0.00    +0.158 HD
ENDBRANCH   7  10
ENDBRANCH   1   7
BRANCH   4  16
ATOM     16  O   LIG    1        2.829  10.303  -5.185  0.00  0.00    -0.490 OA
BRANCH  16  17
ATOM     17  C   LIG    1        3.500  11.209  -4.299  0.00  0.00    +0.248 C 
BRANCH  17  18
ATOM     18  C   LIG    1        3.317  10.979  -2.806  0.00  0.00    +0.147 C 
BRANCH  18  19
ATOM     19  N   LIG    1        4.375  10.145  -2.154  0.00  0.00    -0.315 N 
ATOM     20  C   LIG    1        5.124  10.898  -1.136  0.00  0.00    +0.131 C 
BRANCH  19  21
ATOM     21  C   LIG    1        4.137   8.821  -1.735  0.00  0.00    +0.121 A 
ATOM     22  C   LIG    1        4.769   7.729  -2.339  0.00  0.00    +0.043 A 
ATOM     23  C   LIG    1        4.540   6.420  -1.906  0.00  0.00    +0.005 A 
ATOM     24  C   LIG    1        3.740   6.210  -0.802  0.00  0.00    +0.020 A 
ATOM     25  C   LIG    1        3.199   7.325  -0.196  0.00  0.00    +0.113 A 
ATOM     26  N   LIG    1        3.368   8.595  -0.644  0.00  0.00    -0.240 NA
ENDBRANCH  19  21
ENDBRANCH  18  19
ENDBRANCH  17  18
ENDBRANCH  16  17
ENDBRANCH   4  16
TORSDOF 7
ENDMDL
MODEL 8
REMARK VINA RESULT:      -7.3      3.867      9.104
REMARK  Name = 
REMARK                            x       y       z     vdW  Elec       q    Type
REMARK                         _______ _______ _______ _____ _____    ______ ____
ROOT
ATOM      1  C   LIG    1        6.658  10.770  -5.886  0.00  0.00    -0.046 A 
ATOM      2  C   LIG    1        5.678  11.408  -5.130  0.00  0.00    +0.007 A 
ATOM      3  C   LIG    1        4.408  10.858  -5.005  0.00  0.00    +0.046 A 
ATOM      4  C   LIG    1        4.054   9.678  -5.671  0.00  0.00    +0.121 A 
ATOM      5  C   LIG    1        5.020   9.046  -6.453  0.00  0.00    +0.046 A 
ATOM      6  C   LIG    1        6.316   9.584  -6.556  0.00  0.00    +0.007 A 
ENDROOT
BRANCH   1   7
ATOM      7  C   LIG    1        8.038  11.382  -5.969  0.00  0.00    +0.059 C 
BRANCH   7  10
ATOM      8  O   LIG    1        8.739   9.554  -8.588  0.00  0.00    -0.274 OA
ATOM      9  C   LIG    1        9.255  10.530  -8.059  0.00  0.00    +0.234 C 
ATOM     10  C   LIG    1        8.508  11.682  -7.401  0.00  0.00    +0.146 C 
ATOM     11  S   LIG    1        9.774  13.013  -7.331  0.00  0.00    -0.054 S 
ATOM     12  C   LIG    1       11.074  11.947  -7.801  0.00  0.00    +0.279 C 
ATOM     13  O   LIG    1       12.227  12.303  -7.955  0.00  0.00    -0.263 OA
ATOM     14  N   LIG    1       10.604  10.700  -8.022  0.00  0.00    -0.246 N 
ATOM     15  H   LIG    1       11.209  10.022  -8.459  0.00  0.00    +0.158 HD
ENDBRANCH   7  10
ENDBRANCH   1   7
BRANCH   4  16
ATOM     16  O   LIG    1        2.799   9.094  -5.612  0.00  0.00    -0.490 OA
BRANCH  16  17
ATOM     17  C   LIG    1        2.880   7.701  -5.279  0.00  0.00    +0.248 C 
BRANCH  17  18
ATOM     18  C   LIG    1        3.604   7.340  -3.991  0.00  0.00    +0.147 C 
BRANCH  18  19
ATOM     19  N   LIG    1        3.083   8.007  -2.757  0.00  0.00    -0.315 N 
ATOM     20  C   LIG    1        2.670   7.034  -1.734  0.00  0.00    +0.131 C 
BRANCH  19  21
ATOM     21  C   LIG    1        3.728   9.116  -2.173  0.00  0.00    +0.121 A 
ATOM     22  C   LIG    1        5.121   9.191  -2.067  0.00  0.00    +0.043 A 
ATOM     23  C   LIG    1        5.753  10.302  -1.503  0.00  0.00    +0.005 A 
ATOM     24  C   LIG    1        4.990  11.386  -1.124  0.00  0.00    +0.020 A 
ATOM     25  C   LIG    1        3.627  11.294  -1.317  0.00  0.00    +0.113 A 
ATOM     26  N   LIG    1        2.998  10.196  -1.809  0.00  0.00    -0.240 NA
ENDBRANCH  19  21
ENDBRANCH  18  19
ENDBRANCH  17  18
ENDBRANCH  16  17
ENDBRANCH   4  16
TORSDOF 7
ENDMDL
MODEL 9
REMARK VINA RESULT:      -7.2      1.990      2.488
REMARK  Name = 
REMARK                            x       y       z     vdW  Elec       q    Type
REMARK                         _______ _______ _______ _____ _____    ______ ____
ROOT
ATOM      1  C   LIG    1        4.401   8.290  -4.616  0.00  0.00    -0.046 A 
ATOM      2  C   LIG    1        5.101   9.006  -5.583  0.00  0.00    +0.007 A 
ATOM      3  C   LIG    1        5.884   8.349  -6.525  0.00  0.00    +0.046 A 
ATOM      4  C   LIG    1        6.038   6.958  -6.505  0.00  0.00    +0.121 A 
ATOM      5  C   LIG    1        5.362   6.234  -5.524  0.00  0.00    +0.046 A 
ATOM      6  C   LIG    1        4.544   6.893  -4.588  0.00  0.00    +0.007 A 
ENDROOT
BRANCH   1   7
ATOM      7  C   LIG    1        3.532   9.038  -3.631  0.00  0.00    +0.059 C 
BRANCH   7  10
ATOM      8  O   LIG    1        2.208   9.089  -0.642  0.00  0.00    -0.274 OA
ATOM      9  C   LIG    1        3.138   9.677  -1.179  0.00  0.00    +0.234 C 
ATOM     10  C   LIG    1        4.094   9.079  -2.202  0.00  0.00    +0.146 C 
ATOM     11  S   LIG    1        5.518  10.242  -2.169  0.00  0.00    -0.054 S 
ATOM     12  C   LIG    1        4.671  11.418  -1.195  0.00  0.00    +0.279 C 
ATOM     13  O   LIG    1        5.159  12.463  -0.810  0.00  0.00    -0.263 OA
ATOM     14  N   LIG    1        3.432  10.973  -0.890  0.00  0.00    -0.246 N 
ATOM     15  H   LIG    1        2.893  11.470  -0.198  0.00  0.00    +0.158 HD
ENDBRANCH   7  10
ENDBRANCH   1   7
BRANCH   4  16
ATOM     16  O   LIG    1        6.825   6.246  -7.396  0.00  0.00    -0.490 OA
BRANCH  16  17
ATOM     17  C   LIG    1        8.026   6.958  -7.724  0.00  0.00    +0.248 C 
BRANCH  17  18
ATOM     18  C   LIG    1        9.312   6.148  -7.795  0.00  0.00    +0.147 C 
BRANCH  18  19
ATOM     19  N   LIG    1       10.155   6.394  -9.007  0.00  0.00    -0.315 N 
ATOM     20  C   LIG    1       10.078   5.286  -9.970  0.00  0.00    +0.131 C 
BRANCH  19  21
ATOM     21  C   LIG    1       10.179   7.640  -9.665  0.00  0.00    +0.121 A 
ATOM     22  C   LIG    1       10.073   7.744 -11.057  0.00  0.00    +0.043 A 
ATOM     23  C   LIG    1       10.080   8.984 -11.700  0.00  0.00    +0.005 A 
ATOM     24  C   LIG    1       10.104  10.133 -10.939  0.00  0.00    +0.020 A 
ATOM     25  C   LIG    1       10.134   9.980  -9.568  0.00  0.00    +0.113 A 
ATOM     26  N   LIG    1       10.187   8.780  -8.936  0.00  0.00    -0.240 NA
ENDBRANCH  19  21
ENDBRANCH  18  19
ENDBRANCH  17  18
ENDBRANCH  16  17
ENDBRANCH   4  16
TORSDOF 7
ENDMDL
