MODEL 1
REMARK VINA RESULT:      -7.4      0.000      0.000
REMARK  Name = 
REMARK                            x       y       z     vdW  Elec       q    Type
REMARK                         _______ _______ _______ _____ _____    ______ ____
ROOT
ATOM      1  C   LIG    1        0.513  31.226   6.175  0.00  0.00    -0.046 A 
ATOM      2  C   LIG    1       -0.245  31.264   5.008  0.00  0.00    +0.007 A 
ATOM      3  C   LIG    1       -1.008  32.382   4.692  0.00  0.00    +0.046 A 
ATOM      4  C   LIG    1       -1.082  33.483   5.554  0.00  0.00    +0.121 A 
ATOM      5  C   LIG    1       -0.348  33.444   6.739  0.00  0.00    +0.046 A 
ATOM      6  C   LIG    1        0.450  32.326   7.046  0.00  0.00    +0.007 A 
ENDROOT
BRANCH   1   7
ATOM      7  C   LIG    1        1.357  30.006   6.466  0.00  0.00    +0.059 C 
BRANCH   7  10
ATOM      8  O   LIG    1        0.670  28.498   3.648  0.00  0.00    -0.274 OA
ATOM      9  C   LIG    1        1.548  28.380   4.493  0.00  0.00    +0.234 C 
ATOM     10  C   LIG    1        2.191  29.520   5.271  0.00  0.00    +0.146 C 
ATOM     11  S   LIG    1        3.740  28.765   5.911  0.00  0.00    -0.054 S 
ATOM     12  C   LIG    1        3.275  27.151   5.437  0.00  0.00    +0.279 C 
ATOM     13  O   LIG    1        3.971  26.166   5.597  0.00  0.00    -0.263 OA
ATOM     14  N   LIG    1        2.071  27.168   4.823  0.00  0.00    -0.246 N 
ATOM     15  H   LIG    1        1.755  26.337   4.349  0.00  0.00    +0.158 HD
ENDBRANCH   7  10
ENDBRANCH   1   7
BRANCH   4  16
ATOM     16  O   LIG    1       -1.844  34.615   5.313  0.00  0.00    -0.490 OA
BRANCH  16  17
ATOM     17  C   LIG    1       -1.062  35.662   4.723  0.00  0.00    +0.248 C 
BRANCH  17  18
ATOM     18  C   LIG    1       -0.087  35.262   3.627  0.00  0.00    +0.147 C 
BRANCH  18  19
ATOM     19  N   LIG    1        1.360  35.309   4.010  0.00  0.00    -0.315 N 
ATOM     20  C   LIG    1        1.596  36.175   5.175  0.00  0.00    +0.131 C 
BRANCH  19  21
ATOM     21  C   LIG    1        2.160  34.150   4.066  0.00  0.00    +0.121 A 
ATOM     22  C   LIG    1        2.212  33.235   3.008  0.00  0.00    +0.043 A 
ATOM     23  C   LIG    1        3.021  32.097   3.065  0.00  0.00    +0.005 A 
ATOM     24  C   LIG    1        3.853  31.920   4.151  0.00  0.00    +0.020 A 
ATOM     25  C   LIG    1        3.820  32.888   5.133  0.00  0.00    +0.113 A 
ATOM     26  N   LIG    1        2.995  33.966   5.115  0.00  0.00    -0.240 NA
ENDBRANCH  19  21
ENDBRANCH  18  19
ENDBRANCH  17  18
ENDBRANCH  16  17
ENDBRANCH   4  16
TORSDOF 7
ENDMDL
MODEL 2
REMARK VINA RESULT:      -7.4      1.553      3.576
REMARK  Name = 
REMARK                            x       y       z     vdW  Elec       q    Type
REMARK                         _______ _______ _______ _____ _____    ______ ____
ROOT
ATOM      1  C   LIG    1        3.875  30.704   4.813  0.00  0.00    -0.046 A 
ATOM      2  C   LIG    1        4.117  31.882   5.517  0.00  0.00    +0.007 A 
ATOM      3  C   LIG    1        3.484  33.066   5.158  0.00  0.00    +0.046 A 
ATOM      4  C   LIG    1        2.624  33.130   4.055  0.00  0.00    +0.121 A 
ATOM      5  C   LIG    1        2.396  31.963   3.328  0.00  0.00    +0.046 A 
ATOM      6  C   LIG    1        3.012  30.755   3.707  0.00  0.00    +0.007 A 
ENDROOT
BRANCH   1   7
ATOM      7  C   LIG    1        4.556  29.429   5.256  0.00  0.00    +0.059 C 
BRANCH   7  10
ATOM      8  O   LIG    1        4.031  26.203   5.281  0.00  0.00    -0.274 OA
ATOM      9  C   LIG    1        3.311  27.190   5.358  0.00  0.00    +0.234 C 
ATOM     10  C   LIG    1        3.659  28.489   6.074  0.00  0.00    +0.146 C 
ATOM     11  S   LIG    1        2.020  29.293   6.295  0.00  0.00    -0.054 S 
ATOM     12  C   LIG    1        1.201  28.150   5.260  0.00  0.00    +0.279 C 
ATOM     13  O   LIG    1        0.006  28.170   5.033  0.00  0.00    -0.263 OA
ATOM     14  N   LIG    1        2.070  27.221   4.803  0.00  0.00    -0.246 N 
ATOM     15  H   LIG    1        1.708  26.406   4.333  0.00  0.00    +0.158 HD
ENDBRANCH   7  10
ENDBRANCH   1   7
BRANCH   4  16
ATOM     16  O   LIG    1        1.985  34.283   3.628  0.00  0.00    -0.490 OA
BRANCH  16  17
ATOM     17  C   LIG    1        2.100  35.337   4.594  0.00  0.00    +0.248 C 
BRANCH  17  18
ATOM     18  C   LIG    1        0.880  36.224   4.796  0.00  0.00    +0.147 C 
BRANCH  18  19
ATOM     19  N   LIG    1       -0.421  35.499   4.936  0.00  0.00    -0.315 N 
ATOM     20  C   LIG    1       -1.314  35.739   3.792  0.00  0.00    +0.131 C 
BRANCH  19  21
ATOM     21  C   LIG    1       -0.492  34.158   5.364  0.00  0.00    +0.121 A 
ATOM     22  C   LIG    1       -0.964  33.139   4.530  0.00  0.00    +0.043 A 
ATOM     23  C   LIG    1       -1.014  31.809   4.956  0.00  0.00    +0.005 A 
ATOM     24  C   LIG    1       -0.505  31.484   6.196  0.00  0.00    +0.020 A 
ATOM     25  C   LIG    1        0.017  32.513   6.952  0.00  0.00    +0.113 A 
ATOM     26  N   LIG    1        0.017  33.815   6.570  0.00  0.00    -0.240 NA
ENDBRANCH  19  21
ENDBRANCH  18  19
ENDBRANCH  17  18
ENDBRANCH  16  17
ENDBRANCH   4  16
TORSDOF 7
ENDMDL
MODEL 3
REMARK VINA RESULT:      -7.1      2.474      6.510
REMARK  Name = 
REMARK                            x       y       z     vdW  Elec       q    Type
REMARK                         _______ _______ _______ _____ _____    ______ ____
ROOT
ATOM      1  C   LIG    1        1.810  33.467   3.414  0.00  0.00    -0.046 A 
ATOM      2  C   LIG    1        2.412  34.028   4.538  0.00  0.00    +0.007 A 
ATOM      3  C   LIG    1        3.457  33.377   5.183  0.00  0.00    +0.046 A 
ATOM      4  C   LIG    1        3.905  32.119   4.761  0.00  0.00    +0.121 A 
ATOM      5  C   LIG    1        3.290  31.537   3.654  0.00  0.00    +0.046 A 
ATOM      6  C   LIG    1        2.253  32.208   2.980  0.00  0.00    +0.007 A 
ENDROOT
BRANCH   1   7
ATOM      7  C   LIG    1        0.700  34.223   2.720  0.00  0.00    +0.059 C 
BRANCH   7  10
ATOM      8  O   LIG    1       -1.326  36.416   4.053  0.00  0.00    -0.274 OA
ATOM      9  C   LIG    1       -0.926  35.306   4.381  0.00  0.00    +0.234 C 
ATOM     10  C   LIG    1       -0.658  34.143   3.435  0.00  0.00    +0.146 C 
ATOM     11  S   LIG    1       -0.640  32.689   4.559  0.00  0.00    -0.054 S 
ATOM     12  C   LIG    1       -0.647  33.669   6.002  0.00  0.00    +0.279 C 
ATOM     13  O   LIG    1       -0.665  33.220   7.132  0.00  0.00    -0.263 OA
ATOM     14  N   LIG    1       -0.687  34.981   5.680  0.00  0.00    -0.246 N 
ATOM     15  H   LIG    1       -0.864  35.656   6.408  0.00  0.00    +0.158 HD
ENDBRANCH   7  10
ENDBRANCH   1   7
BRANCH   4  16
ATOM     16  O   LIG    1        4.921  31.405   5.377  0.00  0.00    -0.490 OA
BRANCH  16  17
ATOM     17  C   LIG    1        5.234  30.206   4.655  0.00  0.00    +0.248 C 
BRANCH  17  18
ATOM     18  C   LIG    1        5.067  28.889   5.398  0.00  0.00    +0.147 C 
BRANCH  18  19
ATOM     19  N   LIG    1        3.738  28.222   5.225  0.00  0.00    -0.315 N 
ATOM     20  C   LIG    1        3.804  26.778   5.497  0.00  0.00    +0.131 C 
BRANCH  19  21
ATOM     21  C   LIG    1        2.546  28.781   5.727  0.00  0.00    +0.121 A 
ATOM     22  C   LIG    1        2.540  29.644   6.829  0.00  0.00    +0.043 A 
ATOM     23  C   LIG    1        1.356  30.207   7.310  0.00  0.00    +0.005 A 
ATOM     24  C   LIG    1        0.179  29.976   6.628  0.00  0.00    +0.020 A 
ATOM     25  C   LIG    1        0.249  29.178   5.505  0.00  0.00    +0.113 A 
ATOM     26  N   LIG    1        1.384  28.579   5.064  0.00  0.00    -0.240 NA
ENDBRANCH  19  21
ENDBRANCH  18  19
ENDBRANCH  17  18
ENDBRANCH  16  17
ENDBRANCH   4  16
TORSDOF 7
ENDMDL
MODEL 4
REMARK VINA RESULT:      -7.0      1.567      2.497
REMARK  Name = 
REMARK                            x       y       z     vdW  Elec       q    Type
REMARK                         _______ _______ _______ _____ _____    ______ ____
ROOT
ATOM      1  C   LIG    1        0.865  29.174   5.888  0.00  0.00    -0.046 A 
ATOM      2  C   LIG    1        1.204  29.887   7.035  0.00  0.00    +0.007 A 
ATOM      3  C   LIG    1        0.771  31.196   7.212  0.00  0.00    +0.046 A 
ATOM      4  C   LIG    1        0.026  31.858   6.228  0.00  0.00    +0.121 A 
ATOM      5  C   LIG    1       -0.295  31.161   5.064  0.00  0.00    +0.046 A 
ATOM      6  C   LIG    1        0.116  29.826   4.897  0.00  0.00    +0.007 A 
ENDROOT
BRANCH   1   7
ATOM      7  C   LIG    1        1.326  27.741   5.750  0.00  0.00    +0.059 C 
BRANCH   7  10
ATOM      8  O   LIG    1        3.918  25.749   5.661  0.00  0.00    -0.274 OA
ATOM      9  C   LIG    1        3.743  26.941   5.441  0.00  0.00    +0.234 C 
ATOM     10  C   LIG    1        2.510  27.552   4.789  0.00  0.00    +0.146 C 
ATOM     11  S   LIG    1        3.100  29.210   4.258  0.00  0.00    -0.054 S 
ATOM     12  C   LIG    1        4.603  29.074   5.134  0.00  0.00    +0.279 C 
ATOM     13  O   LIG    1        5.473  29.924   5.134  0.00  0.00    -0.263 OA
ATOM     14  N   LIG    1        4.680  27.875   5.754  0.00  0.00    -0.246 N 
ATOM     15  H   LIG    1        5.559  27.591   6.158  0.00  0.00    +0.158 HD
ENDBRANCH   7  10
ENDBRANCH   1   7
BRANCH   4  16
ATOM     16  O   LIG    1       -0.411  33.169   6.329  0.00  0.00    -0.490 OA
BRANCH  16  17
ATOM     17  C   LIG    1       -0.954  33.640   5.088  0.00  0.00    +0.248 C 
BRANCH  17  18
ATOM     18  C   LIG    1       -0.680  35.090   4.720  0.00  0.00    +0.147 C 
BRANCH  18  19
ATOM     19  N   LIG    1        0.739  35.400   4.358  0.00  0.00    -0.315 N 
ATOM     20  C   LIG    1        1.297  36.484   5.181  0.00  0.00    +0.131 C 
BRANCH  19  21
ATOM     21  C   LIG    1        1.695  34.389   4.132  0.00  0.00    +0.121 A 
ATOM     22  C   LIG    1        2.653  34.049   5.094  0.00  0.00    +0.043 A 
ATOM     23  C   LIG    1        3.586  33.034   4.869  0.00  0.00    +0.005 A 
ATOM     24  C   LIG    1        3.502  32.292   3.709  0.00  0.00    +0.020 A 
ATOM     25  C   LIG    1        2.493  32.617   2.826  0.00  0.00    +0.113 A 
ATOM     26  N   LIG    1        1.620  33.639   3.008  0.00  0.00    -0.240 NA
ENDBRANCH  19  21
ENDBRANCH  18  19
ENDBRANCH  17  18
ENDBRANCH  16  17
ENDBRANCH   4  16
TORSDOF 7
ENDMDL
MODEL 5
REMARK VINA RESULT:      -6.8      2.844      6.802
REMARK  Name = 
REMARK                            x       y       z     vdW  Elec       q    Type
REMARK                         _______ _______ _______ _____ _____    ______ ____
ROOT
ATOM      1  C   LIG    1        2.338  33.074   4.136  0.00  0.00    -0.046 A 
ATOM      2  C   LIG    1        3.147  32.459   3.183  0.00  0.00    +0.007 A 
ATOM      3  C   LIG    1        4.217  31.662   3.568  0.00  0.00    +0.046 A 
ATOM      4  C   LIG    1        4.552  31.489   4.917  0.00  0.00    +0.121 A 
ATOM      5  C   LIG    1        3.765  32.123   5.878  0.00  0.00    +0.046 A 
ATOM      6  C   LIG    1        2.661  32.905   5.491  0.00  0.00    +0.007 A 
ENDROOT
BRANCH   1   7
ATOM      7  C   LIG    1        1.162  33.905   3.677  0.00  0.00    +0.059 C 
BRANCH   7  10
ATOM      8  O   LIG    1       -0.464  33.570   6.494  0.00  0.00    -0.274 OA
ATOM      9  C   LIG    1       -0.545  34.336   5.542  0.00  0.00    +0.234 C 
ATOM     10  C   LIG    1        0.629  34.880   4.738  0.00  0.00    +0.146 C 
ATOM     11  S   LIG    1       -0.094  36.337   3.880  0.00  0.00    -0.054 S 
ATOM     12  C   LIG    1       -1.728  35.931   4.341  0.00  0.00    +0.279 C 
ATOM     13  O   LIG    1       -2.703  36.599   4.056  0.00  0.00    -0.263 OA
ATOM     14  N   LIG    1       -1.739  34.812   5.100  0.00  0.00    -0.246 N 
ATOM     15  H   LIG    1       -2.591  34.555   5.574  0.00  0.00    +0.158 HD
ENDBRANCH   7  10
ENDBRANCH   1   7
BRANCH   4  16
ATOM     16  O   LIG    1        5.622  30.732   5.366  0.00  0.00    -0.490 OA
BRANCH  16  17
ATOM     17  C   LIG    1        5.576  29.395   4.850  0.00  0.00    +0.248 C 
BRANCH  17  18
ATOM     18  C   LIG    1        4.633  28.420   5.539  0.00  0.00    +0.147 C 
BRANCH  18  19
ATOM     19  N   LIG    1        3.323  28.201   4.848  0.00  0.00    -0.315 N 
ATOM     20  C   LIG    1        2.985  26.773   4.744  0.00  0.00    +0.131 C 
BRANCH  19  21
ATOM     21  C   LIG    1        2.182  28.976   5.136  0.00  0.00    +0.121 A 
ATOM     22  C   LIG    1        1.319  29.424   4.131  0.00  0.00    +0.043 A 
ATOM     23  C   LIG    1        0.180  30.177   4.427  0.00  0.00    +0.005 A 
ATOM     24  C   LIG    1       -0.146  30.407   5.747  0.00  0.00    +0.020 A 
ATOM     25  C   LIG    1        0.697  29.881   6.704  0.00  0.00    +0.113 A 
ATOM     26  N   LIG    1        1.836  29.199   6.425  0.00  0.00    -0.240 NA
ENDBRANCH  19  21
ENDBRANCH  18  19
ENDBRANCH  17  18
ENDBRANCH  16  17
ENDBRANCH   4  16
TORSDOF 7
ENDMDL
MODEL 6
REMARK VINA RESULT:      -6.7      2.438      6.692
REMARK  Name = 
REMARK                            x       y       z     vdW  Elec       q    Type
REMARK                         _______ _______ _______ _____ _____    ______ ____
ROOT
ATOM      1  C   LIG    1        0.796  32.531   4.645  0.00  0.00    -0.046 A 
ATOM      2  C   LIG    1        1.614  32.622   3.521  0.00  0.00    +0.007 A 
ATOM      3  C   LIG    1        2.905  32.109   3.540  0.00  0.00    +0.046 A 
ATOM      4  C   LIG    1        3.446  31.530   4.694  0.00  0.00    +0.121 A 
ATOM      5  C   LIG    1        2.644  31.459   5.833  0.00  0.00    +0.046 A 
ATOM      6  C   LIG    1        1.326  31.950   5.808  0.00  0.00    +0.007 A 
ENDROOT
BRANCH   1   7
ATOM      7  C   LIG    1       -0.614  33.070   4.574  0.00  0.00    +0.059 C 
BRANCH   7  10
ATOM      8  O   LIG    1       -2.038  35.860   3.638  0.00  0.00    -0.274 OA
ATOM      9  C   LIG    1       -0.985  35.579   4.196  0.00  0.00    +0.234 C 
ATOM     10  C   LIG    1       -0.789  34.458   5.208  0.00  0.00    +0.146 C 
ATOM     11  S   LIG    1        0.784  34.920   6.040  0.00  0.00    -0.054 S 
ATOM     12  C   LIG    1        1.144  36.184   4.892  0.00  0.00    +0.279 C 
ATOM     13  O   LIG    1        2.122  36.905   4.954  0.00  0.00    -0.263 OA
ATOM     14  N   LIG    1        0.158  36.280   3.972  0.00  0.00    -0.246 N 
ATOM     15  H   LIG    1        0.149  37.072   3.349  0.00  0.00    +0.158 HD
ENDBRANCH   7  10
ENDBRANCH   1   7
BRANCH   4  16
ATOM     16  O   LIG    1        4.733  31.027   4.788  0.00  0.00    -0.490 OA
BRANCH  16  17
ATOM     17  C   LIG    1        4.803  29.924   5.702  0.00  0.00    +0.248 C 
BRANCH  17  18
ATOM     18  C   LIG    1        5.195  28.572   5.124  0.00  0.00    +0.147 C 
BRANCH  18  19
ATOM     19  N   LIG    1        4.057  27.637   4.857  0.00  0.00    -0.315 N 
ATOM     20  C   LIG    1        4.199  26.369   5.589  0.00  0.00    +0.131 C 
BRANCH  19  21
ATOM     21  C   LIG    1        2.716  28.070   4.844  0.00  0.00    +0.121 A 
ATOM     22  C   LIG    1        2.092  28.508   3.671  0.00  0.00    +0.043 A 
ATOM     23  C   LIG    1        0.757  28.919   3.663  0.00  0.00    +0.005 A 
ATOM     24  C   LIG    1        0.014  28.806   4.820  0.00  0.00    +0.020 A 
ATOM     25  C   LIG    1        0.655  28.300   5.932  0.00  0.00    +0.113 A 
ATOM     26  N   LIG    1        1.966  27.953   5.964  0.00  0.00    -0.240 NA
ENDBRANCH  19  21
ENDBRANCH  18  19
ENDBRANCH  17  18
ENDBRANCH  16  17
ENDBRANCH   4  16
TORSDOF 7
ENDMDL
MODEL 7
REMARK VINA RESULT:      -6.7      2.304      6.311
REMARK  Name = 
REMARK                            x       y       z     vdW  Elec       q    Type
REMARK                         _______ _______ _______ _____ _____    ______ ____
ROOT
ATOM      1  C   LIG    1        0.050  31.910   4.382  0.00  0.00    -0.046 A 
ATOM      2  C   LIG    1        0.754  30.950   3.660  0.00  0.00    +0.007 A 
ATOM      3  C   LIG    1        0.861  29.646   4.128  0.00  0.00    +0.046 A 
ATOM      4  C   LIG    1        0.312  29.264   5.358  0.00  0.00    +0.121 A 
ATOM      5  C   LIG    1       -0.372  30.225   6.102  0.00  0.00    +0.046 A 
ATOM      6  C   LIG    1       -0.509  31.538   5.615  0.00  0.00    +0.007 A 
ENDROOT
BRANCH   1   7
ATOM      7  C   LIG    1       -0.074  33.309   3.822  0.00  0.00    +0.059 C 
BRANCH   7  10
ATOM      8  O   LIG    1       -1.915  36.003   4.023  0.00  0.00    -0.274 OA
ATOM      9  C   LIG    1       -0.761  35.728   4.324  0.00  0.00    +0.234 C 
ATOM     10  C   LIG    1       -0.284  34.396   4.887  0.00  0.00    +0.146 C 
ATOM     11  S   LIG    1        1.349  34.816   5.620  0.00  0.00    -0.054 S 
ATOM     12  C   LIG    1        1.380  36.408   4.906  0.00  0.00    +0.279 C 
ATOM     13  O   LIG    1        2.275  37.215   5.074  0.00  0.00    -0.263 OA
ATOM     14  N   LIG    1        0.251  36.628   4.197  0.00  0.00    -0.246 N 
ATOM     15  H   LIG    1        0.056  37.561   3.869  0.00  0.00    +0.158 HD
ENDBRANCH   7  10
ENDBRANCH   1   7
BRANCH   4  16
ATOM     16  O   LIG    1        0.408  27.990   5.895  0.00  0.00    -0.490 OA
BRANCH  16  17
ATOM     17  C   LIG    1        1.573  27.304   5.418  0.00  0.00    +0.248 C 
BRANCH  17  18
ATOM     18  C   LIG    1        2.809  27.343   6.303  0.00  0.00    +0.147 C 
BRANCH  18  19
ATOM     19  N   LIG    1        3.958  28.135   5.762  0.00  0.00    -0.315 N 
ATOM     20  C   LIG    1        4.482  27.566   4.510  0.00  0.00    +0.131 C 
BRANCH  19  21
ATOM     21  C   LIG    1        3.944  29.543   5.714  0.00  0.00    +0.121 A 
ATOM     22  C   LIG    1        4.524  30.253   4.656  0.00  0.00    +0.043 A 
ATOM     23  C   LIG    1        4.490  31.649   4.608  0.00  0.00    +0.005 A 
ATOM     24  C   LIG    1        3.793  32.336   5.579  0.00  0.00    +0.020 A 
ATOM     25  C   LIG    1        3.176  31.588   6.560  0.00  0.00    +0.113 A 
ATOM     26  N   LIG    1        3.252  30.236   6.648  0.00  0.00    -0.240 NA
ENDBRANCH  19  21
ENDBRANCH  18  19
ENDBRANCH  17  18
ENDBRANCH  16  17
ENDBRANCH   4  16
TORSDOF 7
ENDMDL
MODEL 8
REMARK VINA RESULT:      -6.4      2.425      6.562
REMARK  Name = 
REMARK                            x       y       z     vdW  Elec       q    Type
REMARK                         _______ _______ _______ _____ _____    ______ ____
ROOT
ATOM      1  C   LIG    1        1.263  32.331   5.274  0.00  0.00    -0.046 A 
ATOM      2  C   LIG    1        0.508  31.752   6.291  0.00  0.00    +0.007 A 
ATOM      3  C   LIG    1        0.058  30.441   6.183  0.00  0.00    +0.046 A 
ATOM      4  C   LIG    1        0.301  29.677   5.036  0.00  0.00    +0.121 A 
ATOM      5  C   LIG    1        1.033  30.257   4.000  0.00  0.00    +0.046 A 
ATOM      6  C   LIG    1        1.516  31.573   4.120  0.00  0.00    +0.007 A 
ENDROOT
BRANCH   1   7
ATOM      7  C   LIG    1        1.764  33.747   5.444  0.00  0.00    +0.059 C 
BRANCH   7  10
ATOM      8  O   LIG    1        2.253  36.917   4.810  0.00  0.00    -0.274 OA
ATOM      9  C   LIG    1        1.322  36.140   4.638  0.00  0.00    +0.234 C 
ATOM     10  C   LIG    1        1.450  34.671   4.258  0.00  0.00    +0.146 C 
ATOM     11  S   LIG    1       -0.226  34.258   3.625  0.00  0.00    -0.054 S 
ATOM     12  C   LIG    1       -0.919  35.764   4.170  0.00  0.00    +0.279 C 
ATOM     13  O   LIG    1       -2.079  36.085   3.995  0.00  0.00    -0.263 OA
ATOM     14  N   LIG    1        0.026  36.534   4.755  0.00  0.00    -0.246 N 
ATOM     15  H   LIG    1       -0.192  37.495   4.966  0.00  0.00    +0.158 HD
ENDBRANCH   7  10
ENDBRANCH   1   7
BRANCH   4  16
ATOM     16  O   LIG    1       -0.143  28.378   4.853  0.00  0.00    -0.490 OA
BRANCH  16  17
ATOM     17  C   LIG    1        0.676  27.436   5.559  0.00  0.00    +0.248 C 
BRANCH  17  18
ATOM     18  C   LIG    1        2.000  27.053   4.914  0.00  0.00    +0.147 C 
BRANCH  18  19
ATOM     19  N   LIG    1        3.220  27.365   5.724  0.00  0.00    -0.315 N 
ATOM     20  C   LIG    1        4.300  26.393   5.496  0.00  0.00    +0.131 C 
BRANCH  19  21
ATOM     21  C   LIG    1        3.728  28.674   5.842  0.00  0.00    +0.121 A 
ATOM     22  C   LIG    1        4.497  29.262   4.831  0.00  0.00    +0.043 A 
ATOM     23  C   LIG    1        4.983  30.567   4.948  0.00  0.00    +0.005 A 
ATOM     24  C   LIG    1        4.622  31.320   6.045  0.00  0.00    +0.020 A 
ATOM     25  C   LIG    1        3.802  30.720   6.979  0.00  0.00    +0.113 A 
ATOM     26  N   LIG    1        3.373  29.435   6.903  0.00  0.00    -0.240 NA
ENDBRANCH  19  21
ENDBRANCH  18  19
ENDBRANCH  17  18
ENDBRANCH  16  17
ENDBRANCH   4  16
TORSDOF 7
ENDMDL
MODEL 9
REMARK VINA RESULT:      -6.3      2.778      6.956
REMARK  Name = 
REMARK                            x       y       z     vdW  Elec       q    Type
REMARK                         _______ _______ _______ _____ _____    ______ ____
ROOT
ATOM      1  C   LIG    1        2.460  33.030   4.106  0.00  0.00    -0.046 A 
ATOM      2  C   LIG    1        2.728  32.937   5.469  0.00  0.00    +0.007 A 
ATOM      3  C   LIG    1        3.786  32.164   5.934  0.00  0.00    +0.046 A 
ATOM      4  C   LIG    1        4.583  31.416   5.060  0.00  0.00    +0.121 A 
ATOM      5  C   LIG    1        4.306  31.481   3.695  0.00  0.00    +0.046 A 
ATOM      6  C   LIG    1        3.256  32.287   3.219  0.00  0.00    +0.007 A 
ENDROOT
BRANCH   1   7
ATOM      7  C   LIG    1        1.323  33.909   3.637  0.00  0.00    +0.059 C 
BRANCH   7  10
ATOM      8  O   LIG    1       -1.387  33.348   5.378  0.00  0.00    -0.274 OA
ATOM      9  C   LIG    1       -0.894  34.338   4.852  0.00  0.00    +0.234 C 
ATOM     10  C   LIG    1        0.595  34.650   4.768  0.00  0.00    +0.146 C 
ATOM     11  S   LIG    1        0.621  36.451   4.397  0.00  0.00    -0.054 S 
ATOM     12  C   LIG    1       -1.097  36.522   4.095  0.00  0.00    +0.279 C 
ATOM     13  O   LIG    1       -1.697  37.540   3.809  0.00  0.00    -0.263 OA
ATOM     14  N   LIG    1       -1.659  35.307   4.282  0.00  0.00    -0.246 N 
ATOM     15  H   LIG    1       -2.664  35.234   4.307  0.00  0.00    +0.158 HD
ENDBRANCH   7  10
ENDBRANCH   1   7
BRANCH   4  16
ATOM     16  O   LIG    1        5.632  30.604   5.461  0.00  0.00    -0.490 OA
BRANCH  16  17
ATOM     17  C   LIG    1        5.513  29.282   4.918  0.00  0.00    +0.248 C 
BRANCH  17  18
ATOM     18  C   LIG    1        4.495  28.358   5.569  0.00  0.00    +0.147 C 
BRANCH  18  19
ATOM     19  N   LIG    1        3.198  28.217   4.834  0.00  0.00    -0.315 N 
ATOM     20  C   LIG    1        2.862  26.809   4.569  0.00  0.00    +0.131 C 
BRANCH  19  21
ATOM     21  C   LIG    1        2.052  28.956   5.186  0.00  0.00    +0.121 A 
ATOM     22  C   LIG    1        1.765  29.291   6.514  0.00  0.00    +0.043 A 
ATOM     23  C   LIG    1        0.636  30.040   6.852  0.00  0.00    +0.005 A 
ATOM     24  C   LIG    1       -0.167  30.534   5.845  0.00  0.00    +0.020 A 
ATOM     25  C   LIG    1        0.199  30.239   4.548  0.00  0.00    +0.113 A 
ATOM     26  N   LIG    1        1.261  29.464   4.212  0.00  0.00    -0.240 NA
ENDBRANCH  19  21
ENDBRANCH  18  19
ENDBRANCH  17  18
ENDBRANCH  16  17
ENDBRANCH   4  16
TORSDOF 7
ENDMDL
