MODEL 1
REMARK VINA RESULT:      -8.0      0.000      0.000
REMARK  Name = 
REMARK                            x       y       z     vdW  Elec       q    Type
REMARK                         _______ _______ _______ _____ _____    ______ ____
ROOT
ATOM      1  C   LIG    1      -42.067  14.937 -44.101  0.00  0.00    -0.046 A 
ATOM      2  C   LIG    1      -43.020  14.881 -45.115  0.00  0.00    +0.007 A 
ATOM      3  C   LIG    1      -44.033  13.930 -45.085  0.00  0.00    +0.046 A 
ATOM      4  C   LIG    1      -44.104  12.969 -44.069  0.00  0.00    +0.121 A 
ATOM      5  C   LIG    1      -43.138  13.000 -43.064  0.00  0.00    +0.046 A 
ATOM      6  C   LIG    1      -42.129  13.981 -43.075  0.00  0.00    +0.007 A 
ENDROOT
BRANCH   1   7
ATOM      7  C   LIG    1      -41.001  16.008 -44.151  0.00  0.00    +0.059 C 
BRANCH   7  10
ATOM      8  O   LIG    1      -38.498  14.719 -45.813  0.00  0.00    -0.274 OA
ATOM      9  C   LIG    1      -38.932  15.853 -45.657  0.00  0.00    +0.234 C 
ATOM     10  C   LIG    1      -40.403  16.234 -45.547  0.00  0.00    +0.146 C 
ATOM     11  S   LIG    1      -40.391  18.040 -45.891  0.00  0.00    -0.054 S 
ATOM     12  C   LIG    1      -38.651  18.151 -45.817  0.00  0.00    +0.279 C 
ATOM     13  O   LIG    1      -38.024  19.176 -46.004  0.00  0.00    -0.263 OA
ATOM     14  N   LIG    1      -38.111  16.935 -45.582  0.00  0.00    -0.246 N 
ATOM     15  H   LIG    1      -37.114  16.817 -45.679  0.00  0.00    +0.158 HD
ENDBRANCH   7  10
ENDBRANCH   1   7
BRANCH   4  16
ATOM     16  O   LIG    1      -45.069  11.978 -43.997  0.00  0.00    -0.490 OA
BRANCH  16  17
ATOM     17  C   LIG    1      -46.183  12.263 -44.854  0.00  0.00    +0.248 C 
BRANCH  17  18
ATOM     18  C   LIG    1      -47.555  11.806 -44.380  0.00  0.00    +0.147 C 
BRANCH  18  19
ATOM     19  N   LIG    1      -48.000  12.375 -43.069  0.00  0.00    -0.315 N 
ATOM     20  C   LIG    1      -49.162  13.264 -43.217  0.00  0.00    +0.131 C 
BRANCH  19  21
ATOM     21  C   LIG    1      -48.107  11.587 -41.905  0.00  0.00    +0.121 A 
ATOM     22  C   LIG    1      -49.292  11.518 -41.165  0.00  0.00    +0.043 A 
ATOM     23  C   LIG    1      -49.395  10.720 -40.023  0.00  0.00    +0.005 A 
ATOM     24  C   LIG    1      -48.331   9.917 -39.669  0.00  0.00    +0.020 A 
ATOM     25  C   LIG    1      -47.211   9.965 -40.473  0.00  0.00    +0.113 A 
ATOM     26  N   LIG    1      -47.081  10.779 -41.550  0.00  0.00    -0.240 NA
ENDBRANCH  19  21
ENDBRANCH  18  19
ENDBRANCH  17  18
ENDBRANCH  16  17
ENDBRANCH   4  16
TORSDOF 7
ENDMDL
MODEL 2
REMARK VINA RESULT:      -7.9      2.004      2.636
REMARK  Name = 
REMARK                            x       y       z     vdW  Elec       q    Type
REMARK                         _______ _______ _______ _____ _____    ______ ____
ROOT
ATOM      1  C   LIG    1      -41.667  16.367 -45.142  0.00  0.00    -0.046 A 
ATOM      2  C   LIG    1      -42.629  15.597 -45.791  0.00  0.00    +0.007 A 
ATOM      3  C   LIG    1      -43.027  14.372 -45.270  0.00  0.00    +0.046 A 
ATOM      4  C   LIG    1      -42.446  13.847 -44.109  0.00  0.00    +0.121 A 
ATOM      5  C   LIG    1      -41.463  14.598 -43.467  0.00  0.00    +0.046 A 
ATOM      6  C   LIG    1      -41.079  15.853 -43.975  0.00  0.00    +0.007 A 
ENDROOT
BRANCH   1   7
ATOM      7  C   LIG    1      -41.285  17.710 -45.721  0.00  0.00    +0.059 C 
BRANCH   7  10
ATOM      8  O   LIG    1      -40.926  20.583 -44.203  0.00  0.00    -0.274 OA
ATOM      9  C   LIG    1      -40.234  19.925 -44.969  0.00  0.00    +0.234 C 
ATOM     10  C   LIG    1      -40.129  18.406 -44.987  0.00  0.00    +0.146 C 
ATOM     11  S   LIG    1      -38.578  18.108 -45.928  0.00  0.00    -0.054 S 
ATOM     12  C   LIG    1      -38.433  19.775 -46.424  0.00  0.00    +0.279 C 
ATOM     13  O   LIG    1      -37.518  20.211 -47.096  0.00  0.00    -0.263 OA
ATOM     14  N   LIG    1      -39.444  20.510 -45.908  0.00  0.00    -0.246 N 
ATOM     15  H   LIG    1      -39.397  21.515 -45.972  0.00  0.00    +0.158 HD
ENDBRANCH   7  10
ENDBRANCH   1   7
BRANCH   4  16
ATOM     16  O   LIG    1      -42.777  12.621 -43.555  0.00  0.00    -0.490 OA
BRANCH  16  17
ATOM     17  C   LIG    1      -44.181  12.351 -43.674  0.00  0.00    +0.248 C 
BRANCH  17  18
ATOM     18  C   LIG    1      -44.906  11.897 -42.416  0.00  0.00    +0.147 C 
BRANCH  18  19
ATOM     19  N   LIG    1      -46.119  11.051 -42.647  0.00  0.00    -0.315 N 
ATOM     20  C   LIG    1      -45.791   9.787 -43.324  0.00  0.00    +0.131 C 
BRANCH  19  21
ATOM     21  C   LIG    1      -47.101  10.858 -41.655  0.00  0.00    +0.121 A 
ATOM     22  C   LIG    1      -48.401  11.355 -41.796  0.00  0.00    +0.043 A 
ATOM     23  C   LIG    1      -49.374  11.144 -40.815  0.00  0.00    +0.005 A 
ATOM     24  C   LIG    1      -49.068  10.355 -39.727  0.00  0.00    +0.020 A 
ATOM     25  C   LIG    1      -47.795   9.827 -39.670  0.00  0.00    +0.113 A 
ATOM     26  N   LIG    1      -46.826  10.074 -40.588  0.00  0.00    -0.240 NA
ENDBRANCH  19  21
ENDBRANCH  18  19
ENDBRANCH  17  18
ENDBRANCH  16  17
ENDBRANCH   4  16
TORSDOF 7
ENDMDL
MODEL 3
REMARK VINA RESULT:      -7.8      1.321      1.982
REMARK  Name = 
REMARK                            x       y       z     vdW  Elec       q    Type
REMARK                         _______ _______ _______ _____ _____    ______ ____
ROOT
ATOM      1  C   LIG    1      -41.720  15.207 -44.202  0.00  0.00    -0.046 A 
ATOM      2  C   LIG    1      -41.696  14.369 -43.089  0.00  0.00    +0.007 A 
ATOM      3  C   LIG    1      -42.619  13.339 -42.957  0.00  0.00    +0.046 A 
ATOM      4  C   LIG    1      -43.630  13.137 -43.903  0.00  0.00    +0.121 A 
ATOM      5  C   LIG    1      -43.680  13.988 -45.007  0.00  0.00    +0.046 A 
ATOM      6  C   LIG    1      -42.728  15.012 -45.159  0.00  0.00    +0.007 A 
ENDROOT
BRANCH   1   7
ATOM      7  C   LIG    1      -40.677  16.294 -44.327  0.00  0.00    +0.059 C 
BRANCH   7  10
ATOM      8  O   LIG    1      -38.062  15.012 -45.811  0.00  0.00    -0.274 OA
ATOM      9  C   LIG    1      -38.570  16.126 -45.778  0.00  0.00    +0.234 C 
ATOM     10  C   LIG    1      -40.064  16.418 -45.730  0.00  0.00    +0.146 C 
ATOM     11  S   LIG    1      -40.160  18.178 -46.254  0.00  0.00    -0.054 S 
ATOM     12  C   LIG    1      -38.432  18.409 -46.165  0.00  0.00    +0.279 C 
ATOM     13  O   LIG    1      -37.867  19.449 -46.445  0.00  0.00    -0.263 OA
ATOM     14  N   LIG    1      -37.821  17.260 -45.800  0.00  0.00    -0.246 N 
ATOM     15  H   LIG    1      -36.817  17.199 -45.870  0.00  0.00    +0.158 HD
ENDBRANCH   7  10
ENDBRANCH   1   7
BRANCH   4  16
ATOM     16  O   LIG    1      -44.597  12.148 -43.815  0.00  0.00    -0.490 OA
BRANCH  16  17
ATOM     17  C   LIG    1      -44.891  11.818 -42.451  0.00  0.00    +0.248 C 
BRANCH  17  18
ATOM     18  C   LIG    1      -45.136  10.351 -42.133  0.00  0.00    +0.147 C 
BRANCH  18  19
ATOM     19  N   LIG    1      -46.562   9.907 -42.221  0.00  0.00    -0.315 N 
ATOM     20  C   LIG    1      -46.679   8.498 -42.629  0.00  0.00    +0.131 C 
BRANCH  19  21
ATOM     21  C   LIG    1      -47.513  10.231 -41.233  0.00  0.00    +0.121 A 
ATOM     22  C   LIG    1      -48.699  10.906 -41.541  0.00  0.00    +0.043 A 
ATOM     23  C   LIG    1      -49.645  11.208 -40.558  0.00  0.00    +0.005 A 
ATOM     24  C   LIG    1      -49.442  10.754 -39.272  0.00  0.00    +0.020 A 
ATOM     25  C   LIG    1      -48.293  10.030 -39.034  0.00  0.00    +0.113 A 
ATOM     26  N   LIG    1      -47.341   9.781 -39.968  0.00  0.00    -0.240 NA
ENDBRANCH  19  21
ENDBRANCH  18  19
ENDBRANCH  17  18
ENDBRANCH  16  17
ENDBRANCH   4  16
TORSDOF 7
ENDMDL
MODEL 4
REMARK VINA RESULT:      -7.7      2.130      3.283
REMARK  Name = 
REMARK                            x       y       z     vdW  Elec       q    Type
REMARK                         _______ _______ _______ _____ _____    ______ ____
ROOT
ATOM      1  C   LIG    1      -41.602  16.428 -45.131  0.00  0.00    -0.046 A 
ATOM      2  C   LIG    1      -40.994  16.029 -43.944  0.00  0.00    +0.007 A 
ATOM      3  C   LIG    1      -41.439  14.902 -43.262  0.00  0.00    +0.046 A 
ATOM      4  C   LIG    1      -42.538  14.161 -43.713  0.00  0.00    +0.121 A 
ATOM      5  C   LIG    1      -43.171  14.569 -44.886  0.00  0.00    +0.046 A 
ATOM      6  C   LIG    1      -42.703  15.691 -45.595  0.00  0.00    +0.007 A 
ENDROOT
BRANCH   1   7
ATOM      7  C   LIG    1      -41.067  17.638 -45.862  0.00  0.00    +0.059 C 
BRANCH   7  10
ATOM      8  O   LIG    1      -40.797  20.503 -44.309  0.00  0.00    -0.274 OA
ATOM      9  C   LIG    1      -40.088  19.878 -45.088  0.00  0.00    +0.234 C 
ATOM     10  C   LIG    1      -39.930  18.364 -45.126  0.00  0.00    +0.146 C 
ATOM     11  S   LIG    1      -38.377  18.132 -46.083  0.00  0.00    -0.054 S 
ATOM     12  C   LIG    1      -38.294  19.810 -46.557  0.00  0.00    +0.279 C 
ATOM     13  O   LIG    1      -37.399  20.285 -47.230  0.00  0.00    -0.263 OA
ATOM     14  N   LIG    1      -39.325  20.502 -46.025  0.00  0.00    -0.246 N 
ATOM     15  H   LIG    1      -39.314  21.509 -46.077  0.00  0.00    +0.158 HD
ENDBRANCH   7  10
ENDBRANCH   1   7
BRANCH   4  16
ATOM     16  O   LIG    1      -43.049  13.048 -43.066  0.00  0.00    -0.490 OA
BRANCH  16  17
ATOM     17  C   LIG    1      -43.818  12.228 -43.955  0.00  0.00    +0.248 C 
BRANCH  17  18
ATOM     18  C   LIG    1      -44.177  10.831 -43.471  0.00  0.00    +0.147 C 
BRANCH  18  19
ATOM     19  N   LIG    1      -45.583  10.399 -43.751  0.00  0.00    -0.315 N 
ATOM     20  C   LIG    1      -45.841   9.025 -43.294  0.00  0.00    +0.131 C 
BRANCH  19  21
ATOM     21  C   LIG    1      -46.689  11.236 -43.502  0.00  0.00    +0.121 A 
ATOM     22  C   LIG    1      -47.582  11.602 -44.515  0.00  0.00    +0.043 A 
ATOM     23  C   LIG    1      -48.687  12.417 -44.257  0.00  0.00    +0.005 A 
ATOM     24  C   LIG    1      -48.950  12.796 -42.957  0.00  0.00    +0.020 A 
ATOM     25  C   LIG    1      -48.081  12.349 -41.983  0.00  0.00    +0.113 A 
ATOM     26  N   LIG    1      -46.973  11.606 -42.232  0.00  0.00    -0.240 NA
ENDBRANCH  19  21
ENDBRANCH  18  19
ENDBRANCH  17  18
ENDBRANCH  16  17
ENDBRANCH   4  16
TORSDOF 7
ENDMDL
MODEL 5
REMARK VINA RESULT:      -7.6      4.201      6.305
REMARK  Name = 
REMARK                            x       y       z     vdW  Elec       q    Type
REMARK                         _______ _______ _______ _____ _____    ______ ____
ROOT
ATOM      1  C   LIG    1      -41.568  16.546 -45.174  0.00  0.00    -0.046 A 
ATOM      2  C   LIG    1      -40.927  16.101 -44.021  0.00  0.00    +0.007 A 
ATOM      3  C   LIG    1      -41.377  14.971 -43.349  0.00  0.00    +0.046 A 
ATOM      4  C   LIG    1      -42.514  14.273 -43.773  0.00  0.00    +0.121 A 
ATOM      5  C   LIG    1      -43.180  14.727 -44.911  0.00  0.00    +0.046 A 
ATOM      6  C   LIG    1      -42.708  15.852 -45.612  0.00  0.00    +0.007 A 
ENDROOT
BRANCH   1   7
ATOM      7  C   LIG    1      -41.027  17.758 -45.897  0.00  0.00    +0.059 C 
BRANCH   7  10
ATOM      8  O   LIG    1      -40.686  20.617 -44.348  0.00  0.00    -0.274 OA
ATOM      9  C   LIG    1      -39.995  19.977 -45.130  0.00  0.00    +0.234 C 
ATOM     10  C   LIG    1      -39.871  18.459 -45.168  0.00  0.00    +0.146 C 
ATOM     11  S   LIG    1      -38.328  18.194 -46.133  0.00  0.00    -0.054 S 
ATOM     12  C   LIG    1      -38.210  19.869 -46.609  0.00  0.00    +0.279 C 
ATOM     13  O   LIG    1      -37.309  20.324 -47.287  0.00  0.00    -0.263 OA
ATOM     14  N   LIG    1      -39.224  20.583 -46.072  0.00  0.00    -0.246 N 
ATOM     15  H   LIG    1      -39.191  21.590 -46.124  0.00  0.00    +0.158 HD
ENDBRANCH   7  10
ENDBRANCH   1   7
BRANCH   4  16
ATOM     16  O   LIG    1      -43.032  13.159 -43.132  0.00  0.00    -0.490 OA
BRANCH  16  17
ATOM     17  C   LIG    1      -43.329  12.108 -44.061  0.00  0.00    +0.248 C 
BRANCH  17  18
ATOM     18  C   LIG    1      -42.159  11.267 -44.551  0.00  0.00    +0.147 C 
BRANCH  18  19
ATOM     19  N   LIG    1      -41.781  11.471 -45.984  0.00  0.00    -0.315 N 
ATOM     20  C   LIG    1      -42.937  11.342 -46.885  0.00  0.00    +0.131 C 
BRANCH  19  21
ATOM     21  C   LIG    1      -40.930  12.516 -46.395  0.00  0.00    +0.121 A 
ATOM     22  C   LIG    1      -39.720  12.784 -45.744  0.00  0.00    +0.043 A 
ATOM     23  C   LIG    1      -38.873  13.811 -46.169  0.00  0.00    +0.005 A 
ATOM     24  C   LIG    1      -39.196  14.517 -47.308  0.00  0.00    +0.020 A 
ATOM     25  C   LIG    1      -40.362  14.166 -47.957  0.00  0.00    +0.113 A 
ATOM     26  N   LIG    1      -41.220  13.211 -47.520  0.00  0.00    -0.240 NA
ENDBRANCH  19  21
ENDBRANCH  18  19
ENDBRANCH  17  18
ENDBRANCH  16  17
ENDBRANCH   4  16
TORSDOF 7
ENDMDL
MODEL 6
REMARK VINA RESULT:      -7.3      2.006      3.170
REMARK  Name = 
REMARK                            x       y       z     vdW  Elec       q    Type
REMARK                         _______ _______ _______ _____ _____    ______ ____
ROOT
ATOM      1  C   LIG    1      -42.311  12.663 -43.960  0.00  0.00    -0.046 A 
ATOM      2  C   LIG    1      -43.495  12.698 -43.227  0.00  0.00    +0.007 A 
ATOM      3  C   LIG    1      -44.429  11.676 -43.338  0.00  0.00    +0.046 A 
ATOM      4  C   LIG    1      -44.242  10.606 -44.221  0.00  0.00    +0.121 A 
ATOM      5  C   LIG    1      -43.073  10.576 -44.980  0.00  0.00    +0.046 A 
ATOM      6  C   LIG    1      -42.110  11.593 -44.847  0.00  0.00    +0.007 A 
ENDROOT
BRANCH   1   7
ATOM      7  C   LIG    1      -41.303  13.776 -43.786  0.00  0.00    +0.059 C 
BRANCH   7  10
ATOM      8  O   LIG    1      -43.272  15.202 -45.973  0.00  0.00    -0.274 OA
ATOM      9  C   LIG    1      -42.250  15.539 -45.389  0.00  0.00    +0.234 C 
ATOM     10  C   LIG    1      -41.890  15.186 -43.953  0.00  0.00    +0.146 C 
ATOM     11  S   LIG    1      -40.584  16.412 -43.538  0.00  0.00    -0.054 S 
ATOM     12  C   LIG    1      -40.430  16.965 -45.187  0.00  0.00    +0.279 C 
ATOM     13  O   LIG    1      -39.677  17.851 -45.542  0.00  0.00    -0.263 OA
ATOM     14  N   LIG    1      -41.301  16.310 -45.986  0.00  0.00    -0.246 N 
ATOM     15  H   LIG    1      -41.442  16.642 -46.928  0.00  0.00    +0.158 HD
ENDBRANCH   7  10
ENDBRANCH   1   7
BRANCH   4  16
ATOM     16  O   LIG    1      -45.146   9.572 -44.400  0.00  0.00    -0.490 OA
BRANCH  16  17
ATOM     17  C   LIG    1      -45.423   8.895 -43.167  0.00  0.00    +0.248 C 
BRANCH  17  18
ATOM     18  C   LIG    1      -46.886   8.668 -42.817  0.00  0.00    +0.147 C 
BRANCH  18  19
ATOM     19  N   LIG    1      -47.510   9.726 -41.961  0.00  0.00    -0.315 N 
ATOM     20  C   LIG    1      -46.664  10.078 -40.811  0.00  0.00    +0.131 C 
BRANCH  19  21
ATOM     21  C   LIG    1      -48.126  10.870 -42.509  0.00  0.00    +0.121 A 
ATOM     22  C   LIG    1      -48.733  11.840 -41.704  0.00  0.00    +0.043 A 
ATOM     23  C   LIG    1      -49.326  12.979 -42.254  0.00  0.00    +0.005 A 
ATOM     24  C   LIG    1      -49.231  13.193 -43.613  0.00  0.00    +0.020 A 
ATOM     25  C   LIG    1      -48.558  12.245 -44.355  0.00  0.00    +0.113 A 
ATOM     26  N   LIG    1      -48.030  11.107 -43.838  0.00  0.00    -0.240 NA
ENDBRANCH  19  21
ENDBRANCH  18  19
ENDBRANCH  17  18
ENDBRANCH  16  17
ENDBRANCH   4  16
TORSDOF 7
ENDMDL
MODEL 7
REMARK VINA RESULT:      -7.3      7.374     11.896
REMARK  Name = 
REMARK                            x       y       z     vdW  Elec       q    Type
REMARK                         _______ _______ _______ _____ _____    ______ ____
ROOT
ATOM      1  C   LIG    1      -51.170   6.691 -46.454  0.00  0.00    -0.046 A 
ATOM      2  C   LIG    1      -50.362   5.857 -45.685  0.00  0.00    +0.007 A 
ATOM      3  C   LIG    1      -49.108   6.278 -45.260  0.00  0.00    +0.046 A 
ATOM      4  C   LIG    1      -48.592   7.526 -45.629  0.00  0.00    +0.121 A 
ATOM      5  C   LIG    1      -49.382   8.358 -46.422  0.00  0.00    +0.046 A 
ATOM      6  C   LIG    1      -50.665   7.947 -46.828  0.00  0.00    +0.007 A 
ENDROOT
BRANCH   1   7
ATOM      7  C   LIG    1      -52.542   6.211 -46.867  0.00  0.00    +0.059 C 
BRANCH   7  10
ATOM      8  O   LIG    1      -55.287   7.590 -47.988  0.00  0.00    -0.274 OA
ATOM      9  C   LIG    1      -54.518   6.737 -48.414  0.00  0.00    +0.234 C 
ATOM     10  C   LIG    1      -53.006   6.734 -48.235  0.00  0.00    +0.146 C 
ATOM     11  S   LIG    1      -52.436   5.561 -49.531  0.00  0.00    -0.054 S 
ATOM     12  C   LIG    1      -54.053   5.014 -49.897  0.00  0.00    +0.279 C 
ATOM     13  O   LIG    1      -54.318   4.194 -50.755  0.00  0.00    -0.263 OA
ATOM     14  N   LIG    1      -54.956   5.670 -49.135  0.00  0.00    -0.246 N 
ATOM     15  H   LIG    1      -55.936   5.578 -49.354  0.00  0.00    +0.158 HD
ENDBRANCH   7  10
ENDBRANCH   1   7
BRANCH   4  16
ATOM     16  O   LIG    1      -47.340   7.993 -45.264  0.00  0.00    -0.490 OA
BRANCH  16  17
ATOM     17  C   LIG    1      -47.385   8.708 -44.022  0.00  0.00    +0.248 C 
BRANCH  17  18
ATOM     18  C   LIG    1      -46.592  10.004 -43.941  0.00  0.00    +0.147 C 
BRANCH  18  19
ATOM     19  N   LIG    1      -46.308  10.494 -42.555  0.00  0.00    -0.315 N 
ATOM     20  C   LIG    1      -45.476  11.707 -42.556  0.00  0.00    +0.131 C 
BRANCH  19  21
ATOM     21  C   LIG    1      -47.306  10.561 -41.563  0.00  0.00    +0.121 A 
ATOM     22  C   LIG    1      -48.495  11.272 -41.757  0.00  0.00    +0.043 A 
ATOM     23  C   LIG    1      -49.487  11.319 -40.775  0.00  0.00    +0.005 A 
ATOM     24  C   LIG    1      -49.326  10.576 -39.624  0.00  0.00    +0.020 A 
ATOM     25  C   LIG    1      -48.169   9.834 -39.511  0.00  0.00    +0.113 A 
ATOM     26  N   LIG    1      -47.174   9.827 -40.433  0.00  0.00    -0.240 NA
ENDBRANCH  19  21
ENDBRANCH  18  19
ENDBRANCH  17  18
ENDBRANCH  16  17
ENDBRANCH   4  16
TORSDOF 7
ENDMDL
MODEL 8
REMARK VINA RESULT:      -7.2      2.122      2.694
REMARK  Name = 
REMARK                            x       y       z     vdW  Elec       q    Type
REMARK                         _______ _______ _______ _____ _____    ______ ____
ROOT
ATOM      1  C   LIG    1      -41.781  12.743 -44.250  0.00  0.00    -0.046 A 
ATOM      2  C   LIG    1      -42.656  13.326 -43.336  0.00  0.00    +0.007 A 
ATOM      3  C   LIG    1      -43.723  12.604 -42.815  0.00  0.00    +0.046 A 
ATOM      4  C   LIG    1      -43.986  11.291 -43.224  0.00  0.00    +0.121 A 
ATOM      5  C   LIG    1      -43.132  10.708 -44.159  0.00  0.00    +0.046 A 
ATOM      6  C   LIG    1      -42.032  11.426 -44.665  0.00  0.00    +0.007 A 
ENDROOT
BRANCH   1   7
ATOM      7  C   LIG    1      -40.611  13.550 -44.767  0.00  0.00    +0.059 C 
BRANCH   7  10
ATOM      8  O   LIG    1      -40.552  14.307 -47.947  0.00  0.00    -0.274 OA
ATOM      9  C   LIG    1      -40.275  14.907 -46.916  0.00  0.00    +0.234 C 
ATOM     10  C   LIG    1      -41.014  14.783 -45.590  0.00  0.00    +0.146 C 
ATOM     11  S   LIG    1      -40.487  16.290 -44.678  0.00  0.00    -0.054 S 
ATOM     12  C   LIG    1      -39.253  16.694 -45.845  0.00  0.00    +0.279 C 
ATOM     13  O   LIG    1      -38.542  17.678 -45.773  0.00  0.00    -0.263 OA
ATOM     14  N   LIG    1      -39.247  15.795 -46.855  0.00  0.00    -0.246 N 
ATOM     15  H   LIG    1      -38.703  15.994 -47.680  0.00  0.00    +0.158 HD
ENDBRANCH   7  10
ENDBRANCH   1   7
BRANCH   4  16
ATOM     16  O   LIG    1      -45.048  10.528 -42.767  0.00  0.00    -0.490 OA
BRANCH  16  17
ATOM     17  C   LIG    1      -45.387   9.488 -43.694  0.00  0.00    +0.248 C 
BRANCH  17  18
ATOM     18  C   LIG    1      -46.817   8.969 -43.657  0.00  0.00    +0.147 C 
BRANCH  18  19
ATOM     19  N   LIG    1      -47.210   8.268 -42.394  0.00  0.00    -0.315 N 
ATOM     20  C   LIG    1      -46.261   7.205 -42.032  0.00  0.00    +0.131 C 
BRANCH  19  21
ATOM     21  C   LIG    1      -47.651   8.968 -41.253  0.00  0.00    +0.121 A 
ATOM     22  C   LIG    1      -48.578  10.012 -41.338  0.00  0.00    +0.043 A 
ATOM     23  C   LIG    1      -49.023  10.689 -40.199  0.00  0.00    +0.005 A 
ATOM     24  C   LIG    1      -48.605  10.259 -38.958  0.00  0.00    +0.020 A 
ATOM     25  C   LIG    1      -47.748   9.178 -38.922  0.00  0.00    +0.113 A 
ATOM     26  N   LIG    1      -47.265   8.551 -40.024  0.00  0.00    -0.240 NA
ENDBRANCH  19  21
ENDBRANCH  18  19
ENDBRANCH  17  18
ENDBRANCH  16  17
ENDBRANCH   4  16
TORSDOF 7
ENDMDL
MODEL 9
REMARK VINA RESULT:      -7.2      7.408     11.354
REMARK  Name = 
REMARK                            x       y       z     vdW  Elec       q    Type
REMARK                         _______ _______ _______ _____ _____    ______ ____
ROOT
ATOM      1  C   LIG    1      -50.284   7.004 -46.196  0.00  0.00    -0.046 A 
ATOM      2  C   LIG    1      -49.694   8.157 -46.709  0.00  0.00    +0.007 A 
ATOM      3  C   LIG    1      -48.360   8.447 -46.451  0.00  0.00    +0.046 A 
ATOM      4  C   LIG    1      -47.578   7.625 -45.631  0.00  0.00    +0.121 A 
ATOM      5  C   LIG    1      -48.167   6.482 -45.089  0.00  0.00    +0.046 A 
ATOM      6  C   LIG    1      -49.509   6.170 -45.374  0.00  0.00    +0.007 A 
ENDROOT
BRANCH   1   7
ATOM      7  C   LIG    1      -51.728   6.705 -46.528  0.00  0.00    +0.059 C 
BRANCH   7  10
ATOM      8  O   LIG    1      -53.710   9.116 -47.500  0.00  0.00    -0.274 OA
ATOM      9  C   LIG    1      -53.527   7.959 -47.857  0.00  0.00    +0.234 C 
ATOM     10  C   LIG    1      -52.183   7.244 -47.892  0.00  0.00    +0.146 C 
ATOM     11  S   LIG    1      -52.503   5.816 -49.005  0.00  0.00    -0.054 S 
ATOM     12  C   LIG    1      -54.227   6.084 -49.030  0.00  0.00    +0.279 C 
ATOM     13  O   LIG    1      -55.013   5.412 -49.669  0.00  0.00    -0.263 OA
ATOM     14  N   LIG    1      -54.545   7.170 -48.291  0.00  0.00    -0.246 N 
ATOM     15  H   LIG    1      -55.481   7.542 -48.349  0.00  0.00    +0.158 HD
ENDBRANCH   7  10
ENDBRANCH   1   7
BRANCH   4  16
ATOM     16  O   LIG    1      -46.253   7.872 -45.311  0.00  0.00    -0.490 OA
BRANCH  16  17
ATOM     17  C   LIG    1      -46.024   7.774 -43.898  0.00  0.00    +0.248 C 
BRANCH  17  18
ATOM     18  C   LIG    1      -45.730   9.068 -43.155  0.00  0.00    +0.147 C 
BRANCH  18  19
ATOM     19  N   LIG    1      -46.866   9.615 -42.348  0.00  0.00    -0.315 N 
ATOM     20  C   LIG    1      -46.558   9.652 -40.911  0.00  0.00    +0.131 C 
BRANCH  19  21
ATOM     21  C   LIG    1      -47.586  10.760 -42.745  0.00  0.00    +0.121 A 
ATOM     22  C   LIG    1      -47.811  11.062 -44.092  0.00  0.00    +0.043 A 
ATOM     23  C   LIG    1      -48.541  12.190 -44.477  0.00  0.00    +0.005 A 
ATOM     24  C   LIG    1      -49.126  12.973 -43.503  0.00  0.00    +0.020 A 
ATOM     25  C   LIG    1      -48.937  12.591 -42.191  0.00  0.00    +0.113 A 
ATOM     26  N   LIG    1      -48.182  11.532 -41.806  0.00  0.00    -0.240 NA
ENDBRANCH  19  21
ENDBRANCH  18  19
ENDBRANCH  17  18
ENDBRANCH  16  17
ENDBRANCH   4  16
TORSDOF 7
ENDMDL
