MODEL 1
REMARK VINA RESULT:      -8.2      0.000      0.000
REMARK  Name = 
REMARK                            x       y       z     vdW  Elec       q    Type
REMARK                         _______ _______ _______ _____ _____    ______ ____
ROOT
ATOM      1  C   LIG    1       26.519 -27.078 -10.692  0.00  0.00    -0.046 A 
ATOM      2  C   LIG    1       27.070 -27.843 -11.717  0.00  0.00    +0.007 A 
ATOM      3  C   LIG    1       27.262 -29.210 -11.557  0.00  0.00    +0.046 A 
ATOM      4  C   LIG    1       26.959 -29.855 -10.352  0.00  0.00    +0.121 A 
ATOM      5  C   LIG    1       26.433 -29.092  -9.310  0.00  0.00    +0.046 A 
ATOM      6  C   LIG    1       26.208 -27.714  -9.480  0.00  0.00    +0.007 A 
ENDROOT
BRANCH   1   7
ATOM      7  C   LIG    1       26.293 -25.600 -10.917  0.00  0.00    +0.059 C 
BRANCH   7  10
ATOM      8  O   LIG    1       27.551 -25.258 -13.915  0.00  0.00    -0.274 OA
ATOM      9  C   LIG    1       26.725 -24.640 -13.255  0.00  0.00    +0.234 C 
ATOM     10  C   LIG    1       25.713 -25.256 -12.298  0.00  0.00    +0.146 C 
ATOM     11  S   LIG    1       24.470 -23.918 -12.090  0.00  0.00    -0.054 S 
ATOM     12  C   LIG    1       25.455 -22.730 -12.906  0.00  0.00    +0.279 C 
ATOM     13  O   LIG    1       25.113 -21.580 -13.104  0.00  0.00    -0.263 OA
ATOM     14  N   LIG    1       26.612 -23.287 -13.328  0.00  0.00    -0.246 N 
ATOM     15  H   LIG    1       27.202 -22.765 -13.957  0.00  0.00    +0.158 HD
ENDBRANCH   7  10
ENDBRANCH   1   7
BRANCH   4  16
ATOM     16  O   LIG    1       27.154 -31.207 -10.118  0.00  0.00    -0.490 OA
BRANCH  16  17
ATOM     17  C   LIG    1       25.909 -31.913 -10.040  0.00  0.00    +0.248 C 
BRANCH  17  18
ATOM     18  C   LIG    1       24.973 -31.798 -11.234  0.00  0.00    +0.147 C 
BRANCH  18  19
ATOM     19  N   LIG    1       23.636 -31.193 -10.943  0.00  0.00    -0.315 N 
ATOM     20  C   LIG    1       23.102 -31.629  -9.643  0.00  0.00    +0.131 C 
BRANCH  19  21
ATOM     21  C   LIG    1       23.362 -29.830 -11.174  0.00  0.00    +0.121 A 
ATOM     22  C   LIG    1       23.493 -29.254 -12.443  0.00  0.00    +0.043 A 
ATOM     23  C   LIG    1       23.203 -27.907 -12.668  0.00  0.00    +0.005 A 
ATOM     24  C   LIG    1       22.691 -27.150 -11.635  0.00  0.00    +0.020 A 
ATOM     25  C   LIG    1       22.510 -27.782 -10.422  0.00  0.00    +0.113 A 
ATOM     26  N   LIG    1       22.844 -29.075 -10.178  0.00  0.00    -0.240 NA
ENDBRANCH  19  21
ENDBRANCH  18  19
ENDBRANCH  17  18
ENDBRANCH  16  17
ENDBRANCH   4  16
TORSDOF 7
ENDMDL
MODEL 2
REMARK VINA RESULT:      -7.3      1.780      3.789
REMARK  Name = 
REMARK                            x       y       z     vdW  Elec       q    Type
REMARK                         _______ _______ _______ _____ _____    ______ ____
ROOT
ATOM      1  C   LIG    1       23.279 -26.390 -11.759  0.00  0.00    -0.046 A 
ATOM      2  C   LIG    1       23.045 -27.494 -12.575  0.00  0.00    +0.007 A 
ATOM      3  C   LIG    1       22.716 -28.727 -12.024  0.00  0.00    +0.046 A 
ATOM      4  C   LIG    1       22.658 -28.916 -10.638  0.00  0.00    +0.121 A 
ATOM      5  C   LIG    1       22.917 -27.823  -9.812  0.00  0.00    +0.046 A 
ATOM      6  C   LIG    1       23.220 -26.566 -10.367  0.00  0.00    +0.007 A 
ENDROOT
BRANCH   1   7
ATOM      7  C   LIG    1       23.600 -25.057 -12.397  0.00  0.00    +0.059 C 
BRANCH   7  10
ATOM      8  O   LIG    1       24.991 -22.125 -12.793  0.00  0.00    -0.274 OA
ATOM      9  C   LIG    1       25.413 -23.271 -12.706  0.00  0.00    +0.234 C 
ATOM     10  C   LIG    1       24.840 -24.364 -11.814  0.00  0.00    +0.146 C 
ATOM     11  S   LIG    1       26.207 -25.590 -11.729  0.00  0.00    -0.054 S 
ATOM     12  C   LIG    1       27.133 -24.804 -12.982  0.00  0.00    +0.279 C 
ATOM     13  O   LIG    1       28.224 -25.182 -13.364  0.00  0.00    -0.263 OA
ATOM     14  N   LIG    1       26.493 -23.696 -13.416  0.00  0.00    -0.246 N 
ATOM     15  H   LIG    1       26.985 -23.053 -14.017  0.00  0.00    +0.158 HD
ENDBRANCH   7  10
ENDBRANCH   1   7
BRANCH   4  16
ATOM     16  O   LIG    1       22.365 -30.124 -10.026  0.00  0.00    -0.490 OA
BRANCH  16  17
ATOM     17  C   LIG    1       23.157 -31.192 -10.562  0.00  0.00    +0.248 C 
BRANCH  17  18
ATOM     18  C   LIG    1       24.437 -31.544  -9.819  0.00  0.00    +0.147 C 
BRANCH  18  19
ATOM     19  N   LIG    1       25.706 -31.228 -10.548  0.00  0.00    -0.315 N 
ATOM     20  C   LIG    1       25.512 -31.186 -12.005  0.00  0.00    +0.131 C 
BRANCH  19  21
ATOM     21  C   LIG    1       26.584 -30.212 -10.121  0.00  0.00    +0.121 A 
ATOM     22  C   LIG    1       27.880 -30.090 -10.636  0.00  0.00    +0.043 A 
ATOM     23  C   LIG    1       28.738 -29.069 -10.221  0.00  0.00    +0.005 A 
ATOM     24  C   LIG    1       28.266 -28.110  -9.349  0.00  0.00    +0.020 A 
ATOM     25  C   LIG    1       26.958 -28.233  -8.926  0.00  0.00    +0.113 A 
ATOM     26  N   LIG    1       26.136 -29.253  -9.279  0.00  0.00    -0.240 NA
ENDBRANCH  19  21
ENDBRANCH  18  19
ENDBRANCH  17  18
ENDBRANCH  16  17
ENDBRANCH   4  16
TORSDOF 7
ENDMDL
MODEL 3
REMARK VINA RESULT:      -7.2      1.308      1.763
REMARK  Name = 
REMARK                            x       y       z     vdW  Elec       q    Type
REMARK                         _______ _______ _______ _____ _____    ______ ____
ROOT
ATOM      1  C   LIG    1       26.351 -27.418 -11.729  0.00  0.00    -0.046 A 
ATOM      2  C   LIG    1       26.013 -27.526 -10.382  0.00  0.00    +0.007 A 
ATOM      3  C   LIG    1       26.220 -28.714  -9.691  0.00  0.00    +0.046 A 
ATOM      4  C   LIG    1       26.724 -29.852 -10.330  0.00  0.00    +0.121 A 
ATOM      5  C   LIG    1       27.040 -29.763 -11.685  0.00  0.00    +0.046 A 
ATOM      6  C   LIG    1       26.861 -28.553 -12.379  0.00  0.00    +0.007 A 
ENDROOT
BRANCH   1   7
ATOM      7  C   LIG    1       26.143 -26.099 -12.437  0.00  0.00    +0.059 C 
BRANCH   7  10
ATOM      8  O   LIG    1       23.683 -24.860 -10.675  0.00  0.00    -0.274 OA
ATOM      9  C   LIG    1       24.563 -24.379 -11.378  0.00  0.00    +0.234 C 
ATOM     10  C   LIG    1       25.990 -24.897 -11.493  0.00  0.00    +0.146 C 
ATOM     11  S   LIG    1       26.892 -23.468 -12.218  0.00  0.00    -0.054 S 
ATOM     12  C   LIG    1       25.429 -22.582 -12.563  0.00  0.00    +0.279 C 
ATOM     13  O   LIG    1       25.404 -21.473 -13.061  0.00  0.00    -0.263 OA
ATOM     14  N   LIG    1       24.348 -23.278 -12.147  0.00  0.00    -0.246 N 
ATOM     15  H   LIG    1       23.450 -22.819 -12.129  0.00  0.00    +0.158 HD
ENDBRANCH   7  10
ENDBRANCH   1   7
BRANCH   4  16
ATOM     16  O   LIG    1       26.927 -31.073  -9.706  0.00  0.00    -0.490 OA
BRANCH  16  17
ATOM     17  C   LIG    1       25.726 -31.857  -9.681  0.00  0.00    +0.248 C 
BRANCH  17  18
ATOM     18  C   LIG    1       24.919 -31.926 -10.968  0.00  0.00    +0.147 C 
BRANCH  18  19
ATOM     19  N   LIG    1       23.540 -31.348 -10.889  0.00  0.00    -0.315 N 
ATOM     20  C   LIG    1       22.903 -31.611  -9.590  0.00  0.00    +0.131 C 
BRANCH  19  21
ATOM     21  C   LIG    1       23.243 -30.049 -11.349  0.00  0.00    +0.121 A 
ATOM     22  C   LIG    1       23.416 -29.681 -12.687  0.00  0.00    +0.043 A 
ATOM     23  C   LIG    1       23.102 -28.396 -13.138  0.00  0.00    +0.005 A 
ATOM     24  C   LIG    1       22.526 -27.501 -12.262  0.00  0.00    +0.020 A 
ATOM     25  C   LIG    1       22.307 -27.936 -10.971  0.00  0.00    +0.113 A 
ATOM     26  N   LIG    1       22.662 -29.161 -10.509  0.00  0.00    -0.240 NA
ENDBRANCH  19  21
ENDBRANCH  18  19
ENDBRANCH  17  18
ENDBRANCH  16  17
ENDBRANCH   4  16
TORSDOF 7
ENDMDL
MODEL 4
REMARK VINA RESULT:      -7.0      2.000      3.427
REMARK  Name = 
REMARK                            x       y       z     vdW  Elec       q    Type
REMARK                         _______ _______ _______ _____ _____    ______ ____
ROOT
ATOM      1  C   LIG    1       24.605 -27.404 -11.881  0.00  0.00    -0.046 A 
ATOM      2  C   LIG    1       24.321 -28.429 -12.780  0.00  0.00    +0.007 A 
ATOM      3  C   LIG    1       23.492 -29.483 -12.414  0.00  0.00    +0.046 A 
ATOM      4  C   LIG    1       22.957 -29.579 -11.124  0.00  0.00    +0.121 A 
ATOM      5  C   LIG    1       23.258 -28.572 -10.209  0.00  0.00    +0.046 A 
ATOM      6  C   LIG    1       24.072 -27.487 -10.586  0.00  0.00    +0.007 A 
ENDROOT
BRANCH   1   7
ATOM      7  C   LIG    1       25.482 -26.256 -12.328  0.00  0.00    +0.059 C 
BRANCH   7  10
ATOM      8  O   LIG    1       22.961 -24.499 -11.213  0.00  0.00    -0.274 OA
ATOM      9  C   LIG    1       24.050 -24.224 -11.702  0.00  0.00    +0.234 C 
ATOM     10  C   LIG    1       25.345 -24.990 -11.470  0.00  0.00    +0.146 C 
ATOM     11  S   LIG    1       26.636 -23.789 -11.993  0.00  0.00    -0.054 S 
ATOM     12  C   LIG    1       25.478 -22.684 -12.687  0.00  0.00    +0.279 C 
ATOM     13  O   LIG    1       25.771 -21.620 -13.199  0.00  0.00    -0.263 OA
ATOM     14  N   LIG    1       24.221 -23.153 -12.521  0.00  0.00    -0.246 N 
ATOM     15  H   LIG    1       23.444 -22.543 -12.723  0.00  0.00    +0.158 HD
ENDBRANCH   7  10
ENDBRANCH   1   7
BRANCH   4  16
ATOM     16  O   LIG    1       22.149 -30.617 -10.688  0.00  0.00    -0.490 OA
BRANCH  16  17
ATOM     17  C   LIG    1       22.921 -31.771 -10.330  0.00  0.00    +0.248 C 
BRANCH  17  18
ATOM     18  C   LIG    1       24.118 -31.547  -9.417  0.00  0.00    +0.147 C 
BRANCH  18  19
ATOM     19  N   LIG    1       25.455 -31.622 -10.086  0.00  0.00    -0.315 N 
ATOM     20  C   LIG    1       25.374 -32.247 -11.415  0.00  0.00    +0.131 C 
BRANCH  19  21
ATOM     21  C   LIG    1       26.357 -30.540 -10.085  0.00  0.00    +0.121 A 
ATOM     22  C   LIG    1       27.142 -30.231 -11.202  0.00  0.00    +0.043 A 
ATOM     23  C   LIG    1       28.022 -29.146 -11.199  0.00  0.00    +0.005 A 
ATOM     24  C   LIG    1       28.051 -28.310 -10.102  0.00  0.00    +0.020 A 
ATOM     25  C   LIG    1       27.205 -28.615  -9.056  0.00  0.00    +0.113 A 
ATOM     26  N   LIG    1       26.390 -29.699  -9.026  0.00  0.00    -0.240 NA
ENDBRANCH  19  21
ENDBRANCH  18  19
ENDBRANCH  17  18
ENDBRANCH  16  17
ENDBRANCH   4  16
TORSDOF 7
ENDMDL
MODEL 5
REMARK VINA RESULT:      -6.9      1.649      3.117
REMARK  Name = 
REMARK                            x       y       z     vdW  Elec       q    Type
REMARK                         _______ _______ _______ _____ _____    ______ ____
ROOT
ATOM      1  C   LIG    1       24.546 -26.970 -11.024  0.00  0.00    -0.046 A 
ATOM      2  C   LIG    1       24.582 -27.892 -12.067  0.00  0.00    +0.007 A 
ATOM      3  C   LIG    1       23.755 -29.009 -12.055  0.00  0.00    +0.046 A 
ATOM      4  C   LIG    1       22.899 -29.274 -10.980  0.00  0.00    +0.121 A 
ATOM      5  C   LIG    1       22.875 -28.370  -9.918  0.00  0.00    +0.046 A 
ATOM      6  C   LIG    1       23.688 -27.222  -9.942  0.00  0.00    +0.007 A 
ENDROOT
BRANCH   1   7
ATOM      7  C   LIG    1       25.435 -25.749 -11.090  0.00  0.00    +0.059 C 
BRANCH   7  10
ATOM      8  O   LIG    1       27.922 -24.974 -13.065  0.00  0.00    -0.274 OA
ATOM      9  C   LIG    1       26.874 -24.426 -12.750  0.00  0.00    +0.234 C 
ATOM     10  C   LIG    1       25.548 -25.129 -12.491  0.00  0.00    +0.146 C 
ATOM     11  S   LIG    1       24.322 -23.765 -12.625  0.00  0.00    -0.054 S 
ATOM     12  C   LIG    1       25.549 -22.524 -12.664  0.00  0.00    +0.279 C 
ATOM     13  O   LIG    1       25.314 -21.336 -12.777  0.00  0.00    -0.263 OA
ATOM     14  N   LIG    1       26.781 -23.077 -12.610  0.00  0.00    -0.246 N 
ATOM     15  H   LIG    1       27.584 -22.495 -12.792  0.00  0.00    +0.158 HD
ENDBRANCH   7  10
ENDBRANCH   1   7
BRANCH   4  16
ATOM     16  O   LIG    1       22.072 -30.382 -10.894  0.00  0.00    -0.490 OA
BRANCH  16  17
ATOM     17  C   LIG    1       22.805 -31.559 -10.526  0.00  0.00    +0.248 C 
BRANCH  17  18
ATOM     18  C   LIG    1       23.942 -31.382  -9.531  0.00  0.00    +0.147 C 
BRANCH  18  19
ATOM     19  N   LIG    1       25.318 -31.549 -10.096  0.00  0.00    -0.315 N 
ATOM     20  C   LIG    1       25.300 -32.206 -11.411  0.00  0.00    +0.131 C 
BRANCH  19  21
ATOM     21  C   LIG    1       26.277 -30.518 -10.054  0.00  0.00    +0.121 A 
ATOM     22  C   LIG    1       27.173 -30.297 -11.106  0.00  0.00    +0.043 A 
ATOM     23  C   LIG    1       28.109 -29.262 -11.064  0.00  0.00    +0.005 A 
ATOM     24  C   LIG    1       28.090 -28.384 -10.001  0.00  0.00    +0.020 A 
ATOM     25  C   LIG    1       27.140 -28.599  -9.024  0.00  0.00    +0.113 A 
ATOM     26  N   LIG    1       26.265 -29.636  -9.027  0.00  0.00    -0.240 NA
ENDBRANCH  19  21
ENDBRANCH  18  19
ENDBRANCH  17  18
ENDBRANCH  16  17
ENDBRANCH   4  16
TORSDOF 7
ENDMDL
MODEL 6
REMARK VINA RESULT:      -6.5      1.999      3.877
REMARK  Name = 
REMARK                            x       y       z     vdW  Elec       q    Type
REMARK                         _______ _______ _______ _____ _____    ______ ____
ROOT
ATOM      1  C   LIG    1       23.062 -26.990 -11.302  0.00  0.00    -0.046 A 
ATOM      2  C   LIG    1       23.138 -27.318  -9.951  0.00  0.00    +0.007 A 
ATOM      3  C   LIG    1       22.899 -28.618  -9.521  0.00  0.00    +0.046 A 
ATOM      4  C   LIG    1       22.528 -29.627 -10.417  0.00  0.00    +0.121 A 
ATOM      5  C   LIG    1       22.423 -29.303 -11.769  0.00  0.00    +0.046 A 
ATOM      6  C   LIG    1       22.694 -27.995 -12.211  0.00  0.00    +0.007 A 
ENDROOT
BRANCH   1   7
ATOM      7  C   LIG    1       23.363 -25.573 -11.734  0.00  0.00    +0.059 C 
BRANCH   7  10
ATOM      8  O   LIG    1       25.919 -27.460 -12.508  0.00  0.00    -0.274 OA
ATOM      9  C   LIG    1       25.763 -26.260 -12.323  0.00  0.00    +0.234 C 
ATOM     10  C   LIG    1       24.535 -25.453 -12.721  0.00  0.00    +0.146 C 
ATOM     11  S   LIG    1       25.148 -23.720 -12.687  0.00  0.00    -0.054 S 
ATOM     12  C   LIG    1       26.657 -24.156 -11.926  0.00  0.00    +0.279 C 
ATOM     13  O   LIG    1       27.541 -23.365 -11.659  0.00  0.00    -0.263 OA
ATOM     14  N   LIG    1       26.718 -25.492 -11.734  0.00  0.00    -0.246 N 
ATOM     15  H   LIG    1       27.596 -25.905 -11.458  0.00  0.00    +0.158 HD
ENDBRANCH   7  10
ENDBRANCH   1   7
BRANCH   4  16
ATOM     16  O   LIG    1       22.248 -30.934 -10.050  0.00  0.00    -0.490 OA
BRANCH  16  17
ATOM     17  C   LIG    1       23.305 -31.826 -10.430  0.00  0.00    +0.248 C 
BRANCH  17  18
ATOM     18  C   LIG    1       24.632 -31.674  -9.702  0.00  0.00    +0.147 C 
BRANCH  18  19
ATOM     19  N   LIG    1       25.793 -31.289 -10.564  0.00  0.00    -0.315 N 
ATOM     20  C   LIG    1       25.460 -31.336 -11.996  0.00  0.00    +0.131 C 
BRANCH  19  21
ATOM     21  C   LIG    1       26.613 -30.181 -10.269  0.00  0.00    +0.121 A 
ATOM     22  C   LIG    1       26.364 -29.348  -9.173  0.00  0.00    +0.043 A 
ATOM     23  C   LIG    1       27.192 -28.262  -8.877  0.00  0.00    +0.005 A 
ATOM     24  C   LIG    1       28.329 -28.062  -9.631  0.00  0.00    +0.020 A 
ATOM     25  C   LIG    1       28.571 -28.955 -10.654  0.00  0.00    +0.113 A 
ATOM     26  N   LIG    1       27.743 -29.977 -10.986  0.00  0.00    -0.240 NA
ENDBRANCH  19  21
ENDBRANCH  18  19
ENDBRANCH  17  18
ENDBRANCH  16  17
ENDBRANCH   4  16
TORSDOF 7
ENDMDL
MODEL 7
REMARK VINA RESULT:      -5.6      1.252      2.093
REMARK  Name = 
REMARK                            x       y       z     vdW  Elec       q    Type
REMARK                         _______ _______ _______ _____ _____    ______ ____
ROOT
ATOM      1  C   LIG    1       25.012 -26.418 -11.515  0.00  0.00    -0.046 A 
ATOM      2  C   LIG    1       25.417 -26.917 -10.279  0.00  0.00    +0.007 A 
ATOM      3  C   LIG    1       26.126 -28.109 -10.194  0.00  0.00    +0.046 A 
ATOM      4  C   LIG    1       26.415 -28.872 -11.331  0.00  0.00    +0.121 A 
ATOM      5  C   LIG    1       25.990 -28.395 -12.571  0.00  0.00    +0.046 A 
ATOM      6  C   LIG    1       25.298 -27.172 -12.664  0.00  0.00    +0.007 A 
ENDROOT
BRANCH   1   7
ATOM      7  C   LIG    1       24.273 -25.100 -11.570  0.00  0.00    +0.059 C 
BRANCH   7  10
ATOM      8  O   LIG    1       24.474 -22.582 -13.645  0.00  0.00    -0.274 OA
ATOM      9  C   LIG    1       25.291 -23.316 -13.105  0.00  0.00    +0.234 C 
ATOM     10  C   LIG    1       25.187 -23.872 -11.691  0.00  0.00    +0.146 C 
ATOM     11  S   LIG    1       26.912 -24.390 -11.321  0.00  0.00    -0.054 S 
ATOM     12  C   LIG    1       27.446 -24.165 -12.967  0.00  0.00    +0.279 C 
ATOM     13  O   LIG    1       28.588 -24.346 -13.344  0.00  0.00    -0.263 OA
ATOM     14  N   LIG    1       26.430 -23.712 -13.734  0.00  0.00    -0.246 N 
ATOM     15  H   LIG    1       26.633 -23.380 -14.664  0.00  0.00    +0.158 HD
ENDBRANCH   7  10
ENDBRANCH   1   7
BRANCH   4  16
ATOM     16  O   LIG    1       27.091 -30.081 -11.311  0.00  0.00    -0.490 OA
BRANCH  16  17
ATOM     17  C   LIG    1       26.319 -31.107 -10.672  0.00  0.00    +0.248 C 
BRANCH  17  18
ATOM     18  C   LIG    1       25.095 -31.616 -11.419  0.00  0.00    +0.147 C 
BRANCH  18  19
ATOM     19  N   LIG    1       23.782 -31.345 -10.753  0.00  0.00    -0.315 N 
ATOM     20  C   LIG    1       23.761 -31.812  -9.359  0.00  0.00    +0.131 C 
BRANCH  19  21
ATOM     21  C   LIG    1       23.112 -30.112 -10.887  0.00  0.00    +0.121 A 
ATOM     22  C   LIG    1       22.601 -29.678 -12.115  0.00  0.00    +0.043 A 
ATOM     23  C   LIG    1       21.923 -28.463 -12.236  0.00  0.00    +0.005 A 
ATOM     24  C   LIG    1       21.676 -27.717 -11.102  0.00  0.00    +0.020 A 
ATOM     25  C   LIG    1       22.136 -28.224  -9.904  0.00  0.00    +0.113 A 
ATOM     26  N   LIG    1       22.846 -29.374  -9.785  0.00  0.00    -0.240 NA
ENDBRANCH  19  21
ENDBRANCH  18  19
ENDBRANCH  17  18
ENDBRANCH  16  17
ENDBRANCH   4  16
TORSDOF 7
ENDMDL
MODEL 8
REMARK VINA RESULT:      -5.6      2.659      6.555
REMARK  Name = 
REMARK                            x       y       z     vdW  Elec       q    Type
REMARK                         _______ _______ _______ _____ _____    ______ ____
ROOT
ATOM      1  C   LIG    1       22.787 -29.797 -10.696  0.00  0.00    -0.046 A 
ATOM      2  C   LIG    1       22.880 -29.732 -12.084  0.00  0.00    +0.007 A 
ATOM      3  C   LIG    1       22.837 -28.508 -12.741  0.00  0.00    +0.046 A 
ATOM      4  C   LIG    1       22.649 -27.310 -12.043  0.00  0.00    +0.121 A 
ATOM      5  C   LIG    1       22.527 -27.367 -10.655  0.00  0.00    +0.046 A 
ATOM      6  C   LIG    1       22.602 -28.602  -9.984  0.00  0.00    +0.007 A 
ENDROOT
BRANCH   1   7
ATOM      7  C   LIG    1       22.873 -31.145 -10.016  0.00  0.00    +0.059 C 
BRANCH   7  10
ATOM      8  O   LIG    1       25.323 -30.001  -8.177  0.00  0.00    -0.274 OA
ATOM      9  C   LIG    1       25.245 -30.484  -9.299  0.00  0.00    +0.234 C 
ATOM     10  C   LIG    1       24.307 -31.608  -9.719  0.00  0.00    +0.146 C 
ATOM     11  S   LIG    1       25.059 -32.213 -11.284  0.00  0.00    -0.054 S 
ATOM     12  C   LIG    1       26.182 -30.881 -11.385  0.00  0.00    +0.279 C 
ATOM     13  O   LIG    1       27.011 -30.751 -12.265  0.00  0.00    -0.263 OA
ATOM     14  N   LIG    1       26.034 -30.058 -10.322  0.00  0.00    -0.246 N 
ATOM     15  H   LIG    1       26.724 -29.342 -10.161  0.00  0.00    +0.158 HD
ENDBRANCH   7  10
ENDBRANCH   1   7
BRANCH   4  16
ATOM     16  O   LIG    1       22.568 -26.061 -12.639  0.00  0.00    -0.490 OA
BRANCH  16  17
ATOM     17  C   LIG    1       22.471 -25.016 -11.663  0.00  0.00    +0.248 C 
BRANCH  17  18
ATOM     18  C   LIG    1       23.558 -23.951 -11.680  0.00  0.00    +0.147 C 
BRANCH  18  19
ATOM     19  N   LIG    1       24.816 -24.334 -12.395  0.00  0.00    -0.315 N 
ATOM     20  C   LIG    1       25.574 -23.158 -12.848  0.00  0.00    +0.131 C 
BRANCH  19  21
ATOM     21  C   LIG    1       25.676 -25.341 -11.914  0.00  0.00    +0.121 A 
ATOM     22  C   LIG    1       25.820 -25.600 -10.547  0.00  0.00    +0.043 A 
ATOM     23  C   LIG    1       26.662 -26.613 -10.079  0.00  0.00    +0.005 A 
ATOM     24  C   LIG    1       27.296 -27.431 -10.991  0.00  0.00    +0.020 A 
ATOM     25  C   LIG    1       27.064 -27.182 -12.328  0.00  0.00    +0.113 A 
ATOM     26  N   LIG    1       26.295 -26.165 -12.792  0.00  0.00    -0.240 NA
ENDBRANCH  19  21
ENDBRANCH  18  19
ENDBRANCH  17  18
ENDBRANCH  16  17
ENDBRANCH   4  16
TORSDOF 7
ENDMDL
MODEL 9
REMARK VINA RESULT:      -5.4      2.589      4.824
REMARK  Name = 
REMARK                            x       y       z     vdW  Elec       q    Type
REMARK                         _______ _______ _______ _____ _____    ______ ____
ROOT
ATOM      1  C   LIG    1       24.004 -30.634 -10.682  0.00  0.00    -0.046 A 
ATOM      2  C   LIG    1       24.895 -30.849 -11.730  0.00  0.00    +0.007 A 
ATOM      3  C   LIG    1       26.266 -30.765 -11.525  0.00  0.00    +0.046 A 
ATOM      4  C   LIG    1       26.798 -30.415 -10.278  0.00  0.00    +0.121 A 
ATOM      5  C   LIG    1       25.914 -30.170  -9.229  0.00  0.00    +0.046 A 
ATOM      6  C   LIG    1       24.525 -30.284  -9.426  0.00  0.00    +0.007 A 
ENDROOT
BRANCH   1   7
ATOM      7  C   LIG    1       22.520 -30.769 -10.937  0.00  0.00    +0.059 C 
BRANCH   7  10
ATOM      8  O   LIG    1       22.742 -28.823 -13.555  0.00  0.00    -0.274 OA
ATOM      9  C   LIG    1       22.658 -28.632 -12.349  0.00  0.00    +0.234 C 
ATOM     10  C   LIG    1       21.836 -29.464 -11.373  0.00  0.00    +0.146 C 
ATOM     11  S   LIG    1       21.693 -28.363  -9.908  0.00  0.00    -0.054 S 
ATOM     12  C   LIG    1       22.859 -27.218 -10.520  0.00  0.00    +0.279 C 
ATOM     13  O   LIG    1       23.177 -26.195  -9.945  0.00  0.00    -0.263 OA
ATOM     14  N   LIG    1       23.305 -27.605 -11.736  0.00  0.00    -0.246 N 
ATOM     15  H   LIG    1       23.854 -26.958 -12.281  0.00  0.00    +0.158 HD
ENDBRANCH   7  10
ENDBRANCH   1   7
BRANCH   4  16
ATOM     16  O   LIG    1       28.153 -30.285 -10.015  0.00  0.00    -0.490 OA
BRANCH  16  17
ATOM     17  C   LIG    1       28.577 -28.918 -10.095  0.00  0.00    +0.248 C 
BRANCH  17  18
ATOM     18  C   LIG    1       27.998 -28.080 -11.225  0.00  0.00    +0.147 C 
BRANCH  18  19
ATOM     19  N   LIG    1       26.920 -27.122 -10.823  0.00  0.00    -0.315 N 
ATOM     20  C   LIG    1       26.936 -26.845  -9.379  0.00  0.00    +0.131 C 
BRANCH  19  21
ATOM     21  C   LIG    1       26.637 -25.956 -11.562  0.00  0.00    +0.121 A 
ATOM     22  C   LIG    1       27.297 -25.662 -12.760  0.00  0.00    +0.043 A 
ATOM     23  C   LIG    1       26.998 -24.512 -13.496  0.00  0.00    +0.005 A 
ATOM     24  C   LIG    1       25.968 -23.697 -13.076  0.00  0.00    +0.020 A 
ATOM     25  C   LIG    1       25.298 -24.070 -11.929  0.00  0.00    +0.113 A 
ATOM     26  N   LIG    1       25.619 -25.152 -11.176  0.00  0.00    -0.240 NA
ENDBRANCH  19  21
ENDBRANCH  18  19
ENDBRANCH  17  18
ENDBRANCH  16  17
ENDBRANCH   4  16
TORSDOF 7
ENDMDL
