MODEL 1
REMARK VINA RESULT:      -8.1      0.000      0.000
REMARK  Name = 
REMARK                            x       y       z     vdW  Elec       q    Type
REMARK                         _______ _______ _______ _____ _____    ______ ____
ROOT
ATOM      1  C   LIG    1       20.393  49.102  16.659  0.00  0.00    -0.046 A 
ATOM      2  C   LIG    1       19.343  49.990  16.443  0.00  0.00    +0.007 A 
ATOM      3  C   LIG    1       18.367  50.185  17.413  0.00  0.00    +0.046 A 
ATOM      4  C   LIG    1       18.375  49.464  18.613  0.00  0.00    +0.121 A 
ATOM      5  C   LIG    1       19.407  48.552  18.828  0.00  0.00    +0.046 A 
ATOM      6  C   LIG    1       20.414  48.376  17.861  0.00  0.00    +0.007 A 
ENDROOT
BRANCH   1   7
ATOM      7  C   LIG    1       21.455  48.944  15.595  0.00  0.00    +0.059 C 
BRANCH   7  10
ATOM      8  O   LIG    1       21.660  46.908  13.044  0.00  0.00    -0.274 OA
ATOM      9  C   LIG    1       21.730  48.123  13.181  0.00  0.00    +0.234 C 
ATOM     10  C   LIG    1       20.911  48.956  14.158  0.00  0.00    +0.146 C 
ATOM     11  S   LIG    1       21.072  50.660  13.488  0.00  0.00    -0.054 S 
ATOM     12  C   LIG    1       22.310  50.208  12.345  0.00  0.00    +0.279 C 
ATOM     13  O   LIG    1       22.822  50.977  11.553  0.00  0.00    -0.263 OA
ATOM     14  N   LIG    1       22.570  48.884  12.430  0.00  0.00    -0.246 N 
ATOM     15  H   LIG    1       23.140  48.453  11.719  0.00  0.00    +0.158 HD
ENDBRANCH   7  10
ENDBRANCH   1   7
BRANCH   4  16
ATOM     16  O   LIG    1       17.417  49.589  19.606  0.00  0.00    -0.490 OA
BRANCH  16  17
ATOM     17  C   LIG    1       16.624  48.401  19.727  0.00  0.00    +0.248 C 
BRANCH  17  18
ATOM     18  C   LIG    1       15.904  47.921  18.475  0.00  0.00    +0.147 C 
BRANCH  18  19
ATOM     19  N   LIG    1       16.750  47.157  17.505  0.00  0.00    -0.315 N 
ATOM     20  C   LIG    1       17.305  45.931  18.098  0.00  0.00    +0.131 C 
BRANCH  19  21
ATOM     21  C   LIG    1       16.354  46.943  16.170  0.00  0.00    +0.121 A 
ATOM     22  C   LIG    1       16.455  47.945  15.198  0.00  0.00    +0.043 A 
ATOM     23  C   LIG    1       16.076  47.718  13.872  0.00  0.00    +0.005 A 
ATOM     24  C   LIG    1       15.677  46.453  13.497  0.00  0.00    +0.020 A 
ATOM     25  C   LIG    1       15.664  45.481  14.475  0.00  0.00    +0.113 A 
ATOM     26  N   LIG    1       15.974  45.705  15.777  0.00  0.00    -0.240 NA
ENDBRANCH  19  21
ENDBRANCH  18  19
ENDBRANCH  17  18
ENDBRANCH  16  17
ENDBRANCH   4  16
TORSDOF 7
ENDMDL
MODEL 2
REMARK VINA RESULT:      -7.6      1.986      3.863
REMARK  Name = 
REMARK                            x       y       z     vdW  Elec       q    Type
REMARK                         _______ _______ _______ _____ _____    ______ ____
ROOT
ATOM      1  C   LIG    1       18.877  48.473  14.486  0.00  0.00    -0.046 A 
ATOM      2  C   LIG    1       19.362  47.239  14.912  0.00  0.00    +0.007 A 
ATOM      3  C   LIG    1       18.490  46.238  15.325  0.00  0.00    +0.046 A 
ATOM      4  C   LIG    1       17.107  46.448  15.375  0.00  0.00    +0.121 A 
ATOM      5  C   LIG    1       16.614  47.690  14.976  0.00  0.00    +0.046 A 
ATOM      6  C   LIG    1       17.491  48.695  14.528  0.00  0.00    +0.007 A 
ENDROOT
BRANCH   1   7
ATOM      7  C   LIG    1       19.854  49.524  14.011  0.00  0.00    +0.059 C 
BRANCH   7  10
ATOM      8  O   LIG    1       22.471  48.642  15.761  0.00  0.00    -0.274 OA
ATOM      9  C   LIG    1       22.304  49.271  14.724  0.00  0.00    +0.234 C 
ATOM     10  C   LIG    1       21.248  48.977  13.668  0.00  0.00    +0.146 C 
ATOM     11  S   LIG    1       21.877  49.873  12.191  0.00  0.00    -0.054 S 
ATOM     12  C   LIG    1       23.118  50.705  13.092  0.00  0.00    +0.279 C 
ATOM     13  O   LIG    1       23.921  51.474  12.599  0.00  0.00    -0.263 OA
ATOM     14  N   LIG    1       23.090  50.329  14.390  0.00  0.00    -0.246 N 
ATOM     15  H   LIG    1       23.852  50.601  14.992  0.00  0.00    +0.158 HD
ENDBRANCH   7  10
ENDBRANCH   1   7
BRANCH   4  16
ATOM     16  O   LIG    1       16.188  45.504  15.803  0.00  0.00    -0.490 OA
BRANCH  16  17
ATOM     17  C   LIG    1       15.437  45.973  16.931  0.00  0.00    +0.248 C 
BRANCH  17  18
ATOM     18  C   LIG    1       16.217  46.294  18.196  0.00  0.00    +0.147 C 
BRANCH  18  19
ATOM     19  N   LIG    1       16.382  47.752  18.492  0.00  0.00    -0.315 N 
ATOM     20  C   LIG    1       15.746  48.135  19.762  0.00  0.00    +0.131 C 
BRANCH  19  21
ATOM     21  C   LIG    1       17.610  48.421  18.316  0.00  0.00    +0.121 A 
ATOM     22  C   LIG    1       18.837  47.776  18.509  0.00  0.00    +0.043 A 
ATOM     23  C   LIG    1       20.050  48.441  18.315  0.00  0.00    +0.005 A 
ATOM     24  C   LIG    1       20.036  49.735  17.838  0.00  0.00    +0.020 A 
ATOM     25  C   LIG    1       18.803  50.302  17.593  0.00  0.00    +0.113 A 
ATOM     26  N   LIG    1       17.618  49.685  17.834  0.00  0.00    -0.240 NA
ENDBRANCH  19  21
ENDBRANCH  18  19
ENDBRANCH  17  18
ENDBRANCH  16  17
ENDBRANCH   4  16
TORSDOF 7
ENDMDL
MODEL 3
REMARK VINA RESULT:      -6.8      2.134      3.753
REMARK  Name = 
REMARK                            x       y       z     vdW  Elec       q    Type
REMARK                         _______ _______ _______ _____ _____    ______ ____
ROOT
ATOM      1  C   LIG    1       18.853  48.685  14.395  0.00  0.00    -0.046 A 
ATOM      2  C   LIG    1       17.506  49.004  14.241  0.00  0.00    +0.007 A 
ATOM      3  C   LIG    1       16.516  48.089  14.581  0.00  0.00    +0.046 A 
ATOM      4  C   LIG    1       16.834  46.805  15.038  0.00  0.00    +0.121 A 
ATOM      5  C   LIG    1       18.180  46.466  15.170  0.00  0.00    +0.046 A 
ATOM      6  C   LIG    1       19.184  47.401  14.857  0.00  0.00    +0.007 A 
ENDROOT
BRANCH   1   7
ATOM      7  C   LIG    1       19.899  49.719  14.048  0.00  0.00    +0.059 C 
BRANCH   7  10
ATOM      8  O   LIG    1       22.521  48.677  15.699  0.00  0.00    -0.274 OA
ATOM      9  C   LIG    1       22.354  49.345  14.687  0.00  0.00    +0.234 C 
ATOM     10  C   LIG    1       21.260  49.128  13.650  0.00  0.00    +0.146 C 
ATOM     11  S   LIG    1       21.887  50.045  12.186  0.00  0.00    -0.054 S 
ATOM     12  C   LIG    1       23.184  50.798  13.080  0.00  0.00    +0.279 C 
ATOM     13  O   LIG    1       24.004  51.550  12.589  0.00  0.00    -0.263 OA
ATOM     14  N   LIG    1       23.173  50.382  14.365  0.00  0.00    -0.246 N 
ATOM     15  H   LIG    1       23.960  50.603  14.955  0.00  0.00    +0.158 HD
ENDBRANCH   7  10
ENDBRANCH   1   7
BRANCH   4  16
ATOM     16  O   LIG    1       15.897  45.838  15.366  0.00  0.00    -0.490 OA
BRANCH  16  17
ATOM     17  C   LIG    1       16.081  45.357  16.704  0.00  0.00    +0.248 C 
BRANCH  17  18
ATOM     18  C   LIG    1       15.560  46.234  17.832  0.00  0.00    +0.147 C 
BRANCH  18  19
ATOM     19  N   LIG    1       16.613  46.862  18.691  0.00  0.00    -0.315 N 
ATOM     20  C   LIG    1       17.910  46.182  18.564  0.00  0.00    +0.131 C 
BRANCH  19  21
ATOM     21  C   LIG    1       16.777  48.259  18.778  0.00  0.00    +0.121 A 
ATOM     22  C   LIG    1       17.611  48.962  17.901  0.00  0.00    +0.043 A 
ATOM     23  C   LIG    1       17.754  50.349  17.982  0.00  0.00    +0.005 A 
ATOM     24  C   LIG    1       16.989  51.050  18.891  0.00  0.00    +0.020 A 
ATOM     25  C   LIG    1       16.127  50.319  19.683  0.00  0.00    +0.113 A 
ATOM     26  N   LIG    1       16.024  48.967  19.651  0.00  0.00    -0.240 NA
ENDBRANCH  19  21
ENDBRANCH  18  19
ENDBRANCH  17  18
ENDBRANCH  16  17
ENDBRANCH   4  16
TORSDOF 7
ENDMDL
MODEL 4
REMARK VINA RESULT:      -6.5      1.391      2.120
REMARK  Name = 
REMARK                            x       y       z     vdW  Elec       q    Type
REMARK                         _______ _______ _______ _____ _____    ______ ____
ROOT
ATOM      1  C   LIG    1       19.667  49.104  16.135  0.00  0.00    -0.046 A 
ATOM      2  C   LIG    1       20.040  49.634  17.368  0.00  0.00    +0.007 A 
ATOM      3  C   LIG    1       19.107  50.268  18.180  0.00  0.00    +0.046 A 
ATOM      4  C   LIG    1       17.780  50.440  17.772  0.00  0.00    +0.121 A 
ATOM      5  C   LIG    1       17.402  49.937  16.527  0.00  0.00    +0.046 A 
ATOM      6  C   LIG    1       18.337  49.268  15.716  0.00  0.00    +0.007 A 
ENDROOT
BRANCH   1   7
ATOM      7  C   LIG    1       20.703  48.392  15.296  0.00  0.00    +0.059 C 
BRANCH   7  10
ATOM      8  O   LIG    1       21.883  47.062  12.553  0.00  0.00    -0.274 OA
ATOM      9  C   LIG    1       21.839  48.198  13.005  0.00  0.00    +0.234 C 
ATOM     10  C   LIG    1       20.690  48.789  13.812  0.00  0.00    +0.146 C 
ATOM     11  S   LIG    1       20.986  50.600  13.691  0.00  0.00    -0.054 S 
ATOM     12  C   LIG    1       22.565  50.402  12.975  0.00  0.00    +0.279 C 
ATOM     13  O   LIG    1       23.279  51.325  12.631  0.00  0.00    -0.263 OA
ATOM     14  N   LIG    1       22.847  49.091  12.810  0.00  0.00    -0.246 N 
ATOM     15  H   LIG    1       23.650  48.831  12.259  0.00  0.00    +0.158 HD
ENDBRANCH   7  10
ENDBRANCH   1   7
BRANCH   4  16
ATOM     16  O   LIG    1       16.809  51.086  18.520  0.00  0.00    -0.490 OA
BRANCH  16  17
ATOM     17  C   LIG    1       16.585  50.428  19.774  0.00  0.00    +0.248 C 
BRANCH  17  18
ATOM     18  C   LIG    1       17.225  49.060  19.961  0.00  0.00    +0.147 C 
BRANCH  18  19
ATOM     19  N   LIG    1       16.400  47.900  19.497  0.00  0.00    -0.315 N 
ATOM     20  C   LIG    1       14.958  48.153  19.642  0.00  0.00    +0.131 C 
BRANCH  19  21
ATOM     21  C   LIG    1       16.678  47.211  18.300  0.00  0.00    +0.121 A 
ATOM     22  C   LIG    1       17.886  46.533  18.100  0.00  0.00    +0.043 A 
ATOM     23  C   LIG    1       18.147  45.838  16.917  0.00  0.00    +0.005 A 
ATOM     24  C   LIG    1       17.156  45.745  15.963  0.00  0.00    +0.020 A 
ATOM     25  C   LIG    1       15.957  46.367  16.238  0.00  0.00    +0.113 A 
ATOM     26  N   LIG    1       15.714  47.094  17.358  0.00  0.00    -0.240 NA
ENDBRANCH  19  21
ENDBRANCH  18  19
ENDBRANCH  17  18
ENDBRANCH  16  17
ENDBRANCH   4  16
TORSDOF 7
ENDMDL
MODEL 5
REMARK VINA RESULT:      -6.2      1.722      2.425
REMARK  Name = 
REMARK                            x       y       z     vdW  Elec       q    Type
REMARK                         _______ _______ _______ _____ _____    ______ ____
ROOT
ATOM      1  C   LIG    1       20.464  49.462  17.387  0.00  0.00    -0.046 A 
ATOM      2  C   LIG    1       20.420  48.321  18.185  0.00  0.00    +0.007 A 
ATOM      3  C   LIG    1       19.272  47.998  18.898  0.00  0.00    +0.046 A 
ATOM      4  C   LIG    1       18.143  48.825  18.881  0.00  0.00    +0.121 A 
ATOM      5  C   LIG    1       18.187  49.984  18.106  0.00  0.00    +0.046 A 
ATOM      6  C   LIG    1       19.337  50.298  17.358  0.00  0.00    +0.007 A 
ENDROOT
BRANCH   1   7
ATOM      7  C   LIG    1       21.719  49.761  16.599  0.00  0.00    +0.059 C 
BRANCH   7  10
ATOM      8  O   LIG    1       20.080  50.807  13.971  0.00  0.00    -0.274 OA
ATOM      9  C   LIG    1       20.352  49.705  14.430  0.00  0.00    +0.234 C 
ATOM     10  C   LIG    1       21.654  49.330  15.126  0.00  0.00    +0.146 C 
ATOM     11  S   LIG    1       21.648  47.493  15.056  0.00  0.00    -0.054 S 
ATOM     12  C   LIG    1       19.996  47.414  14.498  0.00  0.00    +0.279 C 
ATOM     13  O   LIG    1       19.412  46.379  14.237  0.00  0.00    -0.263 OA
ATOM     14  N   LIG    1       19.489  48.657  14.346  0.00  0.00    -0.246 N 
ATOM     15  H   LIG    1       18.606  48.769  13.874  0.00  0.00    +0.158 HD
ENDBRANCH   7  10
ENDBRANCH   1   7
BRANCH   4  16
ATOM     16  O   LIG    1       16.980  48.576  19.591  0.00  0.00    -0.490 OA
BRANCH  16  17
ATOM     17  C   LIG    1       16.359  47.353  19.171  0.00  0.00    +0.248 C 
BRANCH  17  18
ATOM     18  C   LIG    1       15.706  47.345  17.797  0.00  0.00    +0.147 C 
BRANCH  18  19
ATOM     19  N   LIG    1       16.583  46.883  16.676  0.00  0.00    -0.315 N 
ATOM     20  C   LIG    1       17.407  45.726  17.057  0.00  0.00    +0.131 C 
BRANCH  19  21
ATOM     21  C   LIG    1       16.110  46.758  15.354  0.00  0.00    +0.121 A 
ATOM     22  C   LIG    1       16.115  47.835  14.461  0.00  0.00    +0.043 A 
ATOM     23  C   LIG    1       15.660  47.698  13.148  0.00  0.00    +0.005 A 
ATOM     24  C   LIG    1       15.280  46.451  12.697  0.00  0.00    +0.020 A 
ATOM     25  C   LIG    1       15.363  45.406  13.594  0.00  0.00    +0.113 A 
ATOM     26  N   LIG    1       15.748  45.540  14.888  0.00  0.00    -0.240 NA
ENDBRANCH  19  21
ENDBRANCH  18  19
ENDBRANCH  17  18
ENDBRANCH  16  17
ENDBRANCH   4  16
TORSDOF 7
ENDMDL
MODEL 6
REMARK VINA RESULT:      -6.2      2.687      6.952
REMARK  Name = 
REMARK                            x       y       z     vdW  Elec       q    Type
REMARK                         _______ _______ _______ _____ _____    ______ ____
ROOT
ATOM      1  C   LIG    1       16.614  47.008  16.871  0.00  0.00    -0.046 A 
ATOM      2  C   LIG    1       16.546  48.000  15.896  0.00  0.00    +0.007 A 
ATOM      3  C   LIG    1       17.380  47.963  14.785  0.00  0.00    +0.046 A 
ATOM      4  C   LIG    1       18.347  46.962  14.631  0.00  0.00    +0.121 A 
ATOM      5  C   LIG    1       18.442  45.979  15.615  0.00  0.00    +0.046 A 
ATOM      6  C   LIG    1       17.577  45.997  16.725  0.00  0.00    +0.007 A 
ENDROOT
BRANCH   1   7
ATOM      7  C   LIG    1       15.666  47.065  18.047  0.00  0.00    +0.059 C 
BRANCH   7  10
ATOM      8  O   LIG    1       14.493  48.098  20.918  0.00  0.00    -0.274 OA
ATOM      9  C   LIG    1       15.365  48.494  20.154  0.00  0.00    +0.234 C 
ATOM     10  C   LIG    1       16.297  47.610  19.337  0.00  0.00    +0.146 C 
ATOM     11  S   LIG    1       17.661  48.755  18.880  0.00  0.00    -0.054 S 
ATOM     12  C   LIG    1       16.808  50.168  19.448  0.00  0.00    +0.279 C 
ATOM     13  O   LIG    1       17.262  51.296  19.422  0.00  0.00    -0.263 OA
ATOM     14  N   LIG    1       15.609  49.818  19.965  0.00  0.00    -0.246 N 
ATOM     15  H   LIG    1       15.082  50.506  20.480  0.00  0.00    +0.158 HD
ENDBRANCH   7  10
ENDBRANCH   1   7
BRANCH   4  16
ATOM     16  O   LIG    1       19.228  46.883  13.563  0.00  0.00    -0.490 OA
BRANCH  16  17
ATOM     17  C   LIG    1       20.545  46.513  13.993  0.00  0.00    +0.248 C 
BRANCH  17  18
ATOM     18  C   LIG    1       21.715  47.191  13.296  0.00  0.00    +0.147 C 
BRANCH  18  19
ATOM     19  N   LIG    1       22.018  48.581  13.762  0.00  0.00    -0.315 N 
ATOM     20  C   LIG    1       22.044  49.544  12.651  0.00  0.00    +0.131 C 
BRANCH  19  21
ATOM     21  C   LIG    1       21.413  49.138  14.906  0.00  0.00    +0.121 A 
ATOM     22  C   LIG    1       20.322  50.011  14.815  0.00  0.00    +0.043 A 
ATOM     23  C   LIG    1       19.717  50.545  15.954  0.00  0.00    +0.005 A 
ATOM     24  C   LIG    1       20.148  50.134  17.198  0.00  0.00    +0.020 A 
ATOM     25  C   LIG    1       21.178  49.217  17.235  0.00  0.00    +0.113 A 
ATOM     26  N   LIG    1       21.811  48.736  16.135  0.00  0.00    -0.240 NA
ENDBRANCH  19  21
ENDBRANCH  18  19
ENDBRANCH  17  18
ENDBRANCH  16  17
ENDBRANCH   4  16
TORSDOF 7
ENDMDL
MODEL 7
REMARK VINA RESULT:      -5.8      1.601      1.995
REMARK  Name = 
REMARK                            x       y       z     vdW  Elec       q    Type
REMARK                         _______ _______ _______ _____ _____    ______ ____
ROOT
ATOM      1  C   LIG    1       20.346  48.795  15.083  0.00  0.00    -0.046 A 
ATOM      2  C   LIG    1       19.581  49.958  15.092  0.00  0.00    +0.007 A 
ATOM      3  C   LIG    1       19.131  50.502  16.289  0.00  0.00    +0.046 A 
ATOM      4  C   LIG    1       19.385  49.879  17.516  0.00  0.00    +0.121 A 
ATOM      5  C   LIG    1       20.127  48.699  17.515  0.00  0.00    +0.046 A 
ATOM      6  C   LIG    1       20.611  48.162  16.308  0.00  0.00    +0.007 A 
ENDROOT
BRANCH   1   7
ATOM      7  C   LIG    1       20.847  48.253  13.763  0.00  0.00    +0.059 C 
BRANCH   7  10
ATOM      8  O   LIG    1       23.357  49.398  15.518  0.00  0.00    -0.274 OA
ATOM      9  C   LIG    1       22.910  49.634  14.403  0.00  0.00    +0.234 C 
ATOM     10  C   LIG    1       22.308  48.609  13.451  0.00  0.00    +0.146 C 
ATOM     11  S   LIG    1       22.365  49.468  11.826  0.00  0.00    -0.054 S 
ATOM     12  C   LIG    1       22.801  51.003  12.532  0.00  0.00    +0.279 C 
ATOM     13  O   LIG    1       23.011  52.014  11.890  0.00  0.00    -0.263 OA
ATOM     14  N   LIG    1       22.924  50.887  13.873  0.00  0.00    -0.246 N 
ATOM     15  H   LIG    1       23.332  51.649  14.392  0.00  0.00    +0.158 HD
ENDBRANCH   7  10
ENDBRANCH   1   7
BRANCH   4  16
ATOM     16  O   LIG    1       18.941  50.353  18.740  0.00  0.00    -0.490 OA
BRANCH  16  17
ATOM     17  C   LIG    1       17.602  49.921  19.019  0.00  0.00    +0.248 C 
BRANCH  17  18
ATOM     18  C   LIG    1       17.436  48.538  19.631  0.00  0.00    +0.147 C 
BRANCH  18  19
ATOM     19  N   LIG    1       16.523  47.615  18.885  0.00  0.00    -0.315 N 
ATOM     20  C   LIG    1       15.106  47.910  19.144  0.00  0.00    +0.131 C 
BRANCH  19  21
ATOM     21  C   LIG    1       16.735  47.280  17.533  0.00  0.00    +0.121 A 
ATOM     22  C   LIG    1       16.353  48.131  16.491  0.00  0.00    +0.043 A 
ATOM     23  C   LIG    1       16.582  47.798  15.153  0.00  0.00    +0.005 A 
ATOM     24  C   LIG    1       17.280  46.646  14.860  0.00  0.00    +0.020 A 
ATOM     25  C   LIG    1       17.701  45.877  15.925  0.00  0.00    +0.113 A 
ATOM     26  N   LIG    1       17.432  46.161  17.225  0.00  0.00    -0.240 NA
ENDBRANCH  19  21
ENDBRANCH  18  19
ENDBRANCH  17  18
ENDBRANCH  16  17
ENDBRANCH   4  16
TORSDOF 7
ENDMDL
MODEL 8
REMARK VINA RESULT:      -5.6      2.555      6.201
REMARK  Name = 
REMARK                            x       y       z     vdW  Elec       q    Type
REMARK                         _______ _______ _______ _____ _____    ______ ____
ROOT
ATOM      1  C   LIG    1       19.561  49.013  17.914  0.00  0.00    -0.046 A 
ATOM      2  C   LIG    1       19.470  50.162  17.133  0.00  0.00    +0.007 A 
ATOM      3  C   LIG    1       20.422  50.435  16.158  0.00  0.00    +0.046 A 
ATOM      4  C   LIG    1       21.527  49.598  15.961  0.00  0.00    +0.121 A 
ATOM      5  C   LIG    1       21.642  48.459  16.757  0.00  0.00    +0.046 A 
ATOM      6  C   LIG    1       20.663  48.164  17.724  0.00  0.00    +0.007 A 
ENDROOT
BRANCH   1   7
ATOM      7  C   LIG    1       18.487  48.733  18.940  0.00  0.00    +0.059 C 
BRANCH   7  10
ATOM      8  O   LIG    1       16.603  51.402  18.816  0.00  0.00    -0.274 OA
ATOM      9  C   LIG    1       16.414  50.231  19.120  0.00  0.00    +0.234 C 
ATOM     10  C   LIG    1       17.060  49.025  18.452  0.00  0.00    +0.146 C 
ATOM     11  S   LIG    1       15.973  47.634  18.964  0.00  0.00    -0.054 S 
ATOM     12  C   LIG    1       15.099  48.603  20.123  0.00  0.00    +0.279 C 
ATOM     13  O   LIG    1       14.175  48.192  20.799  0.00  0.00    -0.263 OA
ATOM     14  N   LIG    1       15.558  49.875  20.115  0.00  0.00    -0.246 N 
ATOM     15  H   LIG    1       15.038  50.583  20.609  0.00  0.00    +0.158 HD
ENDBRANCH   7  10
ENDBRANCH   1   7
BRANCH   4  16
ATOM     16  O   LIG    1       22.525  49.828  15.028  0.00  0.00    -0.490 OA
BRANCH  16  17
ATOM     17  C   LIG    1       22.326  49.050  13.840  0.00  0.00    +0.248 C 
BRANCH  17  18
ATOM     18  C   LIG    1       20.899  48.926  13.327  0.00  0.00    +0.147 C 
BRANCH  18  19
ATOM     19  N   LIG    1       20.264  47.585  13.523  0.00  0.00    -0.315 N 
ATOM     20  C   LIG    1       21.255  46.543  13.832  0.00  0.00    +0.131 C 
BRANCH  19  21
ATOM     21  C   LIG    1       19.091  47.414  14.285  0.00  0.00    +0.121 A 
ATOM     22  C   LIG    1       18.086  48.387  14.323  0.00  0.00    +0.043 A 
ATOM     23  C   LIG    1       16.918  48.202  15.067  0.00  0.00    +0.005 A 
ATOM     24  C   LIG    1       16.714  46.997  15.706  0.00  0.00    +0.020 A 
ATOM     25  C   LIG    1       17.701  46.042  15.578  0.00  0.00    +0.113 A 
ATOM     26  N   LIG    1       18.865  46.233  14.906  0.00  0.00    -0.240 NA
ENDBRANCH  19  21
ENDBRANCH  18  19
ENDBRANCH  17  18
ENDBRANCH  16  17
ENDBRANCH   4  16
TORSDOF 7
ENDMDL
MODEL 9
REMARK VINA RESULT:      -5.5      2.771      6.048
REMARK  Name = 
REMARK                            x       y       z     vdW  Elec       q    Type
REMARK                         _______ _______ _______ _____ _____    ______ ____
ROOT
ATOM      1  C   LIG    1       17.412  47.985  17.383  0.00  0.00    -0.046 A 
ATOM      2  C   LIG    1       18.353  47.529  18.302  0.00  0.00    +0.007 A 
ATOM      3  C   LIG    1       19.569  48.185  18.458  0.00  0.00    +0.046 A 
ATOM      4  C   LIG    1       19.910  49.289  17.669  0.00  0.00    +0.121 A 
ATOM      5  C   LIG    1       18.985  49.737  16.726  0.00  0.00    +0.046 A 
ATOM      6  C   LIG    1       17.741  49.094  16.587  0.00  0.00    +0.007 A 
ENDROOT
BRANCH   1   7
ATOM      7  C   LIG    1       16.088  47.266  17.267  0.00  0.00    +0.059 C 
BRANCH   7  10
ATOM      8  O   LIG    1       18.412  45.573  15.710  0.00  0.00    -0.274 OA
ATOM      9  C   LIG    1       17.334  46.053  15.382  0.00  0.00    +0.234 C 
ATOM     10  C   LIG    1       16.086  46.111  16.253  0.00  0.00    +0.146 C 
ATOM     11  S   LIG    1       14.742  46.409  15.034  0.00  0.00    -0.054 S 
ATOM     12  C   LIG    1       15.853  46.722  13.725  0.00  0.00    +0.279 C 
ATOM     13  O   LIG    1       15.512  46.971  12.585  0.00  0.00    -0.263 OA
ATOM     14  N   LIG    1       17.130  46.590  14.149  0.00  0.00    -0.246 N 
ATOM     15  H   LIG    1       17.871  46.577  13.466  0.00  0.00    +0.158 HD
ENDBRANCH   7  10
ENDBRANCH   1   7
BRANCH   4  16
ATOM     16  O   LIG    1       21.114  49.969  17.754  0.00  0.00    -0.490 OA
BRANCH  16  17
ATOM     17  C   LIG    1       22.091  49.426  16.856  0.00  0.00    +0.248 C 
BRANCH  17  18
ATOM     18  C   LIG    1       21.733  48.127  16.149  0.00  0.00    +0.147 C 
BRANCH  18  19
ATOM     19  N   LIG    1       21.847  48.159  14.657  0.00  0.00    -0.315 N 
ATOM     20  C   LIG    1       20.794  47.368  14.003  0.00  0.00    +0.131 C 
BRANCH  19  21
ATOM     21  C   LIG    1       22.103  49.350  13.948  0.00  0.00    +0.121 A 
ATOM     22  C   LIG    1       21.139  50.356  13.820  0.00  0.00    +0.043 A 
ATOM     23  C   LIG    1       21.406  51.541  13.131  0.00  0.00    +0.005 A 
ATOM     24  C   LIG    1       22.678  51.761  12.643  0.00  0.00    +0.020 A 
ATOM     25  C   LIG    1       23.614  50.771  12.859  0.00  0.00    +0.113 A 
ATOM     26  N   LIG    1       23.348  49.592  13.476  0.00  0.00    -0.240 NA
ENDBRANCH  19  21
ENDBRANCH  18  19
ENDBRANCH  17  18
ENDBRANCH  16  17
ENDBRANCH   4  16
TORSDOF 7
ENDMDL
