REMARK  Name = 
REMARK                            x       y       z     vdW  Elec       q    Type
REMARK                         _______ _______ _______ _____ _____    ______ ____
ROOT
ATOM      1  C   LIG    1        1.476  -2.924  -0.549  0.00  0.00    -0.046 A 
ATOM      2  C   LIG    1        0.348  -2.119  -0.410  0.00  0.00    +0.007 A 
ATOM      3  C   LIG    1       -0.848  -2.648   0.060  0.00  0.00    +0.046 A 
ATOM      4  C   LIG    1       -0.977  -4.009   0.361  0.00  0.00    +0.121 A 
ATOM      5  C   LIG    1        0.139  -4.829   0.199  0.00  0.00    +0.046 A 
ATOM      6  C   LIG    1        1.360  -4.290  -0.247  0.00  0.00    +0.007 A 
ENDROOT
BRANCH   1   7
ATOM      7  C   LIG    1        2.768  -2.304  -1.030  0.00  0.00    +0.059 C 
BRANCH   7  10
ATOM      8  O   LIG    1        1.876   0.113   0.983  0.00  0.00    -0.274 OA
ATOM      9  C   LIG    1        2.853  -0.099   0.276  0.00  0.00    +0.234 C 
ATOM     10  C   LIG    1        3.492  -1.459   0.029  0.00  0.00    +0.146 C 
ATOM     11  S   LIG    1        5.159  -1.024  -0.613  0.00  0.00    -0.054 S 
ATOM     12  C   LIG    1        4.768   0.668  -0.786  0.00  0.00    +0.279 C 
ATOM     13  O   LIG    1        5.551   1.513  -1.176  0.00  0.00    -0.263 OA
ATOM     14  N   LIG    1        3.503   0.904  -0.373  0.00  0.00    -0.246 N 
ATOM     15  H   LIG    1        3.198   1.858  -0.259  0.00  0.00    +0.158 HD
ENDBRANCH   7  10
ENDBRANCH   1   7
BRANCH   4  16
ATOM     16  O   LIG    1       -2.147  -4.604   0.805  0.00  0.00    -0.490 OA
BRANCH  16  17
ATOM     17  C   LIG    1       -3.256  -3.697   0.743  0.00  0.00    +0.248 C 
BRANCH  17  18
ATOM     18  C   LIG    1       -4.614  -4.236   1.167  0.00  0.00    +0.147 C 
BRANCH  18  19
ATOM     19  N   LIG    1       -5.771  -3.319   0.920  0.00  0.00    -0.315 N 
ATOM     20  C   LIG    1       -7.030  -3.860   1.454  0.00  0.00    +0.131 C 
BRANCH  19  21
ATOM     21  C   LIG    1       -5.685  -1.928   1.129  0.00  0.00    +0.121 A 
ATOM     22  C   LIG    1       -4.755  -1.134   0.449  0.00  0.00    +0.043 A 
ATOM     23  C   LIG    1       -4.688   0.247   0.649  0.00  0.00    +0.005 A 
ATOM     24  C   LIG    1       -5.618   0.851   1.469  0.00  0.00    +0.020 A 
ATOM     25  C   LIG    1       -6.561   0.035   2.059  0.00  0.00    +0.113 A 
ATOM     26  N   LIG    1       -6.598  -1.314   1.917  0.00  0.00    -0.240 NA
ENDBRANCH  19  21
ENDBRANCH  18  19
ENDBRANCH  17  18
ENDBRANCH  16  17
ENDBRANCH   4  16
TORSDOF 7
