MODEL 1
REMARK VINA RESULT:      -4.8      0.000      0.000
REMARK  Name = 
REMARK                            x       y       z     vdW  Elec       q    Type
REMARK                         _______ _______ _______ _____ _____    ______ ____
ROOT
ATOM      1  C   LIG    1       -5.855  -4.248  14.514  0.00  0.00    +0.000 A 
ATOM      2  C   LIG    1       -4.562  -4.651  14.846  0.00  0.00    +0.004 A 
ATOM      3  C   LIG    1       -4.269  -5.046  16.152  0.00  0.00    +0.045 A 
ATOM      4  C   LIG    1       -5.273  -5.035  17.115  0.00  0.00    +0.117 A 
ATOM      5  C   LIG    1       -6.567  -4.636  16.794  0.00  0.00    +0.045 A 
ATOM      6  C   LIG    1       -6.858  -4.240  15.486  0.00  0.00    +0.004 A 
ENDROOT
BRANCH   4   7
ATOM      7  O   LIG    1       -4.944  -5.427  18.378  0.00  0.00    -0.507 OA
ATOM      8  H   LIG    1       -4.519  -6.299  18.329  0.00  0.00    +0.292 HD
ENDBRANCH   4   7
TORSDOF 1
ENDMDL
MODEL 2
REMARK VINA RESULT:      -4.8      0.051      1.829
REMARK  Name = 
REMARK                            x       y       z     vdW  Elec       q    Type
REMARK                         _______ _______ _______ _____ _____    ______ ____
ROOT
ATOM      1  C   LIG    1       -5.903  -4.266  14.512  0.00  0.00    +0.000 A 
ATOM      2  C   LIG    1       -6.871  -4.275  15.516  0.00  0.00    +0.004 A 
ATOM      3  C   LIG    1       -6.528  -4.664  16.811  0.00  0.00    +0.045 A 
ATOM      4  C   LIG    1       -5.218  -5.039  17.092  0.00  0.00    +0.117 A 
ATOM      5  C   LIG    1       -4.244  -5.032  16.098  0.00  0.00    +0.045 A 
ATOM      6  C   LIG    1       -4.590  -4.644  14.802  0.00  0.00    +0.004 A 
ENDROOT
BRANCH   4   7
ATOM      7  O   LIG    1       -4.926  -5.413  18.370  0.00  0.00    -0.507 OA
ATOM      8  H   LIG    1       -5.720  -5.290  18.916  0.00  0.00    +0.292 HD
ENDBRANCH   4   7
TORSDOF 1
ENDMDL
MODEL 3
REMARK VINA RESULT:      -4.7      1.401      2.306
REMARK  Name = 
REMARK                            x       y       z     vdW  Elec       q    Type
REMARK                         _______ _______ _______ _____ _____    ______ ____
ROOT
ATOM      1  C   LIG    1       -4.460  -4.450  14.233  0.00  0.00    +0.000 A 
ATOM      2  C   LIG    1       -5.701  -3.957  13.828  0.00  0.00    +0.004 A 
ATOM      3  C   LIG    1       -6.746  -3.864  14.746  0.00  0.00    +0.045 A 
ATOM      4  C   LIG    1       -6.542  -4.263  16.063  0.00  0.00    +0.117 A 
ATOM      5  C   LIG    1       -5.309  -4.755  16.478  0.00  0.00    +0.045 A 
ATOM      6  C   LIG    1       -4.263  -4.848  15.557  0.00  0.00    +0.004 A 
ENDROOT
BRANCH   4   7
ATOM      7  O   LIG    1       -7.592  -4.156  16.928  0.00  0.00    -0.507 OA
ATOM      8  H   LIG    1       -8.296  -3.646  16.496  0.00  0.00    +0.292 HD
ENDBRANCH   4   7
TORSDOF 1
ENDMDL
MODEL 4
REMARK VINA RESULT:      -4.7      1.360      2.035
REMARK  Name = 
REMARK                            x       y       z     vdW  Elec       q    Type
REMARK                         _______ _______ _______ _____ _____    ______ ____
ROOT
ATOM      1  C   LIG    1       -4.210  -4.682  14.681  0.00  0.00    +0.000 A 
ATOM      2  C   LIG    1       -4.225  -4.987  16.042  0.00  0.00    +0.004 A 
ATOM      3  C   LIG    1       -5.396  -4.823  16.780  0.00  0.00    +0.045 A 
ATOM      4  C   LIG    1       -6.545  -4.354  16.151  0.00  0.00    +0.117 A 
ATOM      5  C   LIG    1       -6.542  -4.048  14.794  0.00  0.00    +0.045 A 
ATOM      6  C   LIG    1       -5.368  -4.212  14.057  0.00  0.00    +0.004 A 
ENDROOT
BRANCH   4   7
ATOM      7  O   LIG    1       -7.669  -4.207  16.910  0.00  0.00    -0.507 OA
ATOM      8  H   LIG    1       -7.509  -4.612  17.778  0.00  0.00    +0.292 HD
ENDBRANCH   4   7
TORSDOF 1
ENDMDL
MODEL 5
REMARK VINA RESULT:      -4.5      8.159      8.496
REMARK  Name = 
REMARK                            x       y       z     vdW  Elec       q    Type
REMARK                         _______ _______ _______ _____ _____    ______ ____
ROOT
ATOM      1  C   LIG    1       -0.905  -1.563  22.187  0.00  0.00    +0.000 A 
ATOM      2  C   LIG    1       -0.306  -1.242  20.969  0.00  0.00    +0.004 A 
ATOM      3  C   LIG    1       -0.651  -0.062  20.312  0.00  0.00    +0.045 A 
ATOM      4  C   LIG    1       -1.592   0.791  20.880  0.00  0.00    +0.117 A 
ATOM      5  C   LIG    1       -2.195   0.482  22.095  0.00  0.00    +0.045 A 
ATOM      6  C   LIG    1       -1.849  -0.702  22.751  0.00  0.00    +0.004 A 
ENDROOT
BRANCH   4   7
ATOM      7  O   LIG    1       -1.902   1.934  20.204  0.00  0.00    -0.507 OA
ATOM      8  H   LIG    1       -2.183   1.694  19.306  0.00  0.00    +0.292 HD
ENDBRANCH   4   7
TORSDOF 1
ENDMDL
MODEL 6
REMARK VINA RESULT:      -4.3      1.830      2.567
REMARK  Name = 
REMARK                            x       y       z     vdW  Elec       q    Type
REMARK                         _______ _______ _______ _____ _____    ______ ____
ROOT
ATOM      1  C   LIG    1       -6.912  -4.532  16.045  0.00  0.00    +0.000 A 
ATOM      2  C   LIG    1       -5.751  -4.830  16.759  0.00  0.00    +0.004 A 
ATOM      3  C   LIG    1       -4.519  -4.854  16.106  0.00  0.00    +0.045 A 
ATOM      4  C   LIG    1       -4.457  -4.579  14.744  0.00  0.00    +0.117 A 
ATOM      5  C   LIG    1       -5.608  -4.279  14.023  0.00  0.00    +0.045 A 
ATOM      6  C   LIG    1       -6.841  -4.256  14.678  0.00  0.00    +0.004 A 
ENDROOT
BRANCH   4   7
ATOM      7  O   LIG    1       -3.232  -4.614  14.145  0.00  0.00    -0.507 OA
ATOM      8  H   LIG    1       -3.126  -5.478  13.714  0.00  0.00    +0.292 HD
ENDBRANCH   4   7
TORSDOF 1
ENDMDL
MODEL 7
REMARK VINA RESULT:      -4.3      2.535      3.189
REMARK  Name = 
REMARK                            x       y       z     vdW  Elec       q    Type
REMARK                         _______ _______ _______ _____ _____    ______ ____
ROOT
ATOM      1  C   LIG    1       -4.209  -4.807  15.677  0.00  0.00    +0.000 A 
ATOM      2  C   LIG    1       -3.804  -4.671  14.349  0.00  0.00    +0.004 A 
ATOM      3  C   LIG    1       -4.693  -4.169  13.399  0.00  0.00    +0.045 A 
ATOM      4  C   LIG    1       -5.979  -3.806  13.784  0.00  0.00    +0.117 A 
ATOM      5  C   LIG    1       -6.392  -3.936  15.106  0.00  0.00    +0.045 A 
ATOM      6  C   LIG    1       -5.502  -4.441  16.056  0.00  0.00    +0.004 A 
ENDROOT
BRANCH   4   7
ATOM      7  O   LIG    1       -6.816  -3.320  12.823  0.00  0.00    -0.507 OA
ATOM      8  H   LIG    1       -6.943  -2.369  12.977  0.00  0.00    +0.292 HD
ENDBRANCH   4   7
TORSDOF 1
ENDMDL
MODEL 8
REMARK VINA RESULT:      -4.3      2.599      3.664
REMARK  Name = 
REMARK                            x       y       z     vdW  Elec       q    Type
REMARK                         _______ _______ _______ _____ _____    ______ ____
ROOT
ATOM      1  C   LIG    1       -5.265  -4.260  16.115  0.00  0.00    +0.000 A 
ATOM      2  C   LIG    1       -6.352  -4.051  15.265  0.00  0.00    +0.004 A 
ATOM      3  C   LIG    1       -6.193  -4.187  13.886  0.00  0.00    +0.045 A 
ATOM      4  C   LIG    1       -4.949  -4.530  13.368  0.00  0.00    +0.117 A 
ATOM      5  C   LIG    1       -3.859  -4.742  14.206  0.00  0.00    +0.045 A 
ATOM      6  C   LIG    1       -4.020  -4.605  15.587  0.00  0.00    +0.004 A 
ENDROOT
BRANCH   4   7
ATOM      7  O   LIG    1       -4.837  -4.651  12.014  0.00  0.00    -0.507 OA
ATOM      8  H   LIG    1       -4.485  -5.534  11.811  0.00  0.00    +0.292 HD
ENDBRANCH   4   7
TORSDOF 1
ENDMDL
MODEL 9
REMARK VINA RESULT:      -4.2      1.782      2.643
REMARK  Name = 
REMARK                            x       y       z     vdW  Elec       q    Type
REMARK                         _______ _______ _______ _____ _____    ______ ____
ROOT
ATOM      1  C   LIG    1       -6.123  -4.706  13.176  0.00  0.00    +0.000 A 
ATOM      2  C   LIG    1       -7.381  -5.145  13.590  0.00  0.00    +0.004 A 
ATOM      3  C   LIG    1       -7.804  -4.913  14.898  0.00  0.00    +0.045 A 
ATOM      4  C   LIG    1       -6.965  -4.244  15.784  0.00  0.00    +0.117 A 
ATOM      5  C   LIG    1       -5.709  -3.802  15.382  0.00  0.00    +0.045 A 
ATOM      6  C   LIG    1       -5.287  -4.035  14.071  0.00  0.00    +0.004 A 
ENDROOT
BRANCH   4   7
ATOM      7  O   LIG    1       -7.417  -4.040  17.054  0.00  0.00    -0.507 OA
ATOM      8  H   LIG    1       -6.861  -4.552  17.665  0.00  0.00    +0.292 HD
ENDBRANCH   4   7
TORSDOF 1
ENDMDL
