MODEL 1
REMARK VINA RESULT:      -5.3      0.000      0.000
REMARK  Name = 
REMARK                            x       y       z     vdW  Elec       q    Type
REMARK                         _______ _______ _______ _____ _____    ______ ____
ROOT
ATOM      1  C   LIG    1       65.978  57.505  88.179  0.00  0.00    +0.000 A 
ATOM      2  C   LIG    1       67.101  57.045  87.490  0.00  0.00    +0.004 A 
ATOM      3  C   LIG    1       67.755  55.889  87.917  0.00  0.00    +0.045 A 
ATOM      4  C   LIG    1       67.280  55.202  89.029  0.00  0.00    +0.117 A 
ATOM      5  C   LIG    1       66.160  55.651  89.722  0.00  0.00    +0.045 A 
ATOM      6  C   LIG    1       65.508  56.809  89.294  0.00  0.00    +0.004 A 
ENDROOT
BRANCH   4   7
ATOM      7  O   LIG    1       67.949  54.077  89.414  0.00  0.00    -0.507 OA
ATOM      8  H   LIG    1       67.298  53.411  89.689  0.00  0.00    +0.292 HD
ENDBRANCH   4   7
TORSDOF 1
ENDMDL
MODEL 2
REMARK VINA RESULT:      -4.9      8.147      9.296
REMARK  Name = 
REMARK                            x       y       z     vdW  Elec       q    Type
REMARK                         _______ _______ _______ _____ _____    ______ ____
ROOT
ATOM      1  C   LIG    1       68.591  47.432  94.507  0.00  0.00    +0.000 A 
ATOM      2  C   LIG    1       69.792  47.969  94.044  0.00  0.00    +0.004 A 
ATOM      3  C   LIG    1       69.812  48.721  92.870  0.00  0.00    +0.045 A 
ATOM      4  C   LIG    1       68.630  48.931  92.168  0.00  0.00    +0.117 A 
ATOM      5  C   LIG    1       67.426  48.401  92.621  0.00  0.00    +0.045 A 
ATOM      6  C   LIG    1       67.408  47.648  93.796  0.00  0.00    +0.004 A 
ENDROOT
BRANCH   4   7
ATOM      7  O   LIG    1       68.695  49.672  91.024  0.00  0.00    -0.507 OA
ATOM      8  H   LIG    1       69.616  49.684  90.717  0.00  0.00    +0.292 HD
ENDBRANCH   4   7
TORSDOF 1
ENDMDL
MODEL 3
REMARK VINA RESULT:      -4.9      8.172      9.415
REMARK  Name = 
REMARK                            x       y       z     vdW  Elec       q    Type
REMARK                         _______ _______ _______ _____ _____    ______ ____
ROOT
ATOM      1  C   LIG    1       68.520  47.397  94.500  0.00  0.00    +0.000 A 
ATOM      2  C   LIG    1       67.371  47.644  93.748  0.00  0.00    +0.004 A 
ATOM      3  C   LIG    1       67.451  48.409  92.585  0.00  0.00    +0.045 A 
ATOM      4  C   LIG    1       68.680  48.920  92.181  0.00  0.00    +0.117 A 
ATOM      5  C   LIG    1       69.832  48.680  92.923  0.00  0.00    +0.045 A 
ATOM      6  C   LIG    1       69.750  47.915  94.088  0.00  0.00    +0.004 A 
ENDROOT
BRANCH   4   7
ATOM      7  O   LIG    1       68.713  49.664  91.038  0.00  0.00    -0.507 OA
ATOM      8  H   LIG    1       68.080  50.395  91.128  0.00  0.00    +0.292 HD
ENDBRANCH   4   7
TORSDOF 1
ENDMDL
MODEL 4
REMARK VINA RESULT:      -4.9      1.333      2.233
REMARK  Name = 
REMARK                            x       y       z     vdW  Elec       q    Type
REMARK                         _______ _______ _______ _____ _____    ______ ____
ROOT
ATOM      1  C   LIG    1       65.757  56.578  89.579  0.00  0.00    +0.000 A 
ATOM      2  C   LIG    1       66.517  55.408  89.594  0.00  0.00    +0.004 A 
ATOM      3  C   LIG    1       67.440  55.164  88.578  0.00  0.00    +0.045 A 
ATOM      4  C   LIG    1       67.597  56.092  87.554  0.00  0.00    +0.117 A 
ATOM      5  C   LIG    1       66.845  57.263  87.530  0.00  0.00    +0.045 A 
ATOM      6  C   LIG    1       65.921  57.505  88.548  0.00  0.00    +0.004 A 
ENDROOT
BRANCH   4   7
ATOM      7  O   LIG    1       68.510  55.814  86.579  0.00  0.00    -0.507 OA
ATOM      8  H   LIG    1       68.249  54.988  86.140  0.00  0.00    +0.292 HD
ENDBRANCH   4   7
TORSDOF 1
ENDMDL
MODEL 5
REMARK VINA RESULT:      -4.8      1.900      2.639
REMARK  Name = 
REMARK                            x       y       z     vdW  Elec       q    Type
REMARK                         _______ _______ _______ _____ _____    ______ ____
ROOT
ATOM      1  C   LIG    1       67.314  54.783  89.520  0.00  0.00    +0.000 A 
ATOM      2  C   LIG    1       68.170  55.030  88.446  0.00  0.00    +0.004 A 
ATOM      3  C   LIG    1       67.908  56.086  87.574  0.00  0.00    +0.045 A 
ATOM      4  C   LIG    1       66.791  56.888  87.783  0.00  0.00    +0.117 A 
ATOM      5  C   LIG    1       65.931  56.652  88.850  0.00  0.00    +0.045 A 
ATOM      6  C   LIG    1       66.195  55.593  89.722  0.00  0.00    +0.004 A 
ENDROOT
BRANCH   4   7
ATOM      7  O   LIG    1       66.571  57.909  86.906  0.00  0.00    -0.507 OA
ATOM      8  H   LIG    1       66.279  58.688  87.407  0.00  0.00    +0.292 HD
ENDBRANCH   4   7
TORSDOF 1
ENDMDL
MODEL 6
REMARK VINA RESULT:      -4.6      1.849      3.131
REMARK  Name = 
REMARK                            x       y       z     vdW  Elec       q    Type
REMARK                         _______ _______ _______ _____ _____    ______ ____
ROOT
ATOM      1  C   LIG    1       68.273  54.960  88.640  0.00  0.00    +0.000 A 
ATOM      2  C   LIG    1       67.257  54.826  89.587  0.00  0.00    +0.004 A 
ATOM      3  C   LIG    1       66.154  55.678  89.550  0.00  0.00    +0.045 A 
ATOM      4  C   LIG    1       66.074  56.657  88.566  0.00  0.00    +0.117 A 
ATOM      5  C   LIG    1       67.081  56.799  87.616  0.00  0.00    +0.045 A 
ATOM      6  C   LIG    1       68.185  55.945  87.655  0.00  0.00    +0.004 A 
ENDROOT
BRANCH   4   7
ATOM      7  O   LIG    1       64.979  57.470  88.567  0.00  0.00    -0.507 OA
ATOM      8  H   LIG    1       64.770  57.703  89.486  0.00  0.00    +0.292 HD
ENDBRANCH   4   7
TORSDOF 1
ENDMDL
MODEL 7
REMARK VINA RESULT:      -4.6      1.941      3.117
REMARK  Name = 
REMARK                            x       y       z     vdW  Elec       q    Type
REMARK                         _______ _______ _______ _____ _____    ______ ____
ROOT
ATOM      1  C   LIG    1       67.781  54.959  89.834  0.00  0.00    +0.000 A 
ATOM      2  C   LIG    1       66.514  55.361  89.410  0.00  0.00    +0.004 A 
ATOM      3  C   LIG    1       66.342  55.887  88.130  0.00  0.00    +0.045 A 
ATOM      4  C   LIG    1       67.439  56.005  87.282  0.00  0.00    +0.117 A 
ATOM      5  C   LIG    1       68.707  55.606  87.695  0.00  0.00    +0.045 A 
ATOM      6  C   LIG    1       68.877  55.081  88.977  0.00  0.00    +0.004 A 
ENDROOT
BRANCH   4   7
ATOM      7  O   LIG    1       67.228  56.525  86.040  0.00  0.00    -0.507 OA
ATOM      8  H   LIG    1       67.784  56.044  85.406  0.00  0.00    +0.292 HD
ENDBRANCH   4   7
TORSDOF 1
ENDMDL
MODEL 8
REMARK VINA RESULT:      -4.6      8.433      9.562
REMARK  Name = 
REMARK                            x       y       z     vdW  Elec       q    Type
REMARK                         _______ _______ _______ _____ _____    ______ ____
ROOT
ATOM      1  C   LIG    1       67.632  48.355  92.668  0.00  0.00    +0.000 A 
ATOM      2  C   LIG    1       67.680  47.656  93.874  0.00  0.00    +0.004 A 
ATOM      3  C   LIG    1       68.789  47.784  94.709  0.00  0.00    +0.045 A 
ATOM      4  C   LIG    1       69.842  48.611  94.332  0.00  0.00    +0.117 A 
ATOM      5  C   LIG    1       69.804  49.314  93.132  0.00  0.00    +0.045 A 
ATOM      6  C   LIG    1       68.693  49.184  92.296  0.00  0.00    +0.004 A 
ENDROOT
BRANCH   4   7
ATOM      7  O   LIG    1       70.908  48.706  95.177  0.00  0.00    -0.507 OA
ATOM      8  H   LIG    1       71.662  48.244  94.776  0.00  0.00    +0.292 HD
ENDBRANCH   4   7
TORSDOF 1
ENDMDL
MODEL 9
REMARK VINA RESULT:      -4.5      8.446      9.419
REMARK  Name = 
REMARK                            x       y       z     vdW  Elec       q    Type
REMARK                         _______ _______ _______ _____ _____    ______ ____
ROOT
ATOM      1  C   LIG    1       67.653  48.364  92.691  0.00  0.00    +0.000 A 
ATOM      2  C   LIG    1       68.722  49.185  92.331  0.00  0.00    +0.004 A 
ATOM      3  C   LIG    1       69.812  49.326  93.189  0.00  0.00    +0.045 A 
ATOM      4  C   LIG    1       69.826  48.644  94.402  0.00  0.00    +0.117 A 
ATOM      5  C   LIG    1       68.766  47.822  94.770  0.00  0.00    +0.045 A 
ATOM      6  C   LIG    1       67.674  47.683  93.910  0.00  0.00    +0.004 A 
ENDROOT
BRANCH   4   7
ATOM      7  O   LIG    1       70.910  48.811  95.211  0.00  0.00    -0.507 OA
ATOM      8  H   LIG    1       70.646  48.610  96.125  0.00  0.00    +0.292 HD
ENDBRANCH   4   7
TORSDOF 1
ENDMDL
