MODEL 1
REMARK VINA RESULT:      -5.1      0.000      0.000
REMARK  Name = 
REMARK                            x       y       z     vdW  Elec       q    Type
REMARK                         _______ _______ _______ _____ _____    ______ ____
ROOT
ATOM      1  C   LIG    1        2.687  29.812   4.577  0.00  0.00    +0.000 A 
ATOM      2  C   LIG    1        3.955  29.658   5.139  0.00  0.00    +0.004 A 
ATOM      3  C   LIG    1        4.397  28.393   5.523  0.00  0.00    +0.045 A 
ATOM      4  C   LIG    1        3.569  27.290   5.341  0.00  0.00    +0.117 A 
ATOM      5  C   LIG    1        2.304  27.432   4.780  0.00  0.00    +0.045 A 
ATOM      6  C   LIG    1        1.861  28.700   4.398  0.00  0.00    +0.004 A 
ENDROOT
BRANCH   4   7
ATOM      7  O   LIG    1        4.041  26.071   5.731  0.00  0.00    -0.507 OA
ATOM      8  H   LIG    1        3.877  25.435   5.016  0.00  0.00    +0.292 HD
ENDBRANCH   4   7
TORSDOF 1
ENDMDL
MODEL 2
REMARK VINA RESULT:      -5.1      0.048      1.829
REMARK  Name = 
REMARK                            x       y       z     vdW  Elec       q    Type
REMARK                         _______ _______ _______ _____ _____    ______ ____
ROOT
ATOM      1  C   LIG    1        2.709  29.791   4.551  0.00  0.00    +0.000 A 
ATOM      2  C   LIG    1        1.905  28.664   4.377  0.00  0.00    +0.004 A 
ATOM      3  C   LIG    1        2.365  27.411   4.781  0.00  0.00    +0.045 A 
ATOM      4  C   LIG    1        3.625  27.295   5.358  0.00  0.00    +0.117 A 
ATOM      5  C   LIG    1        4.435  28.412   5.538  0.00  0.00    +0.045 A 
ATOM      6  C   LIG    1        3.973  29.665   5.132  0.00  0.00    +0.004 A 
ENDROOT
BRANCH   4   7
ATOM      7  O   LIG    1        4.036  26.051   5.739  0.00  0.00    -0.507 OA
ATOM      8  H   LIG    1        4.303  26.087   6.672  0.00  0.00    +0.292 HD
ENDBRANCH   4   7
TORSDOF 1
ENDMDL
MODEL 3
REMARK VINA RESULT:      -5.0      8.131      9.198
REMARK  Name = 
REMARK                            x       y       z     vdW  Elec       q    Type
REMARK                         _______ _______ _______ _____ _____    ______ ____
ROOT
ATOM      1  C   LIG    1        4.459  21.868  13.370  0.00  0.00    +0.000 A 
ATOM      2  C   LIG    1        5.119  22.928  12.747  0.00  0.00    +0.004 A 
ATOM      3  C   LIG    1        4.784  23.287  11.441  0.00  0.00    +0.045 A 
ATOM      4  C   LIG    1        3.791  22.582  10.768  0.00  0.00    +0.117 A 
ATOM      5  C   LIG    1        3.126  21.525  11.380  0.00  0.00    +0.045 A 
ATOM      6  C   LIG    1        3.463  21.167  12.687  0.00  0.00    +0.004 A 
ENDROOT
BRANCH   4   7
ATOM      7  O   LIG    1        3.496  22.965   9.493  0.00  0.00    -0.507 OA
ATOM      8  H   LIG    1        2.659  23.458   9.505  0.00  0.00    +0.292 HD
ENDBRANCH   4   7
TORSDOF 1
ENDMDL
MODEL 4
REMARK VINA RESULT:      -5.0      8.143      9.366
REMARK  Name = 
REMARK                            x       y       z     vdW  Elec       q    Type
REMARK                         _______ _______ _______ _____ _____    ______ ____
ROOT
ATOM      1  C   LIG    1        4.475  21.906  13.394  0.00  0.00    +0.000 A 
ATOM      2  C   LIG    1        3.508  21.168  12.711  0.00  0.00    +0.004 A 
ATOM      3  C   LIG    1        3.171  21.504  11.401  0.00  0.00    +0.045 A 
ATOM      4  C   LIG    1        3.804  22.577  10.782  0.00  0.00    +0.117 A 
ATOM      5  C   LIG    1        4.771  23.319  11.452  0.00  0.00    +0.045 A 
ATOM      6  C   LIG    1        5.107  22.981  12.765  0.00  0.00    +0.004 A 
ENDROOT
BRANCH   4   7
ATOM      7  O   LIG    1        3.444  22.873   9.500  0.00  0.00    -0.507 OA
ATOM      8  H   LIG    1        2.774  23.576   9.523  0.00  0.00    +0.292 HD
ENDBRANCH   4   7
TORSDOF 1
ENDMDL
MODEL 5
REMARK VINA RESULT:      -4.6      8.564      9.531
REMARK  Name = 
REMARK                            x       y       z     vdW  Elec       q    Type
REMARK                         _______ _______ _______ _____ _____    ______ ____
ROOT
ATOM      1  C   LIG    1        3.209  22.021  10.763  0.00  0.00    +0.000 A 
ATOM      2  C   LIG    1        4.232  22.971  10.766  0.00  0.00    +0.004 A 
ATOM      3  C   LIG    1        5.067  23.090  11.876  0.00  0.00    +0.045 A 
ATOM      4  C   LIG    1        4.875  22.258  12.975  0.00  0.00    +0.117 A 
ATOM      5  C   LIG    1        3.859  21.307  12.981  0.00  0.00    +0.045 A 
ATOM      6  C   LIG    1        3.022  21.190  11.869  0.00  0.00    +0.004 A 
ENDROOT
BRANCH   4   7
ATOM      7  O   LIG    1        5.714  22.409  14.039  0.00  0.00    -0.507 OA
ATOM      8  H   LIG    1        6.417  23.031  13.791  0.00  0.00    +0.292 HD
ENDBRANCH   4   7
TORSDOF 1
ENDMDL
MODEL 6
REMARK VINA RESULT:      -4.6      1.930      2.642
REMARK  Name = 
REMARK                            x       y       z     vdW  Elec       q    Type
REMARK                         _______ _______ _______ _____ _____    ______ ____
ROOT
ATOM      1  C   LIG    1        4.041  28.622   5.345  0.00  0.00    +0.000 A 
ATOM      2  C   LIG    1        3.389  29.784   4.930  0.00  0.00    +0.004 A 
ATOM      3  C   LIG    1        2.025  29.751   4.642  0.00  0.00    +0.045 A 
ATOM      4  C   LIG    1        1.323  28.558   4.773  0.00  0.00    +0.117 A 
ATOM      5  C   LIG    1        1.963  27.394   5.188  0.00  0.00    +0.045 A 
ATOM      6  C   LIG    1        3.329  27.428   5.474  0.00  0.00    +0.004 A 
ENDROOT
BRANCH   4   7
ATOM      7  O   LIG    1       -0.009  28.570   4.481  0.00  0.00    -0.507 OA
ATOM      8  H   LIG    1       -0.391  29.396   4.821  0.00  0.00    +0.292 HD
ENDBRANCH   4   7
TORSDOF 1
ENDMDL
MODEL 7
REMARK VINA RESULT:      -4.5      8.335      8.841
REMARK  Name = 
REMARK                            x       y       z     vdW  Elec       q    Type
REMARK                         _______ _______ _______ _____ _____    ______ ____
ROOT
ATOM      1  C   LIG    1        2.272  21.317   8.979  0.00  0.00    +0.000 A 
ATOM      2  C   LIG    1        3.150  20.595   8.171  0.00  0.00    +0.004 A 
ATOM      3  C   LIG    1        4.407  20.236   8.655  0.00  0.00    +0.045 A 
ATOM      4  C   LIG    1        4.777  20.601   9.946  0.00  0.00    +0.117 A 
ATOM      5  C   LIG    1        3.908  21.320  10.761  0.00  0.00    +0.045 A 
ATOM      6  C   LIG    1        2.650  21.680  10.273  0.00  0.00    +0.004 A 
ENDROOT
BRANCH   4   7
ATOM      7  O   LIG    1        6.015  20.231  10.380  0.00  0.00    -0.507 OA
ATOM      8  H   LIG    1        6.279  19.424   9.907  0.00  0.00    +0.292 HD
ENDBRANCH   4   7
TORSDOF 1
ENDMDL
MODEL 8
REMARK VINA RESULT:      -4.5      7.210      8.436
REMARK  Name = 
REMARK                            x       y       z     vdW  Elec       q    Type
REMARK                         _______ _______ _______ _____ _____    ______ ____
ROOT
ATOM      1  C   LIG    1        4.991  21.550  11.331  0.00  0.00    +0.000 A 
ATOM      2  C   LIG    1        4.308  22.701  10.938  0.00  0.00    +0.004 A 
ATOM      3  C   LIG    1        3.819  22.810   9.637  0.00  0.00    +0.045 A 
ATOM      4  C   LIG    1        4.016  21.767   8.738  0.00  0.00    +0.117 A 
ATOM      5  C   LIG    1        4.695  20.614   9.120  0.00  0.00    +0.045 A 
ATOM      6  C   LIG    1        5.185  20.507  10.423  0.00  0.00    +0.004 A 
ENDROOT
BRANCH   4   7
ATOM      7  O   LIG    1        3.523  21.915   7.476  0.00  0.00    -0.507 OA
ATOM      8  H   LIG    1        4.172  22.408   6.947  0.00  0.00    +0.292 HD
ENDBRANCH   4   7
TORSDOF 1
ENDMDL
MODEL 9
REMARK VINA RESULT:      -4.4      8.020      8.309
REMARK  Name = 
REMARK                            x       y       z     vdW  Elec       q    Type
REMARK                         _______ _______ _______ _____ _____    ______ ____
ROOT
ATOM      1  C   LIG    1        2.760  21.473  10.597  0.00  0.00    +0.000 A 
ATOM      2  C   LIG    1        4.046  21.461  10.055  0.00  0.00    +0.004 A 
ATOM      3  C   LIG    1        4.232  21.142   8.710  0.00  0.00    +0.045 A 
ATOM      4  C   LIG    1        3.131  20.838   7.917  0.00  0.00    +0.117 A 
ATOM      5  C   LIG    1        1.844  20.848   8.446  0.00  0.00    +0.045 A 
ATOM      6  C   LIG    1        1.660  21.166   9.794  0.00  0.00    +0.004 A 
ENDROOT
BRANCH   4   7
ATOM      7  O   LIG    1        3.357  20.531   6.608  0.00  0.00    -0.507 OA
ATOM      8  H   LIG    1        4.294  20.696   6.411  0.00  0.00    +0.292 HD
ENDBRANCH   4   7
TORSDOF 1
ENDMDL
