MODEL 1
REMARK VINA RESULT:      -8.4      0.000      0.000
REMARK  Name = 
REMARK                            x       y       z     vdW  Elec       q    Type
REMARK                         _______ _______ _______ _____ _____    ______ ____
ROOT
ATOM      1  C   LIG    1       -7.109  -4.982  12.546  0.00  0.00    +0.015 C 
ATOM      2  C   LIG    1       -7.856  -6.344  12.478  0.00  0.00    +0.021 C 
ATOM      3  C   LIG    1       -6.186  -4.988  11.295  0.00  0.00    +0.021 C 
ENDROOT
BRANCH   1   7
ATOM      4  C   LIG    1       -4.501  -4.434  16.003  0.00  0.00    +0.117 A 
ATOM      5  C   LIG    1       -5.876  -4.421  16.182  0.00  0.00    +0.046 A 
ATOM      6  C   LIG    1       -6.729  -4.615  15.089  0.00  0.00    +0.008 A 
ATOM      7  C   LIG    1       -6.213  -4.825  13.799  0.00  0.00    -0.037 A 
ATOM      8  C   LIG    1       -4.807  -4.842  13.656  0.00  0.00    +0.008 A 
ATOM      9  C   LIG    1       -3.955  -4.650  14.747  0.00  0.00    +0.046 A 
BRANCH   4  10
ATOM     10  O   LIG    1       -3.710  -4.222  17.093  0.00  0.00    -0.507 OA
ATOM     11  H   LIG    1       -2.783  -4.252  16.809  0.00  0.00    +0.292 HD
ENDBRANCH   4  10
ENDBRANCH   1   7
BRANCH   1  12
ATOM     12  C   LIG    1       -8.156  -3.839  12.533  0.00  0.00    -0.037 A 
ATOM     13  C   LIG    1       -9.508  -4.121  12.820  0.00  0.00    +0.008 A 
ATOM     14  C   LIG    1      -10.463  -3.105  12.897  0.00  0.00    +0.046 A 
ATOM     15  C   LIG    1      -10.080  -1.787  12.712  0.00  0.00    +0.117 A 
ATOM     16  C   LIG    1       -8.758  -1.469  12.428  0.00  0.00    +0.046 A 
ATOM     17  C   LIG    1       -7.805  -2.490  12.335  0.00  0.00    +0.008 A 
BRANCH  15  18
ATOM     18  O   LIG    1      -11.035  -0.822  12.833  0.00  0.00    -0.507 OA
ATOM     19  H   LIG    1      -11.612  -1.053  13.579  0.00  0.00    +0.292 HD
ENDBRANCH  15  18
ENDBRANCH   1  12
TORSDOF 4
ENDMDL
MODEL 2
REMARK VINA RESULT:      -8.3      0.110      5.539
REMARK  Name = 
REMARK                            x       y       z     vdW  Elec       q    Type
REMARK                         _______ _______ _______ _____ _____    ______ ____
ROOT
ATOM      1  C   LIG    1       -7.131  -4.971  12.619  0.00  0.00    +0.015 C 
ATOM      2  C   LIG    1       -6.223  -5.052  11.359  0.00  0.00    +0.021 C 
ATOM      3  C   LIG    1       -7.947  -6.294  12.589  0.00  0.00    +0.021 C 
ENDROOT
BRANCH   1   7
ATOM      4  C   LIG    1      -10.013  -1.694  12.672  0.00  0.00    +0.117 A 
ATOM      5  C   LIG    1       -8.680  -1.420  12.408  0.00  0.00    +0.046 A 
ATOM      6  C   LIG    1       -7.744  -2.460  12.366  0.00  0.00    +0.008 A 
ATOM      7  C   LIG    1       -8.133  -3.791  12.590  0.00  0.00    -0.037 A 
ATOM      8  C   LIG    1       -9.501  -4.034  12.847  0.00  0.00    +0.008 A 
ATOM      9  C   LIG    1      -10.437  -2.997  12.887  0.00  0.00    +0.046 A 
BRANCH   4  10
ATOM     10  O   LIG    1      -10.885  -0.647  12.721  0.00  0.00    -0.507 OA
ATOM     11  H   LIG    1      -11.318  -0.569  11.856  0.00  0.00    +0.292 HD
ENDBRANCH   4  10
ENDBRANCH   1   7
BRANCH   1  12
ATOM     12  C   LIG    1       -6.230  -4.832  13.873  0.00  0.00    -0.037 A 
ATOM     13  C   LIG    1       -4.826  -4.836  13.733  0.00  0.00    +0.008 A 
ATOM     14  C   LIG    1       -3.985  -4.632  14.829  0.00  0.00    +0.046 A 
ATOM     15  C   LIG    1       -4.532  -4.397  16.080  0.00  0.00    +0.117 A 
ATOM     16  C   LIG    1       -5.909  -4.384  16.257  0.00  0.00    +0.046 A 
ATOM     17  C   LIG    1       -6.751  -4.605  15.161  0.00  0.00    +0.008 A 
BRANCH  15  18
ATOM     18  O   LIG    1       -3.677  -4.164  17.116  0.00  0.00    -0.507 OA
ATOM     19  H   LIG    1       -3.462  -3.218  17.131  0.00  0.00    +0.292 HD
ENDBRANCH  15  18
ENDBRANCH   1  12
TORSDOF 4
ENDMDL
MODEL 3
REMARK VINA RESULT:      -8.3      0.135      5.499
REMARK  Name = 
REMARK                            x       y       z     vdW  Elec       q    Type
REMARK                         _______ _______ _______ _____ _____    ______ ____
ROOT
ATOM      1  C   LIG    1       -7.093  -4.848  12.586  0.00  0.00    +0.015 C 
ATOM      2  C   LIG    1       -6.220  -4.899  11.299  0.00  0.00    +0.021 C 
ATOM      3  C   LIG    1       -7.845  -6.209  12.594  0.00  0.00    +0.021 C 
ENDROOT
BRANCH   1   7
ATOM      4  C   LIG    1      -10.130  -1.716  12.694  0.00  0.00    +0.117 A 
ATOM      5  C   LIG    1       -8.814  -1.376  12.419  0.00  0.00    +0.046 A 
ATOM      6  C   LIG    1       -7.829  -2.368  12.359  0.00  0.00    +0.008 A 
ATOM      7  C   LIG    1       -8.151  -3.718  12.576  0.00  0.00    -0.037 A 
ATOM      8  C   LIG    1       -9.503  -4.030  12.844  0.00  0.00    +0.008 A 
ATOM      9  C   LIG    1      -10.487  -3.039  12.902  0.00  0.00    +0.046 A 
BRANCH   4  10
ATOM     10  O   LIG    1      -11.051  -0.713  12.760  0.00  0.00    -0.507 OA
ATOM     11  H   LIG    1      -11.935  -1.112  12.812  0.00  0.00    +0.292 HD
ENDBRANCH   4  10
ENDBRANCH   1   7
BRANCH   1  12
ATOM     12  C   LIG    1       -6.162  -4.652  13.810  0.00  0.00    -0.037 A 
ATOM     13  C   LIG    1       -6.717  -4.482  15.095  0.00  0.00    +0.008 A 
ATOM     14  C   LIG    1       -5.909  -4.383  16.230  0.00  0.00    +0.046 A 
ATOM     15  C   LIG    1       -4.533  -4.477  16.104  0.00  0.00    +0.117 A 
ATOM     16  C   LIG    1       -3.949  -4.647  14.856  0.00  0.00    +0.046 A 
ATOM     17  C   LIG    1       -4.759  -4.728  13.716  0.00  0.00    +0.008 A 
BRANCH  15  18
ATOM     18  O   LIG    1       -3.783  -4.416  17.240  0.00  0.00    -0.507 OA
ATOM     19  H   LIG    1       -2.927  -4.013  17.022  0.00  0.00    +0.292 HD
ENDBRANCH  15  18
ENDBRANCH   1  12
TORSDOF 4
ENDMDL
MODEL 4
REMARK VINA RESULT:      -8.1      2.520      5.209
REMARK  Name = 
REMARK                            x       y       z     vdW  Elec       q    Type
REMARK                         _______ _______ _______ _____ _____    ______ ____
ROOT
ATOM      1  C   LIG    1       -7.573  -4.178  13.075  0.00  0.00    +0.015 C 
ATOM      2  C   LIG    1       -9.078  -3.994  13.421  0.00  0.00    +0.021 C 
ATOM      3  C   LIG    1       -7.201  -2.890  12.288  0.00  0.00    +0.021 C 
ENDROOT
BRANCH   1   7
ATOM      4  C   LIG    1       -6.618  -7.586  10.521  0.00  0.00    +0.117 A 
ATOM      5  C   LIG    1       -7.566  -7.733  11.523  0.00  0.00    +0.046 A 
ATOM      6  C   LIG    1       -7.901  -6.647  12.339  0.00  0.00    +0.008 A 
ATOM      7  C   LIG    1       -7.288  -5.395  12.162  0.00  0.00    -0.037 A 
ATOM      8  C   LIG    1       -6.334  -5.278  11.126  0.00  0.00    +0.008 A 
ATOM      9  C   LIG    1       -6.000  -6.363  10.310  0.00  0.00    +0.046 A 
BRANCH   4  10
ATOM     10  O   LIG    1       -6.311  -8.677   9.764  0.00  0.00    -0.507 OA
ATOM     11  H   LIG    1       -5.745  -8.389   9.029  0.00  0.00    +0.292 HD
ENDBRANCH   4  10
ENDBRANCH   1   7
BRANCH   1  12
ATOM     12  C   LIG    1       -6.777  -4.344  14.395  0.00  0.00    -0.037 A 
ATOM     13  C   LIG    1       -7.465  -4.489  15.618  0.00  0.00    +0.008 A 
ATOM     14  C   LIG    1       -6.783  -4.722  16.814  0.00  0.00    +0.046 A 
ATOM     15  C   LIG    1       -5.403  -4.838  16.806  0.00  0.00    +0.117 A 
ATOM     16  C   LIG    1       -4.690  -4.703  15.622  0.00  0.00    +0.046 A 
ATOM     17  C   LIG    1       -5.374  -4.452  14.426  0.00  0.00    +0.008 A 
BRANCH  15  18
ATOM     18  O   LIG    1       -4.778  -5.104  17.988  0.00  0.00    -0.507 OA
ATOM     19  H   LIG    1       -5.269  -5.806  18.444  0.00  0.00    +0.292 HD
ENDBRANCH  15  18
ENDBRANCH   1  12
TORSDOF 4
ENDMDL
MODEL 5
REMARK VINA RESULT:      -8.1      2.538      4.350
REMARK  Name = 
REMARK                            x       y       z     vdW  Elec       q    Type
REMARK                         _______ _______ _______ _____ _____    ______ ____
ROOT
ATOM      1  C   LIG    1       -7.534  -4.217  13.077  0.00  0.00    +0.015 C 
ATOM      2  C   LIG    1       -7.161  -2.916  12.313  0.00  0.00    +0.021 C 
ATOM      3  C   LIG    1       -9.036  -4.036  13.433  0.00  0.00    +0.021 C 
ENDROOT
BRANCH   1   7
ATOM      4  C   LIG    1       -5.421  -4.876  16.839  0.00  0.00    +0.117 A 
ATOM      5  C   LIG    1       -4.697  -4.792  15.659  0.00  0.00    +0.046 A 
ATOM      6  C   LIG    1       -5.354  -4.561  14.445  0.00  0.00    +0.008 A 
ATOM      7  C   LIG    1       -6.750  -4.411  14.398  0.00  0.00    -0.037 A 
ATOM      8  C   LIG    1       -7.455  -4.492  15.619  0.00  0.00    +0.008 A 
ATOM      9  C   LIG    1       -6.800  -4.721  16.832  0.00  0.00    +0.046 A 
BRANCH   4  10
ATOM     10  O   LIG    1       -4.740  -5.121  17.994  0.00  0.00    -0.507 OA
ATOM     11  H   LIG    1       -5.029  -5.979  18.343  0.00  0.00    +0.292 HD
ENDBRANCH   4  10
ENDBRANCH   1   7
BRANCH   1  12
ATOM     12  C   LIG    1       -7.263  -5.431  12.151  0.00  0.00    -0.037 A 
ATOM     13  C   LIG    1       -6.265  -5.350  11.159  0.00  0.00    +0.008 A 
ATOM     14  C   LIG    1       -5.939  -6.449  10.362  0.00  0.00    +0.046 A 
ATOM     15  C   LIG    1       -6.588  -7.657  10.558  0.00  0.00    +0.117 A 
ATOM     16  C   LIG    1       -7.576  -7.777  11.527  0.00  0.00    +0.046 A 
ATOM     17  C   LIG    1       -7.914  -6.669  12.314  0.00  0.00    +0.008 A 
BRANCH  15  18
ATOM     18  O   LIG    1       -6.214  -8.716   9.786  0.00  0.00    -0.507 OA
ATOM     19  H   LIG    1       -6.303  -8.463   8.853  0.00  0.00    +0.292 HD
ENDBRANCH  15  18
ENDBRANCH   1  12
TORSDOF 4
ENDMDL
MODEL 6
REMARK VINA RESULT:      -7.9      1.675      2.410
REMARK  Name = 
REMARK                            x       y       z     vdW  Elec       q    Type
REMARK                         _______ _______ _______ _____ _____    ______ ____
ROOT
ATOM      1  C   LIG    1       -6.831  -5.438  12.434  0.00  0.00    +0.015 C 
ATOM      2  C   LIG    1       -8.166  -6.127  12.833  0.00  0.00    +0.021 C 
ATOM      3  C   LIG    1       -6.052  -6.533  11.652  0.00  0.00    +0.021 C 
ENDROOT
BRANCH   1   7
ATOM      4  C   LIG    1       -4.467  -4.332  15.933  0.00  0.00    +0.117 A 
ATOM      5  C   LIG    1       -3.820  -4.618  14.740  0.00  0.00    +0.046 A 
ATOM      6  C   LIG    1       -4.562  -4.954  13.601  0.00  0.00    +0.008 A 
ATOM      7  C   LIG    1       -5.965  -5.010  13.645  0.00  0.00    -0.037 A 
ATOM      8  C   LIG    1       -6.591  -4.704  14.874  0.00  0.00    +0.008 A 
ATOM      9  C   LIG    1       -5.851  -4.367  16.011  0.00  0.00    +0.046 A 
BRANCH   4  10
ATOM     10  O   LIG    1       -3.702  -4.028  17.020  0.00  0.00    -0.507 OA
ATOM     11  H   LIG    1       -4.196  -4.272  17.819  0.00  0.00    +0.292 HD
ENDBRANCH   4  10
ENDBRANCH   1   7
BRANCH   1  12
ATOM     12  C   LIG    1       -7.154  -4.184  11.581  0.00  0.00    -0.037 A 
ATOM     13  C   LIG    1       -7.092  -4.256  10.174  0.00  0.00    +0.008 A 
ATOM     14  C   LIG    1       -7.454  -3.172   9.373  0.00  0.00    +0.046 A 
ATOM     15  C   LIG    1       -7.907  -2.003   9.962  0.00  0.00    +0.117 A 
ATOM     16  C   LIG    1       -7.984  -1.894  11.344  0.00  0.00    +0.046 A 
ATOM     17  C   LIG    1       -7.604  -2.976  12.148  0.00  0.00    +0.008 A 
BRANCH  15  18
ATOM     18  O   LIG    1       -8.288  -0.981   9.144  0.00  0.00    -0.507 OA
ATOM     19  H   LIG    1       -9.108  -1.238   8.693  0.00  0.00    +0.292 HD
ENDBRANCH  15  18
ENDBRANCH   1  12
TORSDOF 4
ENDMDL
MODEL 7
REMARK VINA RESULT:      -7.9      2.759      3.793
REMARK  Name = 
REMARK                            x       y       z     vdW  Elec       q    Type
REMARK                         _______ _______ _______ _____ _____    ______ ____
ROOT
ATOM      1  C   LIG    1       -5.924  -6.112  11.596  0.00  0.00    +0.015 C 
ATOM      2  C   LIG    1       -5.925  -7.667  11.583  0.00  0.00    +0.021 C 
ATOM      3  C   LIG    1       -4.441  -5.726  11.334  0.00  0.00    +0.021 C 
ENDROOT
BRANCH   1   7
ATOM      4  C   LIG    1       -7.186  -4.515  15.457  0.00  0.00    +0.117 A 
ATOM      5  C   LIG    1       -5.846  -4.458  15.104  0.00  0.00    +0.046 A 
ATOM      6  C   LIG    1       -5.424  -4.946  13.862  0.00  0.00    +0.008 A 
ATOM      7  C   LIG    1       -6.343  -5.500  12.955  0.00  0.00    -0.037 A 
ATOM      8  C   LIG    1       -7.701  -5.534  13.344  0.00  0.00    +0.008 A 
ATOM      9  C   LIG    1       -8.123  -5.046  14.583  0.00  0.00    +0.046 A 
BRANCH   4  10
ATOM     10  O   LIG    1       -7.546  -4.045  16.685  0.00  0.00    -0.507 OA
ATOM     11  H   LIG    1       -8.362  -3.529  16.587  0.00  0.00    +0.292 HD
ENDBRANCH   4  10
ENDBRANCH   1   7
BRANCH   1  12
ATOM     12  C   LIG    1       -6.894  -5.605  10.498  0.00  0.00    -0.037 A 
ATOM     13  C   LIG    1       -6.864  -4.251  10.104  0.00  0.00    +0.008 A 
ATOM     14  C   LIG    1       -7.666  -3.778   9.063  0.00  0.00    +0.046 A 
ATOM     15  C   LIG    1       -8.495  -4.654   8.381  0.00  0.00    +0.117 A 
ATOM     16  C   LIG    1       -8.552  -5.994   8.739  0.00  0.00    +0.046 A 
ATOM     17  C   LIG    1       -7.760  -6.464   9.795  0.00  0.00    +0.008 A 
BRANCH  15  18
ATOM     18  O   LIG    1       -9.232  -4.160   7.347  0.00  0.00    -0.507 OA
ATOM     19  H   LIG    1       -8.637  -3.987   6.600  0.00  0.00    +0.292 HD
ENDBRANCH  15  18
ENDBRANCH   1  12
TORSDOF 4
ENDMDL
MODEL 8
REMARK VINA RESULT:      -7.8      2.389      5.532
REMARK  Name = 
REMARK                            x       y       z     vdW  Elec       q    Type
REMARK                         _______ _______ _______ _____ _____    ______ ____
ROOT
ATOM      1  C   LIG    1       -7.703  -3.729  13.145  0.00  0.00    +0.015 C 
ATOM      2  C   LIG    1       -9.188  -3.564  13.574  0.00  0.00    +0.021 C 
ATOM      3  C   LIG    1       -7.306  -2.331  12.594  0.00  0.00    +0.021 C 
ENDROOT
BRANCH   1   7
ATOM      4  C   LIG    1       -7.257  -6.690   9.970  0.00  0.00    +0.117 A 
ATOM      5  C   LIG    1       -6.784  -5.402   9.768  0.00  0.00    +0.046 A 
ATOM      6  C   LIG    1       -6.899  -4.444  10.782  0.00  0.00    +0.008 A 
ATOM      7  C   LIG    1       -7.492  -4.765  12.014  0.00  0.00    -0.037 A 
ATOM      8  C   LIG    1       -7.955  -6.088  12.188  0.00  0.00    +0.008 A 
ATOM      9  C   LIG    1       -7.839  -7.046  11.177  0.00  0.00    +0.046 A 
BRANCH   4  10
ATOM     10  O   LIG    1       -7.140  -7.584   8.947  0.00  0.00    -0.507 OA
ATOM     11  H   LIG    1       -7.269  -8.477   9.306  0.00  0.00    +0.292 HD
ENDBRANCH   4  10
ENDBRANCH   1   7
BRANCH   1  12
ATOM     12  C   LIG    1       -6.874  -4.161  14.381  0.00  0.00    -0.037 A 
ATOM     13  C   LIG    1       -5.465  -4.180  14.312  0.00  0.00    +0.008 A 
ATOM     14  C   LIG    1       -4.685  -4.486  15.428  0.00  0.00    +0.046 A 
ATOM     15  C   LIG    1       -5.297  -4.756  16.641  0.00  0.00    +0.117 A 
ATOM     16  C   LIG    1       -6.681  -4.746  16.750  0.00  0.00    +0.046 A 
ATOM     17  C   LIG    1       -7.463  -4.456  15.626  0.00  0.00    +0.008 A 
BRANCH  15  18
ATOM     18  O   LIG    1       -4.499  -5.011  17.716  0.00  0.00    -0.507 OA
ATOM     19  H   LIG    1       -4.995  -5.562  18.343  0.00  0.00    +0.292 HD
ENDBRANCH  15  18
ENDBRANCH   1  12
TORSDOF 4
ENDMDL
MODEL 9
REMARK VINA RESULT:      -7.7      2.756      5.637
REMARK  Name = 
REMARK                            x       y       z     vdW  Elec       q    Type
REMARK                         _______ _______ _______ _____ _____    ______ ____
ROOT
ATOM      1  C   LIG    1       -5.900  -6.207  11.520  0.00  0.00    +0.015 C 
ATOM      2  C   LIG    1       -4.414  -5.799  11.315  0.00  0.00    +0.021 C 
ATOM      3  C   LIG    1       -5.889  -7.758  11.422  0.00  0.00    +0.021 C 
ENDROOT
BRANCH   1   7
ATOM      4  C   LIG    1       -8.462  -4.611   8.367  0.00  0.00    +0.117 A 
ATOM      5  C   LIG    1       -8.518  -5.963   8.667  0.00  0.00    +0.046 A 
ATOM      6  C   LIG    1       -7.720  -6.491   9.689  0.00  0.00    +0.008 A 
ATOM      7  C   LIG    1       -6.851  -5.666  10.424  0.00  0.00    -0.037 A 
ATOM      8  C   LIG    1       -6.827  -4.292  10.098  0.00  0.00    +0.008 A 
ATOM      9  C   LIG    1       -7.625  -3.765   9.079  0.00  0.00    +0.046 A 
BRANCH   4  10
ATOM     10  O   LIG    1       -9.244  -4.146   7.352  0.00  0.00    -0.507 OA
ATOM     11  H   LIG    1       -8.682  -3.648   6.737  0.00  0.00    +0.292 HD
ENDBRANCH   4  10
ENDBRANCH   1   7
BRANCH   1  12
ATOM     12  C   LIG    1       -6.374  -5.680  12.899  0.00  0.00    -0.037 A 
ATOM     13  C   LIG    1       -5.442  -5.113  13.793  0.00  0.00    +0.008 A 
ATOM     14  C   LIG    1       -5.845  -4.555  15.008  0.00  0.00    +0.046 A 
ATOM     15  C   LIG    1       -7.189  -4.533  15.342  0.00  0.00    +0.117 A 
ATOM     16  C   LIG    1       -8.137  -5.081  14.487  0.00  0.00    +0.046 A 
ATOM     17  C   LIG    1       -7.730  -5.655  13.276  0.00  0.00    +0.008 A 
BRANCH  15  18
ATOM     18  O   LIG    1       -7.546  -3.946  16.519  0.00  0.00    -0.507 OA
ATOM     19  H   LIG    1       -6.791  -3.428  16.844  0.00  0.00    +0.292 HD
ENDBRANCH  15  18
ENDBRANCH   1  12
TORSDOF 4
ENDMDL
