MODEL 1
REMARK VINA RESULT:      -7.9      0.000      0.000
REMARK  Name = 
REMARK                            x       y       z     vdW  Elec       q    Type
REMARK                         _______ _______ _______ _____ _____    ______ ____
ROOT
ATOM      1  C   LIG    1       64.873  44.907  33.536  0.00  0.00    +0.015 C 
ATOM      2  C   LIG    1       64.766  43.463  34.103  0.00  0.00    +0.021 C 
ATOM      3  C   LIG    1       66.313  45.359  33.907  0.00  0.00    +0.021 C 
ENDROOT
BRANCH   1   7
ATOM      4  C   LIG    1       61.974  47.602  35.375  0.00  0.00    +0.117 A 
ATOM      5  C   LIG    1       63.301  47.659  35.773  0.00  0.00    +0.046 A 
ATOM      6  C   LIG    1       64.250  46.817  35.181  0.00  0.00    +0.008 A 
ATOM      7  C   LIG    1       63.879  45.904  34.179  0.00  0.00    -0.037 A 
ATOM      8  C   LIG    1       62.521  45.880  33.792  0.00  0.00    +0.008 A 
ATOM      9  C   LIG    1       61.573  46.721  34.382  0.00  0.00    +0.046 A 
BRANCH   4  10
ATOM     10  O   LIG    1       61.083  48.428  35.993  0.00  0.00    -0.507 OA
ATOM     11  H   LIG    1       61.402  48.603  36.893  0.00  0.00    +0.292 HD
ENDBRANCH   4  10
ENDBRANCH   1   7
BRANCH   1  12
ATOM     12  C   LIG    1       64.617  44.860  32.008  0.00  0.00    -0.037 A 
ATOM     13  C   LIG    1       64.175  43.664  31.405  0.00  0.00    +0.008 A 
ATOM     14  C   LIG    1       63.858  43.607  30.046  0.00  0.00    +0.046 A 
ATOM     15  C   LIG    1       63.954  44.751  29.270  0.00  0.00    +0.117 A 
ATOM     16  C   LIG    1       64.384  45.947  29.827  0.00  0.00    +0.046 A 
ATOM     17  C   LIG    1       64.719  45.999  31.186  0.00  0.00    +0.008 A 
BRANCH  15  18
ATOM     18  O   LIG    1       63.598  44.663  27.957  0.00  0.00    -0.507 OA
ATOM     19  H   LIG    1       63.745  43.750  27.660  0.00  0.00    +0.292 HD
ENDBRANCH  15  18
ENDBRANCH   1  12
TORSDOF 4
ENDMDL
MODEL 2
REMARK VINA RESULT:      -7.9      0.149      5.453
REMARK  Name = 
REMARK                            x       y       z     vdW  Elec       q    Type
REMARK                         _______ _______ _______ _____ _____    ______ ____
ROOT
ATOM      1  C   LIG    1       64.778  44.919  33.400  0.00  0.00    +0.015 C 
ATOM      2  C   LIG    1       66.237  45.305  33.772  0.00  0.00    +0.021 C 
ATOM      3  C   LIG    1       64.617  43.467  33.932  0.00  0.00    +0.021 C 
ENDROOT
BRANCH   1   7
ATOM      4  C   LIG    1       63.882  44.798  29.130  0.00  0.00    +0.117 A 
ATOM      5  C   LIG    1       64.299  45.990  29.702  0.00  0.00    +0.046 A 
ATOM      6  C   LIG    1       64.610  46.045  31.065  0.00  0.00    +0.008 A 
ATOM      7  C   LIG    1       64.507  44.901  31.875  0.00  0.00    -0.037 A 
ATOM      8  C   LIG    1       64.089  43.702  31.257  0.00  0.00    +0.008 A 
ATOM      9  C   LIG    1       63.779  43.646  29.896  0.00  0.00    +0.046 A 
BRANCH   4  10
ATOM     10  O   LIG    1       63.571  44.797  27.802  0.00  0.00    -0.507 OA
ATOM     11  H   LIG    1       63.978  44.016  27.393  0.00  0.00    +0.292 HD
ENDBRANCH   4  10
ENDBRANCH   1   7
BRANCH   1  12
ATOM     12  C   LIG    1       63.811  45.930  34.068  0.00  0.00    -0.037 A 
ATOM     13  C   LIG    1       62.447  45.941  33.708  0.00  0.00    +0.008 A 
ATOM     14  C   LIG    1       61.532  46.782  34.346  0.00  0.00    +0.046 A 
ATOM     15  C   LIG    1       61.959  47.609  35.372  0.00  0.00    +0.117 A 
ATOM     16  C   LIG    1       63.293  47.626  35.756  0.00  0.00    +0.046 A 
ATOM     17  C   LIG    1       64.213  46.795  35.103  0.00  0.00    +0.008 A 
BRANCH  15  18
ATOM     18  O   LIG    1       61.028  48.385  35.995  0.00  0.00    -0.507 OA
ATOM     19  H   LIG    1       60.464  48.793  35.318  0.00  0.00    +0.292 HD
ENDBRANCH  15  18
ENDBRANCH   1  12
TORSDOF 4
ENDMDL
MODEL 3
REMARK VINA RESULT:      -7.7      0.352      1.657
REMARK  Name = 
REMARK                            x       y       z     vdW  Elec       q    Type
REMARK                         _______ _______ _______ _____ _____    ______ ____
ROOT
ATOM      1  C   LIG    1       64.661  45.039  33.595  0.00  0.00    +0.015 C 
ATOM      2  C   LIG    1       64.702  43.592  34.162  0.00  0.00    +0.021 C 
ATOM      3  C   LIG    1       66.081  45.604  33.880  0.00  0.00    +0.021 C 
ENDROOT
BRANCH   1   7
ATOM      4  C   LIG    1       61.841  47.745  35.538  0.00  0.00    +0.117 A 
ATOM      5  C   LIG    1       61.357  46.722  34.736  0.00  0.00    +0.046 A 
ATOM      6  C   LIG    1       62.244  45.832  34.121  0.00  0.00    +0.008 A 
ATOM      7  C   LIG    1       63.632  45.956  34.301  0.00  0.00    -0.037 A 
ATOM      8  C   LIG    1       64.089  47.004  35.131  0.00  0.00    +0.008 A 
ATOM      9  C   LIG    1       63.204  47.893  35.747  0.00  0.00    +0.046 A 
BRANCH   4  10
ATOM     10  O   LIG    1       60.940  48.600  36.101  0.00  0.00    -0.507 OA
ATOM     11  H   LIG    1       61.361  49.030  36.862  0.00  0.00    +0.292 HD
ENDBRANCH   4  10
ENDBRANCH   1   7
BRANCH   1  12
ATOM     12  C   LIG    1       64.317  44.972  32.085  0.00  0.00    -0.037 A 
ATOM     13  C   LIG    1       64.075  46.160  31.365  0.00  0.00    +0.008 A 
ATOM     14  C   LIG    1       63.842  46.143  29.988  0.00  0.00    +0.046 A 
ATOM     15  C   LIG    1       63.872  44.941  29.301  0.00  0.00    +0.117 A 
ATOM     16  C   LIG    1       64.109  43.750  29.974  0.00  0.00    +0.046 A 
ATOM     17  C   LIG    1       64.325  43.766  31.358  0.00  0.00    +0.008 A 
BRANCH  15  18
ATOM     18  O   LIG    1       63.679  44.972  27.952  0.00  0.00    -0.507 OA
ATOM     19  H   LIG    1       63.788  44.071  27.606  0.00  0.00    +0.292 HD
ENDBRANCH  15  18
ENDBRANCH   1  12
TORSDOF 4
ENDMDL
MODEL 4
REMARK VINA RESULT:      -7.7      5.086      6.549
REMARK  Name = 
REMARK                            x       y       z     vdW  Elec       q    Type
REMARK                         _______ _______ _______ _____ _____    ______ ____
ROOT
ATOM      1  C   LIG    1       60.193  46.819  28.940  0.00  0.00    +0.015 C 
ATOM      2  C   LIG    1       60.142  48.358  28.722  0.00  0.00    +0.021 C 
ATOM      3  C   LIG    1       60.602  46.248  27.553  0.00  0.00    +0.021 C 
ENDROOT
BRANCH   1   7
ATOM      4  C   LIG    1       56.300  45.087  29.886  0.00  0.00    +0.117 A 
ATOM      5  C   LIG    1       57.451  44.447  30.321  0.00  0.00    +0.046 A 
ATOM      6  C   LIG    1       58.708  44.998  30.045  0.00  0.00    +0.008 A 
ATOM      7  C   LIG    1       58.828  46.200  29.328  0.00  0.00    -0.037 A 
ATOM      8  C   LIG    1       57.635  46.829  28.908  0.00  0.00    +0.008 A 
ATOM      9  C   LIG    1       56.379  46.280  29.184  0.00  0.00    +0.046 A 
BRANCH   4  10
ATOM     10  O   LIG    1       55.099  44.503  30.161  0.00  0.00    -0.507 OA
ATOM     11  H   LIG    1       55.042  44.360  31.119  0.00  0.00    +0.292 HD
ENDBRANCH   4  10
ENDBRANCH   1   7
BRANCH   1  12
ATOM     12  C   LIG    1       61.219  46.510  30.060  0.00  0.00    -0.037 A 
ATOM     13  C   LIG    1       62.323  45.674  29.791  0.00  0.00    +0.008 A 
ATOM     14  C   LIG    1       63.309  45.439  30.751  0.00  0.00    +0.046 A 
ATOM     15  C   LIG    1       63.224  46.054  31.989  0.00  0.00    +0.117 A 
ATOM     16  C   LIG    1       62.153  46.885  32.292  0.00  0.00    +0.046 A 
ATOM     17  C   LIG    1       61.155  47.107  31.334  0.00  0.00    +0.008 A 
BRANCH  15  18
ATOM     18  O   LIG    1       64.227  45.830  32.885  0.00  0.00    -0.507 OA
ATOM     19  H   LIG    1       64.363  44.871  32.959  0.00  0.00    +0.292 HD
ENDBRANCH  15  18
ENDBRANCH   1  12
TORSDOF 4
ENDMDL
MODEL 5
REMARK VINA RESULT:      -7.7      5.075      6.479
REMARK  Name = 
REMARK                            x       y       z     vdW  Elec       q    Type
REMARK                         _______ _______ _______ _____ _____    ______ ____
ROOT
ATOM      1  C   LIG    1       60.203  46.840  28.953  0.00  0.00    +0.015 C 
ATOM      2  C   LIG    1       60.616  46.274  27.565  0.00  0.00    +0.021 C 
ATOM      3  C   LIG    1       60.148  48.379  28.740  0.00  0.00    +0.021 C 
ENDROOT
BRANCH   1   7
ATOM      4  C   LIG    1       63.210  46.053  32.016  0.00  0.00    +0.117 A 
ATOM      5  C   LIG    1       62.142  46.886  32.313  0.00  0.00    +0.046 A 
ATOM      6  C   LIG    1       61.156  47.134  31.351  0.00  0.00    +0.008 A 
ATOM      7  C   LIG    1       61.229  46.550  30.075  0.00  0.00    -0.037 A 
ATOM      8  C   LIG    1       62.326  45.700  29.811  0.00  0.00    +0.008 A 
ATOM      9  C   LIG    1       63.310  45.450  30.771  0.00  0.00    +0.046 A 
BRANCH   4  10
ATOM     10  O   LIG    1       64.156  45.856  32.978  0.00  0.00    -0.507 OA
ATOM     11  H   LIG    1       64.157  44.915  33.218  0.00  0.00    +0.292 HD
ENDBRANCH   4  10
ENDBRANCH   1   7
BRANCH   1  12
ATOM     12  C   LIG    1       58.837  46.226  29.353  0.00  0.00    -0.037 A 
ATOM     13  C   LIG    1       57.639  46.838  28.929  0.00  0.00    +0.008 A 
ATOM     14  C   LIG    1       56.393  46.269  29.202  0.00  0.00    +0.046 A 
ATOM     15  C   LIG    1       56.323  45.065  29.883  0.00  0.00    +0.117 A 
ATOM     16  C   LIG    1       57.480  44.430  30.315  0.00  0.00    +0.046 A 
ATOM     17  C   LIG    1       58.728  45.011  30.056  0.00  0.00    +0.008 A 
BRANCH  15  18
ATOM     18  O   LIG    1       55.091  44.523  30.096  0.00  0.00    -0.507 OA
ATOM     19  H   LIG    1       55.138  43.949  30.877  0.00  0.00    +0.292 HD
ENDBRANCH  15  18
ENDBRANCH   1  12
TORSDOF 4
ENDMDL
MODEL 6
REMARK VINA RESULT:      -7.5      4.275      6.775
REMARK  Name = 
REMARK                            x       y       z     vdW  Elec       q    Type
REMARK                         _______ _______ _______ _____ _____    ______ ____
ROOT
ATOM      1  C   LIG    1       60.983  47.117  29.269  0.00  0.00    +0.015 C 
ATOM      2  C   LIG    1       60.842  47.845  27.902  0.00  0.00    +0.021 C 
ATOM      3  C   LIG    1       61.331  48.250  30.274  0.00  0.00    +0.021 C 
ENDROOT
BRANCH   1   7
ATOM      4  C   LIG    1       64.191  44.169  29.523  0.00  0.00    +0.117 A 
ATOM      5  C   LIG    1       63.244  44.055  28.517  0.00  0.00    +0.046 A 
ATOM      6  C   LIG    1       62.219  45.002  28.406  0.00  0.00    +0.008 A 
ATOM      7  C   LIG    1       62.130  46.078  29.306  0.00  0.00    -0.037 A 
ATOM      8  C   LIG    1       63.117  46.167  30.313  0.00  0.00    +0.008 A 
ATOM      9  C   LIG    1       64.141  45.223  30.423  0.00  0.00    +0.046 A 
BRANCH   4  10
ATOM     10  O   LIG    1       65.159  43.212  29.604  0.00  0.00    -0.507 OA
ATOM     11  H   LIG    1       65.869  43.543  30.177  0.00  0.00    +0.292 HD
ENDBRANCH   4  10
ENDBRANCH   1   7
BRANCH   1  12
ATOM     12  C   LIG    1       59.646  46.399  29.589  0.00  0.00    -0.037 A 
ATOM     13  C   LIG    1       59.406  45.908  30.889  0.00  0.00    +0.008 A 
ATOM     14  C   LIG    1       58.183  45.328  31.234  0.00  0.00    +0.046 A 
ATOM     15  C   LIG    1       57.170  45.251  30.293  0.00  0.00    +0.117 A 
ATOM     16  C   LIG    1       57.368  45.725  29.002  0.00  0.00    +0.046 A 
ATOM     17  C   LIG    1       58.600  46.290  28.653  0.00  0.00    +0.008 A 
BRANCH  15  18
ATOM     18  O   LIG    1       55.978  44.714  30.680  0.00  0.00    -0.507 OA
ATOM     19  H   LIG    1       56.155  43.995  31.308  0.00  0.00    +0.292 HD
ENDBRANCH  15  18
ENDBRANCH   1  12
TORSDOF 4
ENDMDL
MODEL 7
REMARK VINA RESULT:      -7.5      4.219      5.764
REMARK  Name = 
REMARK                            x       y       z     vdW  Elec       q    Type
REMARK                         _______ _______ _______ _____ _____    ______ ____
ROOT
ATOM      1  C   LIG    1       61.062  47.185  29.406  0.00  0.00    +0.015 C 
ATOM      2  C   LIG    1       61.416  48.271  30.461  0.00  0.00    +0.021 C 
ATOM      3  C   LIG    1       60.922  47.975  28.074  0.00  0.00    +0.021 C 
ENDROOT
BRANCH   1   7
ATOM      4  C   LIG    1       57.254  45.247  30.299  0.00  0.00    +0.117 A 
ATOM      5  C   LIG    1       57.485  45.733  29.021  0.00  0.00    +0.046 A 
ATOM      6  C   LIG    1       58.707  46.339  28.709  0.00  0.00    +0.008 A 
ATOM      7  C   LIG    1       59.717  46.467  29.678  0.00  0.00    -0.037 A 
ATOM      8  C   LIG    1       59.451  45.953  30.966  0.00  0.00    +0.008 A 
ATOM      9  C   LIG    1       58.231  45.346  31.278  0.00  0.00    +0.046 A 
BRANCH   4  10
ATOM     10  O   LIG    1       56.042  44.682  30.561  0.00  0.00    -0.507 OA
ATOM     11  H   LIG    1       55.406  45.392  30.744  0.00  0.00    +0.292 HD
ENDBRANCH   4  10
ENDBRANCH   1   7
BRANCH   1  12
ATOM     12  C   LIG    1       62.196  46.129  29.380  0.00  0.00    -0.037 A 
ATOM     13  C   LIG    1       63.179  46.128  30.391  0.00  0.00    +0.008 A 
ATOM     14  C   LIG    1       64.168  45.143  30.445  0.00  0.00    +0.046 A 
ATOM     15  C   LIG    1       64.179  44.129  29.502  0.00  0.00    +0.117 A 
ATOM     16  C   LIG    1       63.228  44.095  28.491  0.00  0.00    +0.046 A 
ATOM     17  C   LIG    1       62.247  45.092  28.428  0.00  0.00    +0.008 A 
BRANCH  15  18
ATOM     18  O   LIG    1       65.137  43.166  29.612  0.00  0.00    -0.507 OA
ATOM     19  H   LIG    1       65.885  43.410  29.043  0.00  0.00    +0.292 HD
ENDBRANCH  15  18
ENDBRANCH   1  12
TORSDOF 4
ENDMDL
MODEL 8
REMARK VINA RESULT:      -7.4      0.530      5.582
REMARK  Name = 
REMARK                            x       y       z     vdW  Elec       q    Type
REMARK                         _______ _______ _______ _____ _____    ______ ____
ROOT
ATOM      1  C   LIG    1       64.842  45.093  32.994  0.00  0.00    +0.015 C 
ATOM      2  C   LIG    1       66.241  45.730  33.222  0.00  0.00    +0.021 C 
ATOM      3  C   LIG    1       64.995  43.634  33.511  0.00  0.00    +0.021 C 
ENDROOT
BRANCH   1   7
ATOM      4  C   LIG    1       63.769  45.012  28.764  0.00  0.00    +0.117 A 
ATOM      5  C   LIG    1       63.895  43.816  29.455  0.00  0.00    +0.046 A 
ATOM      6  C   LIG    1       64.218  43.822  30.817  0.00  0.00    +0.008 A 
ATOM      7  C   LIG    1       64.421  45.030  31.506  0.00  0.00    -0.037 A 
ATOM      8  C   LIG    1       64.275  46.229  30.773  0.00  0.00    +0.008 A 
ATOM      9  C   LIG    1       63.951  46.224  29.413  0.00  0.00    +0.046 A 
BRANCH   4  10
ATOM     10  O   LIG    1       63.472  44.956  27.435  0.00  0.00    -0.507 OA
ATOM     11  H   LIG    1       62.516  44.818  27.341  0.00  0.00    +0.292 HD
ENDBRANCH   4  10
ENDBRANCH   1   7
BRANCH   1  12
ATOM     12  C   LIG    1       63.787  45.915  33.779  0.00  0.00    -0.037 A 
ATOM     13  C   LIG    1       64.201  46.806  34.790  0.00  0.00    +0.008 A 
ATOM     14  C   LIG    1       63.288  47.622  35.461  0.00  0.00    +0.046 A 
ATOM     15  C   LIG    1       61.947  47.580  35.117  0.00  0.00    +0.117 A 
ATOM     16  C   LIG    1       61.500  46.716  34.125  0.00  0.00    +0.046 A 
ATOM     17  C   LIG    1       62.415  45.886  33.465  0.00  0.00    +0.008 A 
BRANCH  15  18
ATOM     18  O   LIG    1       61.093  48.419  35.768  0.00  0.00    -0.507 OA
ATOM     19  H   LIG    1       61.619  49.060  36.274  0.00  0.00    +0.292 HD
ENDBRANCH  15  18
ENDBRANCH   1  12
TORSDOF 4
ENDMDL
MODEL 9
REMARK VINA RESULT:      -7.3      2.401      5.412
REMARK  Name = 
REMARK                            x       y       z     vdW  Elec       q    Type
REMARK                         _______ _______ _______ _____ _____    ______ ____
ROOT
ATOM      1  C   LIG    1       63.977  44.703  30.218  0.00  0.00    +0.015 C 
ATOM      2  C   LIG    1       65.457  44.717  29.740  0.00  0.00    +0.021 C 
ATOM      3  C   LIG    1       63.444  43.311  29.778  0.00  0.00    +0.021 C 
ENDROOT
BRANCH   1   7
ATOM      4  C   LIG    1       61.567  47.727  28.193  0.00  0.00    +0.117 A 
ATOM      5  C   LIG    1       60.937  46.766  28.971  0.00  0.00    +0.046 A 
ATOM      6  C   LIG    1       61.694  45.801  29.645  0.00  0.00    +0.008 A 
ATOM      7  C   LIG    1       63.096  45.785  29.546  0.00  0.00    -0.037 A 
ATOM      8  C   LIG    1       63.704  46.783  28.753  0.00  0.00    +0.008 A 
ATOM      9  C   LIG    1       62.949  47.749  28.081  0.00  0.00    +0.046 A 
BRANCH   4  10
ATOM     10  O   LIG    1       60.787  48.635  27.540  0.00  0.00    -0.507 OA
ATOM     11  H   LIG    1       60.813  48.434  26.591  0.00  0.00    +0.292 HD
ENDBRANCH   4  10
ENDBRANCH   1   7
BRANCH   1  12
ATOM     12  C   LIG    1       63.949  44.916  31.753  0.00  0.00    -0.037 A 
ATOM     13  C   LIG    1       64.402  43.895  32.613  0.00  0.00    +0.008 A 
ATOM     14  C   LIG    1       64.467  44.082  33.996  0.00  0.00    +0.046 A 
ATOM     15  C   LIG    1       64.102  45.301  34.542  0.00  0.00    +0.117 A 
ATOM     16  C   LIG    1       63.651  46.332  33.728  0.00  0.00    +0.046 A 
ATOM     17  C   LIG    1       63.571  46.137  32.343  0.00  0.00    +0.008 A 
BRANCH  15  18
ATOM     18  O   LIG    1       64.216  45.456  35.891  0.00  0.00    -0.507 OA
ATOM     19  H   LIG    1       63.648  46.194  36.165  0.00  0.00    +0.292 HD
ENDBRANCH  15  18
ENDBRANCH   1  12
TORSDOF 4
ENDMDL
