MODEL 1
REMARK VINA RESULT:      -8.0      0.000      0.000
REMARK  Name = 
REMARK                            x       y       z     vdW  Elec       q    Type
REMARK                         _______ _______ _______ _____ _____    ______ ____
ROOT
ATOM      1  C   LIG    1       39.890  -1.389  16.320  0.00  0.00    +0.015 C 
ATOM      2  C   LIG    1       39.776  -2.109  14.947  0.00  0.00    +0.021 C 
ATOM      3  C   LIG    1       38.761  -2.022  17.181  0.00  0.00    +0.021 C 
ENDROOT
BRANCH   1   7
ATOM      4  C   LIG    1       39.134   2.895  15.965  0.00  0.00    +0.117 A 
ATOM      5  C   LIG    1       38.592   2.197  17.034  0.00  0.00    +0.046 A 
ATOM      6  C   LIG    1       38.840   0.827  17.177  0.00  0.00    +0.008 A 
ATOM      7  C   LIG    1       39.636   0.137  16.247  0.00  0.00    -0.037 A 
ATOM      8  C   LIG    1       40.179   0.881  15.176  0.00  0.00    +0.008 A 
ATOM      9  C   LIG    1       39.933   2.250  15.034  0.00  0.00    +0.046 A 
BRANCH   4  10
ATOM     10  O   LIG    1       38.849   4.224  15.857  0.00  0.00    -0.507 OA
ATOM     11  H   LIG    1       38.029   4.320  15.348  0.00  0.00    +0.292 HD
ENDBRANCH   4  10
ENDBRANCH   1   7
BRANCH   1  12
ATOM     12  C   LIG    1       41.310  -1.633  16.893  0.00  0.00    -0.037 A 
ATOM     13  C   LIG    1       41.774  -0.857  17.976  0.00  0.00    +0.008 A 
ATOM     14  C   LIG    1       43.015  -1.103  18.569  0.00  0.00    +0.046 A 
ATOM     15  C   LIG    1       43.803  -2.143  18.106  0.00  0.00    +0.117 A 
ATOM     16  C   LIG    1       43.380  -2.930  17.043  0.00  0.00    +0.046 A 
ATOM     17  C   LIG    1       42.144  -2.672  16.438  0.00  0.00    +0.008 A 
BRANCH  15  18
ATOM     18  O   LIG    1       44.989  -2.375  18.737  0.00  0.00    -0.507 OA
ATOM     19  H   LIG    1       45.706  -2.038  18.176  0.00  0.00    +0.292 HD
ENDBRANCH  15  18
ENDBRANCH   1  12
TORSDOF 4
ENDMDL
MODEL 2
REMARK VINA RESULT:      -7.9      0.046      5.675
REMARK  Name = 
REMARK                            x       y       z     vdW  Elec       q    Type
REMARK                         _______ _______ _______ _____ _____    ______ ____
ROOT
ATOM      1  C   LIG    1       39.919  -1.399  16.339  0.00  0.00    +0.015 C 
ATOM      2  C   LIG    1       38.773  -2.045  17.168  0.00  0.00    +0.021 C 
ATOM      3  C   LIG    1       39.838  -2.106  14.957  0.00  0.00    +0.021 C 
ENDROOT
BRANCH   1   7
ATOM      4  C   LIG    1       43.836  -2.115  18.126  0.00  0.00    +0.117 A 
ATOM      5  C   LIG    1       43.419  -2.906  17.066  0.00  0.00    +0.046 A 
ATOM      6  C   LIG    1       42.175  -2.678  16.466  0.00  0.00    +0.008 A 
ATOM      7  C   LIG    1       41.330  -1.653  16.923  0.00  0.00    -0.037 A 
ATOM      8  C   LIG    1       41.791  -0.861  17.998  0.00  0.00    +0.008 A 
ATOM      9  C   LIG    1       43.034  -1.086  18.597  0.00  0.00    +0.046 A 
BRANCH   4  10
ATOM     10  O   LIG    1       45.047  -2.385  18.691  0.00  0.00    -0.507 OA
ATOM     11  H   LIG    1       45.720  -1.847  18.243  0.00  0.00    +0.292 HD
ENDBRANCH   4  10
ENDBRANCH   1   7
BRANCH   1  12
ATOM     12  C   LIG    1       39.676   0.131  16.263  0.00  0.00    -0.037 A 
ATOM     13  C   LIG    1       40.203   0.873  15.186  0.00  0.00    +0.008 A 
ATOM     14  C   LIG    1       39.937   2.237  15.043  0.00  0.00    +0.046 A 
ATOM     15  C   LIG    1       39.120   2.877  15.960  0.00  0.00    +0.117 A 
ATOM     16  C   LIG    1       38.582   2.180  17.033  0.00  0.00    +0.046 A 
ATOM     17  C   LIG    1       38.863   0.817  17.186  0.00  0.00    +0.008 A 
BRANCH  15  18
ATOM     18  O   LIG    1       38.853   4.199  15.763  0.00  0.00    -0.507 OA
ATOM     19  H   LIG    1       38.959   4.664  16.609  0.00  0.00    +0.292 HD
ENDBRANCH  15  18
ENDBRANCH   1  12
TORSDOF 4
ENDMDL
MODEL 3
REMARK VINA RESULT:      -7.8      2.221      5.989
REMARK  Name = 
REMARK                            x       y       z     vdW  Elec       q    Type
REMARK                         _______ _______ _______ _____ _____    ______ ____
ROOT
ATOM      1  C   LIG    1       38.407  -0.775  13.685  0.00  0.00    +0.015 C 
ATOM      2  C   LIG    1       37.190  -1.706  13.419  0.00  0.00    +0.021 C 
ATOM      3  C   LIG    1       38.908  -0.384  12.266  0.00  0.00    +0.021 C 
ENDROOT
BRANCH   1   7
ATOM      4  C   LIG    1       41.714  -2.610  15.863  0.00  0.00    +0.117 A 
ATOM      5  C   LIG    1       40.531  -3.316  15.706  0.00  0.00    +0.046 A 
ATOM      6  C   LIG    1       39.466  -2.753  14.993  0.00  0.00    +0.008 A 
ATOM      7  C   LIG    1       39.574  -1.471  14.428  0.00  0.00    -0.037 A 
ATOM      8  C   LIG    1       40.796  -0.785  14.600  0.00  0.00    +0.008 A 
ATOM      9  C   LIG    1       41.861  -1.347  15.310  0.00  0.00    +0.046 A 
BRANCH   4  10
ATOM     10  O   LIG    1       42.717  -3.191  16.581  0.00  0.00    -0.507 OA
ATOM     11  H   LIG    1       43.566  -2.892  16.218  0.00  0.00    +0.292 HD
ENDBRANCH   4  10
ENDBRANCH   1   7
BRANCH   1  12
ATOM     12  C   LIG    1       37.931   0.437  14.526  0.00  0.00    -0.037 A 
ATOM     13  C   LIG    1       37.543   0.253  15.869  0.00  0.00    +0.008 A 
ATOM     14  C   LIG    1       37.186   1.333  16.679  0.00  0.00    +0.046 A 
ATOM     15  C   LIG    1       37.233   2.619  16.168  0.00  0.00    +0.117 A 
ATOM     16  C   LIG    1       37.610   2.842  14.851  0.00  0.00    +0.046 A 
ATOM     17  C   LIG    1       37.951   1.756  14.034  0.00  0.00    +0.008 A 
BRANCH  15  18
ATOM     18  O   LIG    1       36.914   3.649  17.003  0.00  0.00    -0.507 OA
ATOM     19  H   LIG    1       37.393   3.527  17.838  0.00  0.00    +0.292 HD
ENDBRANCH  15  18
ENDBRANCH   1  12
TORSDOF 4
ENDMDL
MODEL 4
REMARK VINA RESULT:      -7.7      2.218      3.081
REMARK  Name = 
REMARK                            x       y       z     vdW  Elec       q    Type
REMARK                         _______ _______ _______ _____ _____    ______ ____
ROOT
ATOM      1  C   LIG    1       38.456  -0.793  13.637  0.00  0.00    +0.015 C 
ATOM      2  C   LIG    1       38.936  -0.423  12.205  0.00  0.00    +0.021 C 
ATOM      3  C   LIG    1       37.223  -1.711  13.404  0.00  0.00    +0.021 C 
ENDROOT
BRANCH   1   7
ATOM      4  C   LIG    1       37.240   2.591  16.110  0.00  0.00    +0.117 A 
ATOM      5  C   LIG    1       37.645   2.817  14.803  0.00  0.00    +0.046 A 
ATOM      6  C   LIG    1       38.019   1.743  13.988  0.00  0.00    +0.008 A 
ATOM      7  C   LIG    1       37.993   0.424  14.474  0.00  0.00    -0.037 A 
ATOM      8  C   LIG    1       37.566   0.231  15.806  0.00  0.00    +0.008 A 
ATOM      9  C   LIG    1       37.191   1.303  16.621  0.00  0.00    +0.046 A 
BRANCH   4  10
ATOM     10  O   LIG    1       36.903   3.670  16.872  0.00  0.00    -0.507 OA
ATOM     11  H   LIG    1       36.171   3.415  17.457  0.00  0.00    +0.292 HD
ENDBRANCH   4  10
ENDBRANCH   1   7
BRANCH   1  12
ATOM     12  C   LIG    1       39.618  -1.500  14.383  0.00  0.00    -0.037 A 
ATOM     13  C   LIG    1       40.843  -0.828  14.573  0.00  0.00    +0.008 A 
ATOM     14  C   LIG    1       41.882  -1.402  15.309  0.00  0.00    +0.046 A 
ATOM     15  C   LIG    1       41.706  -2.648  15.889  0.00  0.00    +0.117 A 
ATOM     16  C   LIG    1       40.514  -3.340  15.725  0.00  0.00    +0.046 A 
ATOM     17  C   LIG    1       39.479  -2.771  14.972  0.00  0.00    +0.008 A 
BRANCH  15  18
ATOM     18  O   LIG    1       42.730  -3.156  16.631  0.00  0.00    -0.507 OA
ATOM     19  H   LIG    1       43.563  -2.988  16.162  0.00  0.00    +0.292 HD
ENDBRANCH  15  18
ENDBRANCH   1  12
TORSDOF 4
ENDMDL
MODEL 5
REMARK VINA RESULT:      -7.7      1.835      2.325
REMARK  Name = 
REMARK                            x       y       z     vdW  Elec       q    Type
REMARK                         _______ _______ _______ _____ _____    ______ ____
ROOT
ATOM      1  C   LIG    1       38.675   0.157  15.782  0.00  0.00    +0.015 C 
ATOM      2  C   LIG    1       38.917  -0.092  14.266  0.00  0.00    +0.021 C 
ATOM      3  C   LIG    1       37.624  -0.916  16.185  0.00  0.00    +0.021 C 
ENDROOT
BRANCH   1   7
ATOM      4  C   LIG    1       36.971   4.106  16.520  0.00  0.00    +0.117 A 
ATOM      5  C   LIG    1       36.532   3.027  17.272  0.00  0.00    +0.046 A 
ATOM      6  C   LIG    1       37.081   1.756  17.064  0.00  0.00    +0.008 A 
ATOM      7  C   LIG    1       38.079   1.551  16.097  0.00  0.00    -0.037 A 
ATOM      8  C   LIG    1       38.509   2.674  15.356  0.00  0.00    +0.008 A 
ATOM      9  C   LIG    1       37.962   3.944  15.564  0.00  0.00    +0.046 A 
BRANCH   4  10
ATOM     10  O   LIG    1       36.394   5.321  16.744  0.00  0.00    -0.507 OA
ATOM     11  H   LIG    1       36.976   6.008  16.382  0.00  0.00    +0.292 HD
ENDBRANCH   4  10
ENDBRANCH   1   7
BRANCH   1  12
ATOM     12  C   LIG    1       40.025   0.008  16.531  0.00  0.00    -0.037 A 
ATOM     13  C   LIG    1       40.034  -0.269  17.913  0.00  0.00    +0.008 A 
ATOM     14  C   LIG    1       41.228  -0.489  18.604  0.00  0.00    +0.046 A 
ATOM     15  C   LIG    1       42.433  -0.460  17.920  0.00  0.00    +0.117 A 
ATOM     16  C   LIG    1       42.464  -0.191  16.558  0.00  0.00    +0.046 A 
ATOM     17  C   LIG    1       41.268   0.046  15.870  0.00  0.00    +0.008 A 
BRANCH  15  18
ATOM     18  O   LIG    1       43.572  -0.718  18.623  0.00  0.00    -0.507 OA
ATOM     19  H   LIG    1       44.199  -1.170  18.035  0.00  0.00    +0.292 HD
ENDBRANCH  15  18
ENDBRANCH   1  12
TORSDOF 4
ENDMDL
MODEL 6
REMARK VINA RESULT:      -7.6      1.812      6.070
REMARK  Name = 
REMARK                            x       y       z     vdW  Elec       q    Type
REMARK                         _______ _______ _______ _____ _____    ______ ____
ROOT
ATOM      1  C   LIG    1       38.635  -0.058  15.762  0.00  0.00    +0.015 C 
ATOM      2  C   LIG    1       37.579  -1.094  16.242  0.00  0.00    +0.021 C 
ATOM      3  C   LIG    1       38.875  -0.418  14.269  0.00  0.00    +0.021 C 
ENDROOT
BRANCH   1   7
ATOM      4  C   LIG    1       42.407  -0.480  17.917  0.00  0.00    +0.117 A 
ATOM      5  C   LIG    1       42.429  -0.263  16.547  0.00  0.00    +0.046 A 
ATOM      6  C   LIG    1       41.231  -0.104  15.842  0.00  0.00    +0.008 A 
ATOM      7  C   LIG    1       39.992  -0.163  16.502  0.00  0.00    -0.037 A 
ATOM      8  C   LIG    1       40.007  -0.377  17.898  0.00  0.00    +0.008 A 
ATOM      9  C   LIG    1       41.204  -0.533  18.603  0.00  0.00    +0.046 A 
BRANCH   4  10
ATOM     10  O   LIG    1       43.599  -0.648  18.559  0.00  0.00    -0.507 OA
ATOM     11  H   LIG    1       44.051  -1.413  18.169  0.00  0.00    +0.292 HD
ENDBRANCH   4  10
ENDBRANCH   1   7
BRANCH   1  12
ATOM     12  C   LIG    1       38.062   1.368  15.967  0.00  0.00    -0.037 A 
ATOM     13  C   LIG    1       38.368   2.388  15.042  0.00  0.00    +0.008 A 
ATOM     14  C   LIG    1       37.805   3.661  15.150  0.00  0.00    +0.046 A 
ATOM     15  C   LIG    1       36.908   3.931  16.170  0.00  0.00    +0.117 A 
ATOM     16  C   LIG    1       36.581   2.953  17.099  0.00  0.00    +0.046 A 
ATOM     17  C   LIG    1       37.159   1.681  17.000  0.00  0.00    +0.008 A 
BRANCH  15  18
ATOM     18  O   LIG    1       36.351   5.175  16.218  0.00  0.00    -0.507 OA
ATOM     19  H   LIG    1       35.416   5.083  16.463  0.00  0.00    +0.292 HD
ENDBRANCH  15  18
ENDBRANCH   1  12
TORSDOF 4
ENDMDL
MODEL 7
REMARK VINA RESULT:      -7.6      1.667      5.937
REMARK  Name = 
REMARK                            x       y       z     vdW  Elec       q    Type
REMARK                         _______ _______ _______ _____ _____    ______ ____
ROOT
ATOM      1  C   LIG    1       40.308  -1.536  16.069  0.00  0.00    +0.015 C 
ATOM      2  C   LIG    1       39.648  -1.403  17.470  0.00  0.00    +0.021 C 
ATOM      3  C   LIG    1       39.727  -2.859  15.495  0.00  0.00    +0.021 C 
ENDROOT
BRANCH   1   7
ATOM      4  C   LIG    1       44.637  -2.055  16.287  0.00  0.00    +0.117 A 
ATOM      5  C   LIG    1       44.046  -1.790  15.061  0.00  0.00    +0.046 A 
ATOM      6  C   LIG    1       42.662  -1.600  14.973  0.00  0.00    +0.008 A 
ATOM      7  C   LIG    1       41.850  -1.674  16.117  0.00  0.00    -0.037 A 
ATOM      8  C   LIG    1       42.486  -1.937  17.351  0.00  0.00    +0.008 A 
ATOM      9  C   LIG    1       43.868  -2.125  17.439  0.00  0.00    +0.046 A 
BRANCH   4  10
ATOM     10  O   LIG    1       45.985  -2.251  16.320  0.00  0.00    -0.507 OA
ATOM     11  H   LIG    1       46.418  -1.466  15.949  0.00  0.00    +0.292 HD
ENDBRANCH   4  10
ENDBRANCH   1   7
BRANCH   1  12
ATOM     12  C   LIG    1       39.944  -0.287  15.227  0.00  0.00    -0.037 A 
ATOM     13  C   LIG    1       39.145  -0.425  14.073  0.00  0.00    +0.008 A 
ATOM     14  C   LIG    1       38.730   0.686  13.336  0.00  0.00    +0.046 A 
ATOM     15  C   LIG    1       39.086   1.958  13.753  0.00  0.00    +0.117 A 
ATOM     16  C   LIG    1       39.871   2.136  14.885  0.00  0.00    +0.046 A 
ATOM     17  C   LIG    1       40.301   1.019  15.613  0.00  0.00    +0.008 A 
BRANCH  15  18
ATOM     18  O   LIG    1       38.629   3.019  13.029  0.00  0.00    -0.507 OA
ATOM     19  H   LIG    1       38.949   2.928  12.116  0.00  0.00    +0.292 HD
ENDBRANCH  15  18
ENDBRANCH   1  12
TORSDOF 4
ENDMDL
MODEL 8
REMARK VINA RESULT:      -7.5      3.305      4.321
REMARK  Name = 
REMARK                            x       y       z     vdW  Elec       q    Type
REMARK                         _______ _______ _______ _____ _____    ______ ____
ROOT
ATOM      1  C   LIG    1       42.940  -1.309  17.317  0.00  0.00    +0.015 C 
ATOM      2  C   LIG    1       42.297  -1.007  18.701  0.00  0.00    +0.021 C 
ATOM      3  C   LIG    1       43.600   0.035  16.900  0.00  0.00    +0.021 C 
ENDROOT
BRANCH   1   7
ATOM      4  C   LIG    1       40.162  -2.420  14.139  0.00  0.00    +0.117 A 
ATOM      5  C   LIG    1       40.026  -2.999  15.392  0.00  0.00    +0.046 A 
ATOM      6  C   LIG    1       40.894  -2.641  16.430  0.00  0.00    +0.008 A 
ATOM      7  C   LIG    1       41.913  -1.695  16.224  0.00  0.00    -0.037 A 
ATOM      8  C   LIG    1       42.016  -1.119  14.939  0.00  0.00    +0.008 A 
ATOM      9  C   LIG    1       41.149  -1.475  13.902  0.00  0.00    +0.046 A 
BRANCH   4  10
ATOM     10  O   LIG    1       39.306  -2.815  13.154  0.00  0.00    -0.507 OA
ATOM     11  H   LIG    1       39.008  -2.025  12.674  0.00  0.00    +0.292 HD
ENDBRANCH   4  10
ENDBRANCH   1   7
BRANCH   1  12
ATOM     12  C   LIG    1       43.955  -2.468  17.483  0.00  0.00    -0.037 A 
ATOM     13  C   LIG    1       43.864  -3.606  16.654  0.00  0.00    +0.008 A 
ATOM     14  C   LIG    1       44.809  -4.633  16.720  0.00  0.00    +0.046 A 
ATOM     15  C   LIG    1       45.874  -4.530  17.598  0.00  0.00    +0.117 A 
ATOM     16  C   LIG    1       45.999  -3.425  18.430  0.00  0.00    +0.046 A 
ATOM     17  C   LIG    1       45.042  -2.404  18.375  0.00  0.00    +0.008 A 
BRANCH  15  18
ATOM     18  O   LIG    1       46.795  -5.534  17.605  0.00  0.00    -0.507 OA
ATOM     19  H   LIG    1       46.453  -6.268  17.069  0.00  0.00    +0.292 HD
ENDBRANCH  15  18
ENDBRANCH   1  12
TORSDOF 4
ENDMDL
MODEL 9
REMARK VINA RESULT:      -7.5      2.058      5.810
REMARK  Name = 
REMARK                            x       y       z     vdW  Elec       q    Type
REMARK                         _______ _______ _______ _____ _____    ______ ____
ROOT
ATOM      1  C   LIG    1       40.139  -0.841  17.031  0.00  0.00    +0.015 C 
ATOM      2  C   LIG    1       39.998   0.609  17.574  0.00  0.00    +0.021 C 
ATOM      3  C   LIG    1       39.113  -1.663  17.861  0.00  0.00    +0.021 C 
ENDROOT
BRANCH   1   7
ATOM      4  C   LIG    1       44.062  -2.581  17.825  0.00  0.00    +0.117 A 
ATOM      5  C   LIG    1       43.255  -3.145  16.848  0.00  0.00    +0.046 A 
ATOM      6  C   LIG    1       42.002  -2.589  16.565  0.00  0.00    +0.008 A 
ATOM      7  C   LIG    1       41.540  -1.458  17.259  0.00  0.00    -0.037 A 
ATOM      8  C   LIG    1       42.393  -0.904  18.240  0.00  0.00    +0.008 A 
ATOM      9  C   LIG    1       43.644  -1.458  18.523  0.00  0.00    +0.046 A 
BRANCH   4  10
ATOM     10  O   LIG    1       45.266  -3.168  18.079  0.00  0.00    -0.507 OA
ATOM     11  H   LIG    1       45.958  -2.491  18.003  0.00  0.00    +0.292 HD
ENDBRANCH   4  10
ENDBRANCH   1   7
BRANCH   1  12
ATOM     12  C   LIG    1       39.836  -0.834  15.511  0.00  0.00    -0.037 A 
ATOM     13  C   LIG    1       38.787  -1.626  14.999  0.00  0.00    +0.008 A 
ATOM     14  C   LIG    1       38.433  -1.583  13.649  0.00  0.00    +0.046 A 
ATOM     15  C   LIG    1       39.106  -0.730  12.790  0.00  0.00    +0.117 A 
ATOM     16  C   LIG    1       40.144   0.066  13.256  0.00  0.00    +0.046 A 
ATOM     17  C   LIG    1       40.509   0.010  14.607  0.00  0.00    +0.008 A 
BRANCH  15  18
ATOM     18  O   LIG    1       38.706  -0.689  11.488  0.00  0.00    -0.507 OA
ATOM     19  H   LIG    1       38.809   0.220  11.163  0.00  0.00    +0.292 HD
ENDBRANCH  15  18
ENDBRANCH   1  12
TORSDOF 4
ENDMDL
