MODEL 1
REMARK VINA RESULT:      -8.1      0.000      0.000
REMARK  Name = 
REMARK                            x       y       z     vdW  Elec       q    Type
REMARK                         _______ _______ _______ _____ _____    ______ ____
ROOT
ATOM      1  C   LIG    1       18.617  29.209  10.729  0.00  0.00    +0.015 C 
ATOM      2  C   LIG    1       18.270  27.805  11.301  0.00  0.00    +0.021 C 
ATOM      3  C   LIG    1       19.127  30.009  11.961  0.00  0.00    +0.021 C 
ENDROOT
BRANCH   1   7
ATOM      4  C   LIG    1       15.259  31.463   9.089  0.00  0.00    +0.117 A 
ATOM      5  C   LIG    1       15.691  30.318   8.436  0.00  0.00    +0.046 A 
ATOM      6  C   LIG    1       16.753  29.570   8.958  0.00  0.00    +0.008 A 
ATOM      7  C   LIG    1       17.398  29.962  10.143  0.00  0.00    -0.037 A 
ATOM      8  C   LIG    1       16.926  31.128  10.786  0.00  0.00    +0.008 A 
ATOM      9  C   LIG    1       15.865  31.875  10.266  0.00  0.00    +0.046 A 
BRANCH   4  10
ATOM     10  O   LIG    1       14.234  32.170   8.533  0.00  0.00    -0.507 OA
ATOM     11  H   LIG    1       14.304  32.101   7.567  0.00  0.00    +0.292 HD
ENDBRANCH   4  10
ENDBRANCH   1   7
BRANCH   1  12
ATOM     12  C   LIG    1       19.685  29.042   9.618  0.00  0.00    -0.037 A 
ATOM     13  C   LIG    1       20.369  30.173   9.125  0.00  0.00    +0.008 A 
ATOM     14  C   LIG    1       21.393  30.051   8.183  0.00  0.00    +0.046 A 
ATOM     15  C   LIG    1       21.768  28.796   7.734  0.00  0.00    +0.117 A 
ATOM     16  C   LIG    1       21.119  27.659   8.196  0.00  0.00    +0.046 A 
ATOM     17  C   LIG    1       20.081  27.783   9.128  0.00  0.00    +0.008 A 
BRANCH  15  18
ATOM     18  O   LIG    1       22.797  28.717   6.844  0.00  0.00    -0.507 OA
ATOM     19  H   LIG    1       23.562  28.322   7.293  0.00  0.00    +0.292 HD
ENDBRANCH  15  18
ENDBRANCH   1  12
TORSDOF 4
ENDMDL
MODEL 2
REMARK VINA RESULT:      -8.0      0.096      5.588
REMARK  Name = 
REMARK                            x       y       z     vdW  Elec       q    Type
REMARK                         _______ _______ _______ _____ _____    ______ ____
ROOT
ATOM      1  C   LIG    1       18.653  29.243  10.733  0.00  0.00    +0.015 C 
ATOM      2  C   LIG    1       19.192  29.956  12.005  0.00  0.00    +0.021 C 
ATOM      3  C   LIG    1       18.200  27.845  11.239  0.00  0.00    +0.021 C 
ENDROOT
BRANCH   1   7
ATOM      4  C   LIG    1       21.772  28.729   7.723  0.00  0.00    +0.117 A 
ATOM      5  C   LIG    1       21.114  27.612   8.215  0.00  0.00    +0.046 A 
ATOM      6  C   LIG    1       20.097  27.758   9.166  0.00  0.00    +0.008 A 
ATOM      7  C   LIG    1       19.726  29.029   9.637  0.00  0.00    -0.037 A 
ATOM      8  C   LIG    1       20.411  30.144   9.107  0.00  0.00    +0.008 A 
ATOM      9  C   LIG    1       21.426  30.000   8.157  0.00  0.00    +0.046 A 
BRANCH   4  10
ATOM     10  O   LIG    1       22.769  28.537   6.813  0.00  0.00    -0.507 OA
ATOM     11  H   LIG    1       22.956  27.586   6.761  0.00  0.00    +0.292 HD
ENDBRANCH   4  10
ENDBRANCH   1   7
BRANCH   1  12
ATOM     12  C   LIG    1       17.496  30.089  10.142  0.00  0.00    -0.037 A 
ATOM     13  C   LIG    1       16.845  29.664   8.966  0.00  0.00    +0.008 A 
ATOM     14  C   LIG    1       15.747  30.357   8.451  0.00  0.00    +0.046 A 
ATOM     15  C   LIG    1       15.265  31.472   9.115  0.00  0.00    +0.117 A 
ATOM     16  C   LIG    1       15.878  31.921  10.278  0.00  0.00    +0.046 A 
ATOM     17  C   LIG    1       16.990  31.235  10.784  0.00  0.00    +0.008 A 
BRANCH  15  18
ATOM     18  O   LIG    1       14.168  32.097   8.602  0.00  0.00    -0.507 OA
ATOM     19  H   LIG    1       13.699  31.472   8.026  0.00  0.00    +0.292 HD
ENDBRANCH  15  18
ENDBRANCH   1  12
TORSDOF 4
ENDMDL
MODEL 3
REMARK VINA RESULT:      -8.0      0.212      1.664
REMARK  Name = 
REMARK                            x       y       z     vdW  Elec       q    Type
REMARK                         _______ _______ _______ _____ _____    ______ ____
ROOT
ATOM      1  C   LIG    1       18.635  29.203  10.907  0.00  0.00    +0.015 C 
ATOM      2  C   LIG    1       18.183  27.806  11.419  0.00  0.00    +0.021 C 
ATOM      3  C   LIG    1       19.115  29.944  12.187  0.00  0.00    +0.021 C 
ENDROOT
BRANCH   1   7
ATOM      4  C   LIG    1       15.330  31.419   9.114  0.00  0.00    +0.117 A 
ATOM      5  C   LIG    1       15.914  31.896  10.278  0.00  0.00    +0.046 A 
ATOM      6  C   LIG    1       16.988  31.211  10.857  0.00  0.00    +0.008 A 
ATOM      7  C   LIG    1       17.492  30.035  10.276  0.00  0.00    -0.037 A 
ATOM      8  C   LIG    1       16.879  29.583   9.086  0.00  0.00    +0.008 A 
ATOM      9  C   LIG    1       15.807  30.268   8.506  0.00  0.00    +0.046 A 
BRANCH   4  10
ATOM     10  O   LIG    1       14.274  32.109   8.597  0.00  0.00    -0.507 OA
ATOM     11  H   LIG    1       14.160  32.925   9.111  0.00  0.00    +0.292 HD
ENDBRANCH   4  10
ENDBRANCH   1   7
BRANCH   1  12
ATOM     12  C   LIG    1       19.754  29.008   9.852  0.00  0.00    -0.037 A 
ATOM     13  C   LIG    1       20.077  27.711   9.402  0.00  0.00    +0.008 A 
ATOM     14  C   LIG    1       21.023  27.504   8.395  0.00  0.00    +0.046 A 
ATOM     15  C   LIG    1       21.645  28.591   7.803  0.00  0.00    +0.117 A 
ATOM     16  C   LIG    1       21.352  29.884   8.218  0.00  0.00    +0.046 A 
ATOM     17  C   LIG    1       20.416  30.089   9.240  0.00  0.00    +0.008 A 
BRANCH  15  18
ATOM     18  O   LIG    1       22.532  28.349   6.798  0.00  0.00    -0.507 OA
ATOM     19  H   LIG    1       22.082  28.492   5.949  0.00  0.00    +0.292 HD
ENDBRANCH  15  18
ENDBRANCH   1  12
TORSDOF 4
ENDMDL
MODEL 4
REMARK VINA RESULT:      -7.9      2.629      4.289
REMARK  Name = 
REMARK                            x       y       z     vdW  Elec       q    Type
REMARK                         _______ _______ _______ _____ _____    ______ ____
ROOT
ATOM      1  C   LIG    1       18.812  29.429  10.109  0.00  0.00    +0.015 C 
ATOM      2  C   LIG    1       20.139  30.026   9.561  0.00  0.00    +0.021 C 
ATOM      3  C   LIG    1       18.709  28.035   9.428  0.00  0.00    +0.021 C 
ENDROOT
BRANCH   1   7
ATOM      4  C   LIG    1       15.201  31.597   8.967  0.00  0.00    +0.117 A 
ATOM      5  C   LIG    1       15.759  31.819  10.217  0.00  0.00    +0.046 A 
ATOM      6  C   LIG    1       16.928  31.149  10.594  0.00  0.00    +0.008 A 
ATOM      7  C   LIG    1       17.555  30.244   9.720  0.00  0.00    -0.037 A 
ATOM      8  C   LIG    1       16.965  30.050   8.452  0.00  0.00    +0.008 A 
ATOM      9  C   LIG    1       15.798  30.720   8.074  0.00  0.00    +0.046 A 
BRANCH   4  10
ATOM     10  O   LIG    1       14.051  32.258   8.651  0.00  0.00    -0.507 OA
ATOM     11  H   LIG    1       13.554  31.720   8.014  0.00  0.00    +0.292 HD
ENDBRANCH   4  10
ENDBRANCH   1   7
BRANCH   1  12
ATOM     12  C   LIG    1       18.902  29.354  11.655  0.00  0.00    -0.037 A 
ATOM     13  C   LIG    1       18.315  28.270  12.341  0.00  0.00    +0.008 A 
ATOM     14  C   LIG    1       18.446  28.127  13.724  0.00  0.00    +0.046 A 
ATOM     15  C   LIG    1       19.185  29.052  14.443  0.00  0.00    +0.117 A 
ATOM     16  C   LIG    1       19.780  30.131  13.804  0.00  0.00    +0.046 A 
ATOM     17  C   LIG    1       19.633  30.283  12.419  0.00  0.00    +0.008 A 
BRANCH  15  18
ATOM     18  O   LIG    1       19.321  28.855  15.785  0.00  0.00    -0.507 OA
ATOM     19  H   LIG    1       20.003  29.462  16.117  0.00  0.00    +0.292 HD
ENDBRANCH  15  18
ENDBRANCH   1  12
TORSDOF 4
ENDMDL
MODEL 5
REMARK VINA RESULT:      -7.9      2.612      5.586
REMARK  Name = 
REMARK                            x       y       z     vdW  Elec       q    Type
REMARK                         _______ _______ _______ _____ _____    ______ ____
ROOT
ATOM      1  C   LIG    1       18.852  29.401  10.077  0.00  0.00    +0.015 C 
ATOM      2  C   LIG    1       18.743  28.012   9.387  0.00  0.00    +0.021 C 
ATOM      3  C   LIG    1       20.188  29.991   9.542  0.00  0.00    +0.021 C 
ENDROOT
BRANCH   1   7
ATOM      4  C   LIG    1       19.162  29.038  14.415  0.00  0.00    +0.117 A 
ATOM      5  C   LIG    1       19.803  30.087  13.775  0.00  0.00    +0.046 A 
ATOM      6  C   LIG    1       19.699  30.233  12.387  0.00  0.00    +0.008 A 
ATOM      7  C   LIG    1       18.949  29.325  11.620  0.00  0.00    -0.037 A 
ATOM      8  C   LIG    1       18.302  28.274  12.306  0.00  0.00    +0.008 A 
ATOM      9  C   LIG    1       18.404  28.128  13.693  0.00  0.00    +0.046 A 
BRANCH   4  10
ATOM     10  O   LIG    1       19.307  28.925  15.766  0.00  0.00    -0.507 OA
ATOM     11  H   LIG    1       19.053  29.770  16.172  0.00  0.00    +0.292 HD
ENDBRANCH   4  10
ENDBRANCH   1   7
BRANCH   1  12
ATOM     12  C   LIG    1       17.610  30.246   9.694  0.00  0.00    -0.037 A 
ATOM     13  C   LIG    1       17.006  30.075   8.431  0.00  0.00    +0.008 A 
ATOM     14  C   LIG    1       15.839  30.759   8.083  0.00  0.00    +0.046 A 
ATOM     15  C   LIG    1       15.241  31.607   9.000  0.00  0.00    +0.117 A 
ATOM     16  C   LIG    1       15.804  31.800  10.254  0.00  0.00    +0.046 A 
ATOM     17  C   LIG    1       16.984  31.127  10.596  0.00  0.00    +0.008 A 
BRANCH  15  18
ATOM     18  O   LIG    1       14.082  32.226   8.636  0.00  0.00    -0.507 OA
ATOM     19  H   LIG    1       14.025  32.225   7.667  0.00  0.00    +0.292 HD
ENDBRANCH  15  18
ENDBRANCH   1  12
TORSDOF 4
ENDMDL
MODEL 6
REMARK VINA RESULT:      -7.5      3.157      4.672
REMARK  Name = 
REMARK                            x       y       z     vdW  Elec       q    Type
REMARK                         _______ _______ _______ _____ _____    ______ ____
ROOT
ATOM      1  C   LIG    1       17.943  30.181  13.259  0.00  0.00    +0.015 C 
ATOM      2  C   LIG    1       17.063  29.341  14.227  0.00  0.00    +0.021 C 
ATOM      3  C   LIG    1       17.390  31.628  13.395  0.00  0.00    +0.021 C 
ENDROOT
BRANCH   1   7
ATOM      4  C   LIG    1       17.509  28.863   9.121  0.00  0.00    +0.117 A 
ATOM      5  C   LIG    1       17.159  30.161   9.460  0.00  0.00    +0.046 A 
ATOM      6  C   LIG    1       17.311  30.609  10.777  0.00  0.00    +0.008 A 
ATOM      7  C   LIG    1       17.815  29.759  11.775  0.00  0.00    -0.037 A 
ATOM      8  C   LIG    1       18.170  28.446  11.393  0.00  0.00    +0.008 A 
ATOM      9  C   LIG    1       18.021  27.998  10.077  0.00  0.00    +0.046 A 
BRANCH   4  10
ATOM     10  O   LIG    1       17.327  28.465   7.830  0.00  0.00    -0.507 OA
ATOM     11  H   LIG    1       16.807  27.645   7.833  0.00  0.00    +0.292 HD
ENDBRANCH   4  10
ENDBRANCH   1   7
BRANCH   1  12
ATOM     12  C   LIG    1       19.426  30.046  13.692  0.00  0.00    -0.037 A 
ATOM     13  C   LIG    1       19.754  29.332  14.864  0.00  0.00    +0.008 A 
ATOM     14  C   LIG    1       21.082  29.122  15.240  0.00  0.00    +0.046 A 
ATOM     15  C   LIG    1       22.107  29.600  14.440  0.00  0.00    +0.117 A 
ATOM     16  C   LIG    1       21.824  30.306  13.279  0.00  0.00    +0.046 A 
ATOM     17  C   LIG    1       20.492  30.532  12.911  0.00  0.00    +0.008 A 
BRANCH  15  18
ATOM     18  O   LIG    1       23.389  29.340  14.823  0.00  0.00    -0.507 OA
ATOM     19  H   LIG    1       23.982  29.934  14.334  0.00  0.00    +0.292 HD
ENDBRANCH  15  18
ENDBRANCH   1  12
TORSDOF 4
ENDMDL
MODEL 7
REMARK VINA RESULT:      -7.4      3.022      5.017
REMARK  Name = 
REMARK                            x       y       z     vdW  Elec       q    Type
REMARK                         _______ _______ _______ _____ _____    ______ ____
ROOT
ATOM      1  C   LIG    1       19.267  28.995  11.132  0.00  0.00    +0.015 C 
ATOM      2  C   LIG    1       18.480  30.258  10.682  0.00  0.00    +0.021 C 
ATOM      3  C   LIG    1       18.171  27.912  11.336  0.00  0.00    +0.021 C 
ENDROOT
BRANCH   1   7
ATOM      4  C   LIG    1       21.354  29.350  14.949  0.00  0.00    +0.117 A 
ATOM      5  C   LIG    1       21.945  29.860  13.803  0.00  0.00    +0.046 A 
ATOM      6  C   LIG    1       21.283  29.774  12.573  0.00  0.00    +0.008 A 
ATOM      7  C   LIG    1       20.016  29.174  12.476  0.00  0.00    -0.037 A 
ATOM      8  C   LIG    1       19.440  28.674  13.665  0.00  0.00    +0.008 A 
ATOM      9  C   LIG    1       20.100  28.760  14.894  0.00  0.00    +0.046 A 
BRANCH   4  10
ATOM     10  O   LIG    1       22.045  29.439  16.121  0.00  0.00    -0.507 OA
ATOM     11  H   LIG    1       22.992  29.490  15.914  0.00  0.00    +0.292 HD
ENDBRANCH   4  10
ENDBRANCH   1   7
BRANCH   1  12
ATOM     12  C   LIG    1       20.295  28.632  10.030  0.00  0.00    -0.037 A 
ATOM     13  C   LIG    1       20.739  27.300   9.895  0.00  0.00    +0.008 A 
ATOM     14  C   LIG    1       21.602  26.921   8.865  0.00  0.00    +0.046 A 
ATOM     15  C   LIG    1       22.017  27.861   7.936  0.00  0.00    +0.117 A 
ATOM     16  C   LIG    1       21.600  29.182   8.034  0.00  0.00    +0.046 A 
ATOM     17  C   LIG    1       20.749  29.564   9.078  0.00  0.00    +0.008 A 
BRANCH  15  18
ATOM     18  O   LIG    1       22.827  27.442   6.923  0.00  0.00    -0.507 OA
ATOM     19  H   LIG    1       22.376  27.609   6.079  0.00  0.00    +0.292 HD
ENDBRANCH  15  18
ENDBRANCH   1  12
TORSDOF 4
ENDMDL
MODEL 8
REMARK VINA RESULT:      -7.3      2.518      5.587
REMARK  Name = 
REMARK                            x       y       z     vdW  Elec       q    Type
REMARK                         _______ _______ _______ _____ _____    ______ ____
ROOT
ATOM      1  C   LIG    1       18.325  29.237   9.831  0.00  0.00    +0.015 C 
ATOM      2  C   LIG    1       17.293  28.168   9.373  0.00  0.00    +0.021 C 
ATOM      3  C   LIG    1       17.656  30.594   9.473  0.00  0.00    +0.021 C 
ENDROOT
BRANCH   1   7
ATOM      4  C   LIG    1       22.071  28.927   7.613  0.00  0.00    +0.117 A 
ATOM      5  C   LIG    1       21.611  30.178   7.995  0.00  0.00    +0.046 A 
ATOM      6  C   LIG    1       20.422  30.296   8.725  0.00  0.00    +0.008 A 
ATOM      7  C   LIG    1       19.677  29.160   9.081  0.00  0.00    -0.037 A 
ATOM      8  C   LIG    1       20.181  27.901   8.683  0.00  0.00    +0.008 A 
ATOM      9  C   LIG    1       21.368  27.781   7.956  0.00  0.00    +0.046 A 
BRANCH   4  10
ATOM     10  O   LIG    1       23.224  28.862   6.887  0.00  0.00    -0.507 OA
ATOM     11  H   LIG    1       23.038  29.180   5.989  0.00  0.00    +0.292 HD
ENDBRANCH   4  10
ENDBRANCH   1   7
BRANCH   1  12
ATOM     12  C   LIG    1       18.583  29.060  11.349  0.00  0.00    -0.037 A 
ATOM     13  C   LIG    1       18.889  30.183  12.146  0.00  0.00    +0.008 A 
ATOM     14  C   LIG    1       19.048  30.073  13.529  0.00  0.00    +0.046 A 
ATOM     15  C   LIG    1       18.881  28.843  14.144  0.00  0.00    +0.117 A 
ATOM     16  C   LIG    1       18.578  27.714  13.394  0.00  0.00    +0.046 A 
ATOM     17  C   LIG    1       18.436  27.823  12.005  0.00  0.00    +0.008 A 
BRANCH  15  18
ATOM     18  O   LIG    1       19.006  28.785  15.500  0.00  0.00    -0.507 OA
ATOM     19  H   LIG    1       18.804  27.881  15.789  0.00  0.00    +0.292 HD
ENDBRANCH  15  18
ENDBRANCH   1  12
TORSDOF 4
ENDMDL
MODEL 9
REMARK VINA RESULT:      -7.3      3.080      5.877
REMARK  Name = 
REMARK                            x       y       z     vdW  Elec       q    Type
REMARK                         _______ _______ _______ _____ _____    ______ ____
ROOT
ATOM      1  C   LIG    1       19.291  29.119  10.808  0.00  0.00    +0.015 C 
ATOM      2  C   LIG    1       18.080  28.148  10.914  0.00  0.00    +0.021 C 
ATOM      3  C   LIG    1       18.668  30.457  10.319  0.00  0.00    +0.021 C 
ENDROOT
BRANCH   1   7
ATOM      4  C   LIG    1       22.196  27.761   7.848  0.00  0.00    +0.117 A 
ATOM      5  C   LIG    1       21.801  29.090   7.851  0.00  0.00    +0.046 A 
ATOM      6  C   LIG    1       20.886  29.549   8.805  0.00  0.00    +0.008 A 
ATOM      7  C   LIG    1       20.353  28.680   9.771  0.00  0.00    -0.037 A 
ATOM      8  C   LIG    1       20.785  27.335   9.745  0.00  0.00    +0.008 A 
ATOM      9  C   LIG    1       21.700  26.876   8.793  0.00  0.00    +0.046 A 
BRANCH   4  10
ATOM     10  O   LIG    1       23.075  27.355   6.888  0.00  0.00    -0.507 OA
ATOM     11  H   LIG    1       22.622  26.723   6.306  0.00  0.00    +0.292 HD
ENDBRANCH   4  10
ENDBRANCH   1   7
BRANCH   1  12
ATOM     12  C   LIG    1       19.964  29.226  12.200  0.00  0.00    -0.037 A 
ATOM     13  C   LIG    1       19.418  28.534  13.301  0.00  0.00    +0.008 A 
ATOM     14  C   LIG    1       20.043  28.542  14.550  0.00  0.00    +0.046 A 
ATOM     15  C   LIG    1       21.238  29.222  14.716  0.00  0.00    +0.117 A 
ATOM     16  C   LIG    1       21.808  29.914  13.656  0.00  0.00    +0.046 A 
ATOM     17  C   LIG    1       21.172  29.920  12.408  0.00  0.00    +0.008 A 
BRANCH  15  18
ATOM     18  O   LIG    1       21.836  29.173  15.939  0.00  0.00    -0.507 OA
ATOM     19  H   LIG    1       21.390  28.495  16.472  0.00  0.00    +0.292 HD
ENDBRANCH  15  18
ENDBRANCH   1  12
TORSDOF 4
ENDMDL
