MODEL 1
REMARK VINA RESULT:      -8.5      0.000      0.000
REMARK  Name = 
REMARK                            x       y       z     vdW  Elec       q    Type
REMARK                         _______ _______ _______ _____ _____    ______ ____
ROOT
ATOM      1  C   LIG    1       30.309  -1.003  27.827  0.00  0.00    +0.015 C 
ATOM      2  C   LIG    1       30.152   0.528  28.045  0.00  0.00    +0.021 C 
ATOM      3  C   LIG    1       31.228  -1.464  28.994  0.00  0.00    +0.021 C 
ENDROOT
BRANCH   1   7
ATOM      4  C   LIG    1       32.235  -2.198  24.097  0.00  0.00    +0.117 A 
ATOM      5  C   LIG    1       31.376  -1.110  24.099  0.00  0.00    +0.046 A 
ATOM      6  C   LIG    1       30.765  -0.698  25.289  0.00  0.00    +0.008 A 
ATOM      7  C   LIG    1       31.007  -1.375  26.496  0.00  0.00    -0.037 A 
ATOM      8  C   LIG    1       31.894  -2.474  26.459  0.00  0.00    +0.008 A 
ATOM      9  C   LIG    1       32.506  -2.884  25.272  0.00  0.00    +0.046 A 
BRANCH   4  10
ATOM     10  O   LIG    1       32.792  -2.574  22.911  0.00  0.00    -0.507 OA
ATOM     11  H   LIG    1       32.239  -2.230  22.191  0.00  0.00    +0.292 HD
ENDBRANCH   4  10
ENDBRANCH   1   7
BRANCH   1  12
ATOM     12  C   LIG    1       28.904  -1.656  27.855  0.00  0.00    -0.037 A 
ATOM     13  C   LIG    1       28.781  -3.054  27.995  0.00  0.00    +0.008 A 
ATOM     14  C   LIG    1       27.531  -3.668  28.105  0.00  0.00    +0.046 A 
ATOM     15  C   LIG    1       26.383  -2.894  28.102  0.00  0.00    +0.117 A 
ATOM     16  C   LIG    1       26.463  -1.514  27.968  0.00  0.00    +0.046 A 
ATOM     17  C   LIG    1       27.715  -0.901  27.840  0.00  0.00    +0.008 A 
BRANCH  15  18
ATOM     18  O   LIG    1       25.185  -3.527  28.251  0.00  0.00    -0.507 OA
ATOM     19  H   LIG    1       24.479  -2.862  28.217  0.00  0.00    +0.292 HD
ENDBRANCH  15  18
ENDBRANCH   1  12
TORSDOF 4
ENDMDL
MODEL 2
REMARK VINA RESULT:      -8.5      0.076      5.409
REMARK  Name = 
REMARK                            x       y       z     vdW  Elec       q    Type
REMARK                         _______ _______ _______ _____ _____    ______ ____
ROOT
ATOM      1  C   LIG    1       30.327  -0.950  27.865  0.00  0.00    +0.015 C 
ATOM      2  C   LIG    1       31.254  -1.379  29.037  0.00  0.00    +0.021 C 
ATOM      3  C   LIG    1       30.129   0.578  28.071  0.00  0.00    +0.021 C 
ENDROOT
BRANCH   1   7
ATOM      4  C   LIG    1       26.439  -2.922  28.076  0.00  0.00    +0.117 A 
ATOM      5  C   LIG    1       26.494  -1.541  27.962  0.00  0.00    +0.046 A 
ATOM      6  C   LIG    1       27.730  -0.892  27.873  0.00  0.00    +0.008 A 
ATOM      7  C   LIG    1       28.931  -1.621  27.897  0.00  0.00    -0.037 A 
ATOM      8  C   LIG    1       28.838  -3.026  28.004  0.00  0.00    +0.008 A 
ATOM      9  C   LIG    1       27.603  -3.675  28.093  0.00  0.00    +0.046 A 
BRANCH   4  10
ATOM     10  O   LIG    1       25.212  -3.508  28.180  0.00  0.00    -0.507 OA
ATOM     11  H   LIG    1       24.548  -2.810  28.292  0.00  0.00    +0.292 HD
ENDBRANCH   4  10
ENDBRANCH   1   7
BRANCH   1  12
ATOM     12  C   LIG    1       31.023  -1.306  26.526  0.00  0.00    -0.037 A 
ATOM     13  C   LIG    1       31.933  -2.382  26.471  0.00  0.00    +0.008 A 
ATOM     14  C   LIG    1       32.517  -2.781  25.266  0.00  0.00    +0.046 A 
ATOM     15  C   LIG    1       32.183  -2.128  24.092  0.00  0.00    +0.117 A 
ATOM     16  C   LIG    1       31.290  -1.065  24.105  0.00  0.00    +0.046 A 
ATOM     17  C   LIG    1       30.718  -0.654  25.316  0.00  0.00    +0.008 A 
BRANCH  15  18
ATOM     18  O   LIG    1       32.744  -2.573  22.932  0.00  0.00    -0.507 OA
ATOM     19  H   LIG    1       33.680  -2.769  23.100  0.00  0.00    +0.292 HD
ENDBRANCH  15  18
ENDBRANCH   1  12
TORSDOF 4
ENDMDL
MODEL 3
REMARK VINA RESULT:      -8.4      2.544      5.565
REMARK  Name = 
REMARK                            x       y       z     vdW  Elec       q    Type
REMARK                         _______ _______ _______ _____ _____    ______ ____
ROOT
ATOM      1  C   LIG    1       30.231  -1.318  27.067  0.00  0.00    +0.015 C 
ATOM      2  C   LIG    1       30.160  -0.407  25.810  0.00  0.00    +0.021 C 
ATOM      3  C   LIG    1       31.164  -2.487  26.642  0.00  0.00    +0.021 C 
ENDROOT
BRANCH   1   7
ATOM      4  C   LIG    1       26.323  -2.970  28.092  0.00  0.00    +0.117 A 
ATOM      5  C   LIG    1       27.451  -3.766  28.220  0.00  0.00    +0.046 A 
ATOM      6  C   LIG    1       28.716  -3.249  27.916  0.00  0.00    +0.008 A 
ATOM      7  C   LIG    1       28.866  -1.922  27.478  0.00  0.00    -0.037 A 
ATOM      8  C   LIG    1       27.697  -1.137  27.368  0.00  0.00    +0.008 A 
ATOM      9  C   LIG    1       26.434  -1.652  27.673  0.00  0.00    +0.046 A 
BRANCH   4  10
ATOM     10  O   LIG    1       25.111  -3.523  28.381  0.00  0.00    -0.507 OA
ATOM     11  H   LIG    1       25.253  -4.442  28.659  0.00  0.00    +0.292 HD
ENDBRANCH   4  10
ENDBRANCH   1   7
BRANCH   1  12
ATOM     12  C   LIG    1       30.788  -0.487  28.252  0.00  0.00    -0.037 A 
ATOM     13  C   LIG    1       31.449  -1.135  29.316  0.00  0.00    +0.008 A 
ATOM     14  C   LIG    1       32.033  -0.412  30.358  0.00  0.00    +0.046 A 
ATOM     15  C   LIG    1       31.987   0.972  30.345  0.00  0.00    +0.117 A 
ATOM     16  C   LIG    1       31.346   1.646  29.314  0.00  0.00    +0.046 A 
ATOM     17  C   LIG    1       30.746   0.920  28.278  0.00  0.00    +0.008 A 
BRANCH  15  18
ATOM     18  O   LIG    1       32.603   1.641  31.360  0.00  0.00    -0.507 OA
ATOM     19  H   LIG    1       32.098   1.494  32.176  0.00  0.00    +0.292 HD
ENDBRANCH  15  18
ENDBRANCH   1  12
TORSDOF 4
ENDMDL
MODEL 4
REMARK VINA RESULT:      -8.2      2.826      6.089
REMARK  Name = 
REMARK                            x       y       z     vdW  Elec       q    Type
REMARK                         _______ _______ _______ _____ _____    ______ ____
ROOT
ATOM      1  C   LIG    1       31.516  -1.304  25.738  0.00  0.00    +0.015 C 
ATOM      2  C   LIG    1       31.436  -0.956  24.225  0.00  0.00    +0.021 C 
ATOM      3  C   LIG    1       32.071  -2.757  25.769  0.00  0.00    +0.021 C 
ENDROOT
BRANCH   1   7
ATOM      4  C   LIG    1       27.576  -1.275  27.614  0.00  0.00    +0.117 A 
ATOM      5  C   LIG    1       28.454  -2.310  27.897  0.00  0.00    +0.046 A 
ATOM      6  C   LIG    1       29.730  -2.327  27.321  0.00  0.00    +0.008 A 
ATOM      7  C   LIG    1       30.142  -1.303  26.452  0.00  0.00    -0.037 A 
ATOM      8  C   LIG    1       29.226  -0.260  26.193  0.00  0.00    +0.008 A 
ATOM      9  C   LIG    1       27.952  -0.242  26.769  0.00  0.00    +0.046 A 
BRANCH   4  10
ATOM     10  O   LIG    1       26.337  -1.311  28.183  0.00  0.00    -0.507 OA
ATOM     11  H   LIG    1       26.040  -2.235  28.210  0.00  0.00    +0.292 HD
ENDBRANCH   4  10
ENDBRANCH   1   7
BRANCH   1  12
ATOM     12  C   LIG    1       32.444  -0.277  26.436  0.00  0.00    -0.037 A 
ATOM     13  C   LIG    1       33.175  -0.654  27.581  0.00  0.00    +0.008 A 
ATOM     14  C   LIG    1       34.081   0.219  28.187  0.00  0.00    +0.046 A 
ATOM     15  C   LIG    1       34.290   1.477  27.646  0.00  0.00    +0.117 A 
ATOM     16  C   LIG    1       33.590   1.885  26.519  0.00  0.00    +0.046 A 
ATOM     17  C   LIG    1       32.669   1.014  25.922  0.00  0.00    +0.008 A 
BRANCH  15  18
ATOM     18  O   LIG    1       35.210   2.284  28.245  0.00  0.00    -0.507 OA
ATOM     19  H   LIG    1       35.461   2.982  27.618  0.00  0.00    +0.292 HD
ENDBRANCH  15  18
ENDBRANCH   1  12
TORSDOF 4
ENDMDL
MODEL 5
REMARK VINA RESULT:      -8.2      2.816      3.780
REMARK  Name = 
REMARK                            x       y       z     vdW  Elec       q    Type
REMARK                         _______ _______ _______ _____ _____    ______ ____
ROOT
ATOM      1  C   LIG    1       31.541  -1.335  25.747  0.00  0.00    +0.015 C 
ATOM      2  C   LIG    1       32.121  -2.778  25.739  0.00  0.00    +0.021 C 
ATOM      3  C   LIG    1       31.421  -0.962  24.242  0.00  0.00    +0.021 C 
ENDROOT
BRANCH   1   7
ATOM      4  C   LIG    1       34.262   1.491  27.660  0.00  0.00    +0.117 A 
ATOM      5  C   LIG    1       33.569   1.880  26.524  0.00  0.00    +0.046 A 
ATOM      6  C   LIG    1       32.677   0.995  25.908  0.00  0.00    +0.008 A 
ATOM      7  C   LIG    1       32.467  -0.295  26.424  0.00  0.00    -0.037 A 
ATOM      8  C   LIG    1       33.183  -0.654  27.587  0.00  0.00    +0.008 A 
ATOM      9  C   LIG    1       34.073   0.229  28.204  0.00  0.00    +0.046 A 
BRANCH   4  10
ATOM     10  O   LIG    1       35.135   2.379  28.215  0.00  0.00    -0.507 OA
ATOM     11  H   LIG    1       36.037   2.106  27.983  0.00  0.00    +0.292 HD
ENDBRANCH   4  10
ENDBRANCH   1   7
BRANCH   1  12
ATOM     12  C   LIG    1       30.180  -1.350  26.488  0.00  0.00    -0.037 A 
ATOM     13  C   LIG    1       29.225  -0.346  26.225  0.00  0.00    +0.008 A 
ATOM     14  C   LIG    1       27.958  -0.373  26.812  0.00  0.00    +0.046 A 
ATOM     15  C   LIG    1       27.614  -1.418  27.655  0.00  0.00    +0.117 A 
ATOM     16  C   LIG    1       28.526  -2.426  27.937  0.00  0.00    +0.046 A 
ATOM     17  C   LIG    1       29.802  -2.388  27.361  0.00  0.00    +0.008 A 
BRANCH  15  18
ATOM     18  O   LIG    1       26.356  -1.428  28.177  0.00  0.00    -0.507 OA
ATOM     19  H   LIG    1       26.358  -0.907  28.996  0.00  0.00    +0.292 HD
ENDBRANCH  15  18
ENDBRANCH   1  12
TORSDOF 4
ENDMDL
MODEL 6
REMARK VINA RESULT:      -7.7      2.760      4.117
REMARK  Name = 
REMARK                            x       y       z     vdW  Elec       q    Type
REMARK                         _______ _______ _______ _____ _____    ______ ____
ROOT
ATOM      1  C   LIG    1       31.048  -1.230  26.695  0.00  0.00    +0.015 C 
ATOM      2  C   LIG    1       31.619  -2.662  26.493  0.00  0.00    +0.021 C 
ATOM      3  C   LIG    1       31.548  -0.439  25.454  0.00  0.00    +0.021 C 
ENDROOT
BRANCH   1   7
ATOM      4  C   LIG    1       32.487   0.903  30.221  0.00  0.00    +0.117 A 
ATOM      5  C   LIG    1       31.898  -0.343  30.375  0.00  0.00    +0.046 A 
ATOM      6  C   LIG    1       31.449  -1.052  29.255  0.00  0.00    +0.008 A 
ATOM      7  C   LIG    1       31.584  -0.519  27.962  0.00  0.00    -0.037 A 
ATOM      8  C   LIG    1       32.197   0.748  27.841  0.00  0.00    +0.008 A 
ATOM      9  C   LIG    1       32.647   1.456  28.959  0.00  0.00    +0.046 A 
BRANCH   4  10
ATOM     10  O   LIG    1       32.892   1.564  31.342  0.00  0.00    -0.507 OA
ATOM     11  H   LIG    1       33.316   0.925  31.937  0.00  0.00    +0.292 HD
ENDBRANCH   4  10
ENDBRANCH   1   7
BRANCH   1  12
ATOM     12  C   LIG    1       29.503  -1.320  26.787  0.00  0.00    -0.037 A 
ATOM     13  C   LIG    1       28.885  -2.560  27.049  0.00  0.00    +0.008 A 
ATOM     14  C   LIG    1       27.503  -2.663  27.218  0.00  0.00    +0.046 A 
ATOM     15  C   LIG    1       26.716  -1.526  27.152  0.00  0.00    +0.117 A 
ATOM     16  C   LIG    1       27.287  -0.286  26.897  0.00  0.00    +0.046 A 
ATOM     17  C   LIG    1       28.672  -0.186  26.711  0.00  0.00    +0.008 A 
BRANCH  15  18
ATOM     18  O   LIG    1       25.376  -1.663  27.361  0.00  0.00    -0.507 OA
ATOM     19  H   LIG    1       25.209  -2.556  27.705  0.00  0.00    +0.292 HD
ENDBRANCH  15  18
ENDBRANCH   1  12
TORSDOF 4
ENDMDL
MODEL 7
REMARK VINA RESULT:      -7.7      1.579      5.601
REMARK  Name = 
REMARK                            x       y       z     vdW  Elec       q    Type
REMARK                         _______ _______ _______ _____ _____    ______ ____
ROOT
ATOM      1  C   LIG    1       31.147  -0.331  26.853  0.00  0.00    +0.015 C 
ATOM      2  C   LIG    1       31.764  -0.795  28.202  0.00  0.00    +0.021 C 
ATOM      3  C   LIG    1       31.652   1.129  26.681  0.00  0.00    +0.021 C 
ENDROOT
BRANCH   1   7
ATOM      4  C   LIG    1       26.784  -0.361  26.961  0.00  0.00    +0.117 A 
ATOM      5  C   LIG    1       27.456   0.850  27.033  0.00  0.00    +0.046 A 
ATOM      6  C   LIG    1       28.854   0.882  26.979  0.00  0.00    +0.008 A 
ATOM      7  C   LIG    1       29.599  -0.303  26.853  0.00  0.00    -0.037 A 
ATOM      8  C   LIG    1       28.881  -1.517  26.773  0.00  0.00    +0.008 A 
ATOM      9  C   LIG    1       27.485  -1.550  26.826  0.00  0.00    +0.046 A 
BRANCH   4  10
ATOM     10  O   LIG    1       25.422  -0.345  27.036  0.00  0.00    -0.507 OA
ATOM     11  H   LIG    1       25.131   0.579  27.106  0.00  0.00    +0.292 HD
ENDBRANCH   4  10
ENDBRANCH   1   7
BRANCH   1  12
ATOM     12  C   LIG    1       31.630  -1.286  25.731  0.00  0.00    -0.037 A 
ATOM     13  C   LIG    1       31.461  -0.924  24.378  0.00  0.00    +0.008 A 
ATOM     14  C   LIG    1       31.956  -1.720  23.344  0.00  0.00    +0.046 A 
ATOM     15  C   LIG    1       32.650  -2.881  23.642  0.00  0.00    +0.117 A 
ATOM     16  C   LIG    1       32.838  -3.270  24.962  0.00  0.00    +0.046 A 
ATOM     17  C   LIG    1       32.327  -2.480  25.998  0.00  0.00    +0.008 A 
BRANCH  15  18
ATOM     18  O   LIG    1       33.150  -3.610  22.605  0.00  0.00    -0.507 OA
ATOM     19  H   LIG    1       32.941  -4.546  22.758  0.00  0.00    +0.292 HD
ENDBRANCH  15  18
ENDBRANCH   1  12
TORSDOF 4
ENDMDL
MODEL 8
REMARK VINA RESULT:      -7.3      2.704      5.684
REMARK  Name = 
REMARK                            x       y       z     vdW  Elec       q    Type
REMARK                         _______ _______ _______ _____ _____    ______ ____
ROOT
ATOM      1  C   LIG    1       29.946  -1.003  27.181  0.00  0.00    +0.015 C 
ATOM      2  C   LIG    1       28.968  -0.010  26.492  0.00  0.00    +0.021 C 
ATOM      3  C   LIG    1       29.016  -2.050  27.858  0.00  0.00    +0.021 C 
ENDROOT
BRANCH   1   7
ATOM      4  C   LIG    1       32.302   0.940  30.299  0.00  0.00    +0.117 A 
ATOM      5  C   LIG    1       32.001  -0.409  30.417  0.00  0.00    +0.046 A 
ATOM      6  C   LIG    1       31.264  -1.055  29.418  0.00  0.00    +0.008 A 
ATOM      7  C   LIG    1       30.817  -0.355  28.284  0.00  0.00    -0.037 A 
ATOM      8  C   LIG    1       31.150   1.015  28.192  0.00  0.00    +0.008 A 
ATOM      9  C   LIG    1       31.887   1.660  29.189  0.00  0.00    +0.046 A 
BRANCH   4  10
ATOM     10  O   LIG    1       33.006   1.530  31.306  0.00  0.00    -0.507 OA
ATOM     11  H   LIG    1       32.429   1.597  32.084  0.00  0.00    +0.292 HD
ENDBRANCH   4  10
ENDBRANCH   1   7
BRANCH   1  12
ATOM     12  C   LIG    1       30.876  -1.613  26.102  0.00  0.00    -0.037 A 
ATOM     13  C   LIG    1       30.992  -0.993  24.841  0.00  0.00    +0.008 A 
ATOM     14  C   LIG    1       31.880  -1.468  23.874  0.00  0.00    +0.046 A 
ATOM     15  C   LIG    1       32.687  -2.557  24.158  0.00  0.00    +0.117 A 
ATOM     16  C   LIG    1       32.603  -3.195  25.389  0.00  0.00    +0.046 A 
ATOM     17  C   LIG    1       31.699  -2.728  26.351  0.00  0.00    +0.008 A 
BRANCH  15  18
ATOM     18  O   LIG    1       33.568  -2.966  23.202  0.00  0.00    -0.507 OA
ATOM     19  H   LIG    1       34.060  -3.730  23.544  0.00  0.00    +0.292 HD
ENDBRANCH  15  18
ENDBRANCH   1  12
TORSDOF 4
ENDMDL
MODEL 9
REMARK VINA RESULT:      -6.4      7.703     11.675
REMARK  Name = 
REMARK                            x       y       z     vdW  Elec       q    Type
REMARK                         _______ _______ _______ _____ _____    ______ ____
ROOT
ATOM      1  C   LIG    1       33.893  -2.487  17.592  0.00  0.00    +0.015 C 
ATOM      2  C   LIG    1       35.040  -2.802  18.593  0.00  0.00    +0.021 C 
ATOM      3  C   LIG    1       34.137  -1.007  17.184  0.00  0.00    +0.021 C 
ENDROOT
BRANCH   1   7
ATOM      4  C   LIG    1       29.856  -2.823  19.217  0.00  0.00    +0.117 A 
ATOM      5  C   LIG    1       30.931  -3.263  19.974  0.00  0.00    +0.046 A 
ATOM      6  C   LIG    1       32.235  -3.146  19.479  0.00  0.00    +0.008 A 
ATOM      7  C   LIG    1       32.479  -2.583  18.215  0.00  0.00    -0.037 A 
ATOM      8  C   LIG    1       31.362  -2.137  17.475  0.00  0.00    +0.008 A 
ATOM      9  C   LIG    1       30.059  -2.253  17.969  0.00  0.00    +0.046 A 
BRANCH   4  10
ATOM     10  O   LIG    1       28.603  -2.975  19.732  0.00  0.00    -0.507 OA
ATOM     11  H   LIG    1       28.223  -3.794  19.374  0.00  0.00    +0.292 HD
ENDBRANCH   4  10
ENDBRANCH   1   7
BRANCH   1  12
ATOM     12  C   LIG    1       33.986  -3.477  16.403  0.00  0.00    -0.037 A 
ATOM     13  C   LIG    1       34.726  -3.128  15.254  0.00  0.00    +0.008 A 
ATOM     14  C   LIG    1       34.898  -4.026  14.198  0.00  0.00    +0.046 A 
ATOM     15  C   LIG    1       34.353  -5.297  14.282  0.00  0.00    +0.117 A 
ATOM     16  C   LIG    1       33.619  -5.678  15.397  0.00  0.00    +0.046 A 
ATOM     17  C   LIG    1       33.432  -4.771  16.447  0.00  0.00    +0.008 A 
BRANCH  15  18
ATOM     18  O   LIG    1       34.576  -6.156  13.247  0.00  0.00    -0.507 OA
ATOM     19  H   LIG    1       34.304  -5.722  12.423  0.00  0.00    +0.292 HD
ENDBRANCH  15  18
ENDBRANCH   1  12
TORSDOF 4
ENDMDL
