MODEL 1
REMARK VINA RESULT:      -8.5      0.000      0.000
REMARK  Name = 
REMARK                            x       y       z     vdW  Elec       q    Type
REMARK                         _______ _______ _______ _____ _____    ______ ____
ROOT
ATOM      1  C   LIG    1       67.591  46.572  95.834  0.00  0.00    +0.015 C 
ATOM      2  C   LIG    1       66.045  46.407  95.865  0.00  0.00    +0.021 C 
ATOM      3  C   LIG    1       68.134  45.118  95.916  0.00  0.00    +0.021 C 
ENDROOT
BRANCH   1   7
ATOM      4  C   LIG    1       69.330  48.753  99.191  0.00  0.00    +0.117 A 
ATOM      5  C   LIG    1       68.415  49.392  98.368  0.00  0.00    +0.046 A 
ATOM      6  C   LIG    1       67.831  48.703  97.299  0.00  0.00    +0.008 A 
ATOM      7  C   LIG    1       68.158  47.362  97.039  0.00  0.00    -0.037 A 
ATOM      8  C   LIG    1       69.087  46.740  97.903  0.00  0.00    +0.008 A 
ATOM      9  C   LIG    1       69.670  47.427  98.972  0.00  0.00    +0.046 A 
BRANCH   4  10
ATOM     10  O   LIG    1       69.888  49.470 100.208  0.00  0.00    -0.507 OA
ATOM     11  H   LIG    1       70.804  49.682  99.966  0.00  0.00    +0.292 HD
ENDBRANCH   4  10
ENDBRANCH   1   7
BRANCH   1  12
ATOM     12  C   LIG    1       67.986  47.303  94.526  0.00  0.00    -0.037 A 
ATOM     13  C   LIG    1       66.986  47.709  93.617  0.00  0.00    +0.008 A 
ATOM     14  C   LIG    1       67.298  48.440  92.469  0.00  0.00    +0.046 A 
ATOM     15  C   LIG    1       68.612  48.800  92.220  0.00  0.00    +0.117 A 
ATOM     16  C   LIG    1       69.625  48.421  93.091  0.00  0.00    +0.046 A 
ATOM     17  C   LIG    1       69.313  47.673  94.233  0.00  0.00    +0.008 A 
BRANCH  15  18
ATOM     18  O   LIG    1       68.870  49.547  91.109  0.00  0.00    -0.507 OA
ATOM     19  H   LIG    1       69.640  49.167  90.656  0.00  0.00    +0.292 HD
ENDBRANCH  15  18
ENDBRANCH   1  12
TORSDOF 4
ENDMDL
MODEL 2
REMARK VINA RESULT:      -8.5      0.048      5.539
REMARK  Name = 
REMARK                            x       y       z     vdW  Elec       q    Type
REMARK                         _______ _______ _______ _____ _____    ______ ____
ROOT
ATOM      1  C   LIG    1       67.589  46.552  95.858  0.00  0.00    +0.015 C 
ATOM      2  C   LIG    1       68.133  45.097  95.924  0.00  0.00    +0.021 C 
ATOM      3  C   LIG    1       66.043  46.385  95.871  0.00  0.00    +0.021 C 
ENDROOT
BRANCH   1   7
ATOM      4  C   LIG    1       68.569  48.774  92.232  0.00  0.00    +0.117 A 
ATOM      5  C   LIG    1       69.585  48.428  93.110  0.00  0.00    +0.046 A 
ATOM      6  C   LIG    1       69.293  47.698  94.268  0.00  0.00    +0.008 A 
ATOM      7  C   LIG    1       67.977  47.305  94.562  0.00  0.00    -0.037 A 
ATOM      8  C   LIG    1       66.969  47.666  93.640  0.00  0.00    +0.008 A 
ATOM      9  C   LIG    1       67.259  48.394  92.483  0.00  0.00    +0.046 A 
BRANCH   4  10
ATOM     10  O   LIG    1       68.898  49.502  91.126  0.00  0.00    -0.507 OA
ATOM     11  H   LIG    1       69.113  48.886  90.408  0.00  0.00    +0.292 HD
ENDBRANCH   4  10
ENDBRANCH   1   7
BRANCH   1  12
ATOM     12  C   LIG    1       68.133  47.342  97.077  0.00  0.00    -0.037 A 
ATOM     13  C   LIG    1       69.104  46.758  97.916  0.00  0.00    +0.008 A 
ATOM     14  C   LIG    1       69.675  47.469  98.974  0.00  0.00    +0.046 A 
ATOM     15  C   LIG    1       69.302  48.784  99.198  0.00  0.00    +0.117 A 
ATOM     16  C   LIG    1       68.350  49.394  98.393  0.00  0.00    +0.046 A 
ATOM     17  C   LIG    1       67.766  48.675  97.343  0.00  0.00    +0.008 A 
BRANCH  15  18
ATOM     18  O   LIG    1       69.911  49.455 100.216  0.00  0.00    -0.507 OA
ATOM     19  H   LIG    1       70.537  48.853 100.650  0.00  0.00    +0.292 HD
ENDBRANCH  15  18
ENDBRANCH   1  12
TORSDOF 4
ENDMDL
MODEL 3
REMARK VINA RESULT:      -8.5      0.652      1.773
REMARK  Name = 
REMARK                            x       y       z     vdW  Elec       q    Type
REMARK                         _______ _______ _______ _____ _____    ______ ____
ROOT
ATOM      1  C   LIG    1       67.482  46.277  95.854  0.00  0.00    +0.015 C 
ATOM      2  C   LIG    1       65.947  46.058  95.733  0.00  0.00    +0.021 C 
ATOM      3  C   LIG    1       68.078  44.842  95.818  0.00  0.00    +0.021 C 
ENDROOT
BRANCH   1   7
ATOM      4  C   LIG    1       68.552  48.174  99.636  0.00  0.00    +0.117 A 
ATOM      5  C   LIG    1       69.092  46.936  99.321  0.00  0.00    +0.046 A 
ATOM      6  C   LIG    1       68.777  46.321  98.104  0.00  0.00    +0.008 A 
ATOM      7  C   LIG    1       67.914  46.940  97.185  0.00  0.00    -0.037 A 
ATOM      8  C   LIG    1       67.390  48.204  97.534  0.00  0.00    +0.008 A 
ATOM      9  C   LIG    1       67.705  48.820  98.748  0.00  0.00    +0.046 A 
BRANCH   4  10
ATOM     10  O   LIG    1       68.873  48.726 100.841  0.00  0.00    -0.507 OA
ATOM     11  H   LIG    1       68.116  48.614 101.439  0.00  0.00    +0.292 HD
ENDBRANCH   4  10
ENDBRANCH   1   7
BRANCH   1  12
ATOM     12  C   LIG    1       67.951  47.168  94.675  0.00  0.00    -0.037 A 
ATOM     13  C   LIG    1       69.323  47.449  94.509  0.00  0.00    +0.008 A 
ATOM     14  C   LIG    1       69.789  48.180  93.415  0.00  0.00    +0.046 A 
ATOM     15  C   LIG    1       68.896  48.622  92.453  0.00  0.00    +0.117 A 
ATOM     16  C   LIG    1       67.538  48.364  92.580  0.00  0.00    +0.046 A 
ATOM     17  C   LIG    1       67.069  47.646  93.687  0.00  0.00    +0.008 A 
BRANCH  15  18
ATOM     18  O   LIG    1       69.396  49.299  91.380  0.00  0.00    -0.507 OA
ATOM     19  H   LIG    1       70.326  49.045  91.263  0.00  0.00    +0.292 HD
ENDBRANCH  15  18
ENDBRANCH   1  12
TORSDOF 4
ENDMDL
MODEL 4
REMARK VINA RESULT:      -8.4      0.338      5.459
REMARK  Name = 
REMARK                            x       y       z     vdW  Elec       q    Type
REMARK                         _______ _______ _______ _____ _____    ______ ____
ROOT
ATOM      1  C   LIG    1       67.536  46.555  95.872  0.00  0.00    +0.015 C 
ATOM      2  C   LIG    1       68.027  45.079  95.878  0.00  0.00    +0.021 C 
ATOM      3  C   LIG    1       65.986  46.444  95.870  0.00  0.00    +0.021 C 
ENDROOT
BRANCH   1   7
ATOM      4  C   LIG    1       68.838  48.682  92.290  0.00  0.00    +0.117 A 
ATOM      5  C   LIG    1       67.489  48.412  92.466  0.00  0.00    +0.046 A 
ATOM      6  C   LIG    1       67.050  47.749  93.618  0.00  0.00    +0.008 A 
ATOM      7  C   LIG    1       67.959  47.347  94.610  0.00  0.00    -0.037 A 
ATOM      8  C   LIG    1       69.324  47.646  94.402  0.00  0.00    +0.008 A 
ATOM      9  C   LIG    1       69.763  48.310  93.253  0.00  0.00    +0.046 A 
BRANCH   4  10
ATOM     10  O   LIG    1       69.221  49.313  91.144  0.00  0.00    -0.507 OA
ATOM     11  H   LIG    1       68.747  48.910  90.399  0.00  0.00    +0.292 HD
ENDBRANCH   4  10
ENDBRANCH   1   7
BRANCH   1  12
ATOM     12  C   LIG    1       68.101  47.272  97.125  0.00  0.00    -0.037 A 
ATOM     13  C   LIG    1       67.549  48.501  97.540  0.00  0.00    +0.008 A 
ATOM     14  C   LIG    1       67.977  49.135  98.709  0.00  0.00    +0.046 A 
ATOM     15  C   LIG    1       68.948  48.539  99.497  0.00  0.00    +0.117 A 
ATOM     16  C   LIG    1       69.515  47.328  99.122  0.00  0.00    +0.046 A 
ATOM     17  C   LIG    1       69.097  46.702  97.941  0.00  0.00    +0.008 A 
BRANCH  15  18
ATOM     18  O   LIG    1       69.311  49.170 100.649  0.00  0.00    -0.507 OA
ATOM     19  H   LIG    1       70.273  49.301 100.638  0.00  0.00    +0.292 HD
ENDBRANCH  15  18
ENDBRANCH   1  12
TORSDOF 4
ENDMDL
MODEL 5
REMARK VINA RESULT:      -8.0      1.837      5.556
REMARK  Name = 
REMARK                            x       y       z     vdW  Elec       q    Type
REMARK                         _______ _______ _______ _____ _____    ______ ____
ROOT
ATOM      1  C   LIG    1       67.544  46.263  96.190  0.00  0.00    +0.015 C 
ATOM      2  C   LIG    1       67.887  44.816  95.736  0.00  0.00    +0.021 C 
ATOM      3  C   LIG    1       66.055  46.450  95.784  0.00  0.00    +0.021 C 
ENDROOT
BRANCH   1   7
ATOM      4  C   LIG    1       69.790  49.447  94.224  0.00  0.00    +0.117 A 
ATOM      5  C   LIG    1       70.471  48.497  94.971  0.00  0.00    +0.046 A 
ATOM      6  C   LIG    1       69.771  47.457  95.592  0.00  0.00    +0.008 A 
ATOM      7  C   LIG    1       68.375  47.355  95.473  0.00  0.00    -0.037 A 
ATOM      8  C   LIG    1       67.715  48.334  94.698  0.00  0.00    +0.008 A 
ATOM      9  C   LIG    1       68.413  49.372  94.076  0.00  0.00    +0.046 A 
BRANCH   4  10
ATOM     10  O   LIG    1       70.512  50.453  93.653  0.00  0.00    -0.507 OA
ATOM     11  H   LIG    1       69.942  50.915  93.018  0.00  0.00    +0.292 HD
ENDBRANCH   4  10
ENDBRANCH   1   7
BRANCH   1  12
ATOM     12  C   LIG    1       67.784  46.374  97.718  0.00  0.00    -0.037 A 
ATOM     13  C   LIG    1       68.450  45.335  98.402  0.00  0.00    +0.008 A 
ATOM     14  C   LIG    1       68.755  45.437  99.761  0.00  0.00    +0.046 A 
ATOM     15  C   LIG    1       68.421  46.588 100.456  0.00  0.00    +0.117 A 
ATOM     16  C   LIG    1       67.766  47.632  99.817  0.00  0.00    +0.046 A 
ATOM     17  C   LIG    1       67.445  47.522  98.458  0.00  0.00    +0.008 A 
BRANCH  15  18
ATOM     18  O   LIG    1       68.770  46.664 101.771  0.00  0.00    -0.507 OA
ATOM     19  H   LIG    1       69.317  47.455 101.899  0.00  0.00    +0.292 HD
ENDBRANCH  15  18
ENDBRANCH   1  12
TORSDOF 4
ENDMDL
MODEL 6
REMARK VINA RESULT:      -8.0      1.822      2.013
REMARK  Name = 
REMARK                            x       y       z     vdW  Elec       q    Type
REMARK                         _______ _______ _______ _____ _____    ______ ____
ROOT
ATOM      1  C   LIG    1       67.537  46.241  96.193  0.00  0.00    +0.015 C 
ATOM      2  C   LIG    1       66.041  46.424  95.808  0.00  0.00    +0.021 C 
ATOM      3  C   LIG    1       67.872  44.789  95.752  0.00  0.00    +0.021 C 
ENDROOT
BRANCH   1   7
ATOM      4  C   LIG    1       68.439  46.500 100.455  0.00  0.00    +0.117 A 
ATOM      5  C   LIG    1       67.883  47.596  99.812  0.00  0.00    +0.046 A 
ATOM      6  C   LIG    1       67.568  47.526  98.450  0.00  0.00    +0.008 A 
ATOM      7  C   LIG    1       67.807  46.353  97.713  0.00  0.00    -0.037 A 
ATOM      8  C   LIG    1       68.365  45.254  98.403  0.00  0.00    +0.008 A 
ATOM      9  C   LIG    1       68.679  45.323  99.763  0.00  0.00    +0.046 A 
BRANCH   4  10
ATOM     10  O   LIG    1       68.747  46.622 101.778  0.00  0.00    -0.507 OA
ATOM     11  H   LIG    1       68.008  46.267 102.297  0.00  0.00    +0.292 HD
ENDBRANCH   4  10
ENDBRANCH   1   7
BRANCH   1  12
ATOM     12  C   LIG    1       68.375  47.317  95.455  0.00  0.00    -0.037 A 
ATOM     13  C   LIG    1       67.727  48.313  94.694  0.00  0.00    +0.008 A 
ATOM     14  C   LIG    1       68.444  49.344  94.083  0.00  0.00    +0.046 A 
ATOM     15  C   LIG    1       69.819  49.412  94.241  0.00  0.00    +0.117 A 
ATOM     16  C   LIG    1       70.492  48.451  94.983  0.00  0.00    +0.046 A 
ATOM     17  C   LIG    1       69.774  47.408  95.581  0.00  0.00    +0.008 A 
BRANCH  15  18
ATOM     18  O   LIG    1       70.477  50.455  93.661  0.00  0.00    -0.507 OA
ATOM     19  H   LIG    1       71.071  50.848  94.320  0.00  0.00    +0.292 HD
ENDBRANCH  15  18
ENDBRANCH   1  12
TORSDOF 4
ENDMDL
MODEL 7
REMARK VINA RESULT:      -7.3      1.960      5.750
REMARK  Name = 
REMARK                            x       y       z     vdW  Elec       q    Type
REMARK                         _______ _______ _______ _____ _____    ______ ____
ROOT
ATOM      1  C   LIG    1       67.753  49.302  96.129  0.00  0.00    +0.015 C 
ATOM      2  C   LIG    1       66.298  49.837  96.020  0.00  0.00    +0.021 C 
ATOM      3  C   LIG    1       68.515  50.416  96.900  0.00  0.00    +0.021 C 
ENDROOT
BRANCH   1   7
ATOM      4  C   LIG    1       69.588  48.805  92.200  0.00  0.00    +0.117 A 
ATOM      5  C   LIG    1       70.285  49.475  93.194  0.00  0.00    +0.046 A 
ATOM      6  C   LIG    1       69.722  49.627  94.466  0.00  0.00    +0.008 A 
ATOM      7  C   LIG    1       68.450  49.108  94.759  0.00  0.00    -0.037 A 
ATOM      8  C   LIG    1       67.773  48.423  93.726  0.00  0.00    +0.008 A 
ATOM      9  C   LIG    1       68.334  48.270  92.455  0.00  0.00    +0.046 A 
BRANCH   4  10
ATOM     10  O   LIG    1       70.168  48.698  90.970  0.00  0.00    -0.507 OA
ATOM     11  H   LIG    1       69.530  49.000  90.304  0.00  0.00    +0.292 HD
ENDBRANCH   4  10
ENDBRANCH   1   7
BRANCH   1  12
ATOM     12  C   LIG    1       67.729  47.943  96.875  0.00  0.00    -0.037 A 
ATOM     13  C   LIG    1       68.879  47.497  97.559  0.00  0.00    +0.008 A 
ATOM     14  C   LIG    1       68.869  46.318  98.309  0.00  0.00    +0.046 A 
ATOM     15  C   LIG    1       67.703  45.577  98.408  0.00  0.00    +0.117 A 
ATOM     16  C   LIG    1       66.550  45.985  97.749  0.00  0.00    +0.046 A 
ATOM     17  C   LIG    1       66.566  47.157  96.984  0.00  0.00    +0.008 A 
BRANCH  15  18
ATOM     18  O   LIG    1       67.724  44.455  99.180  0.00  0.00    -0.507 OA
ATOM     19  H   LIG    1       68.002  44.703 100.076  0.00  0.00    +0.292 HD
ENDBRANCH  15  18
ENDBRANCH   1  12
TORSDOF 4
ENDMDL
MODEL 8
REMARK VINA RESULT:      -7.2      1.968      2.870
REMARK  Name = 
REMARK                            x       y       z     vdW  Elec       q    Type
REMARK                         _______ _______ _______ _____ _____    ______ ____
ROOT
ATOM      1  C   LIG    1       67.812  49.315  96.217  0.00  0.00    +0.015 C 
ATOM      2  C   LIG    1       68.575  50.429  96.987  0.00  0.00    +0.021 C 
ATOM      3  C   LIG    1       66.360  49.858  96.095  0.00  0.00    +0.021 C 
ENDROOT
BRANCH   1   7
ATOM      4  C   LIG    1       67.706  45.576  98.466  0.00  0.00    +0.117 A 
ATOM      5  C   LIG    1       66.579  45.978  97.765  0.00  0.00    +0.046 A 
ATOM      6  C   LIG    1       66.600  47.163  97.021  0.00  0.00    +0.008 A 
ATOM      7  C   LIG    1       67.754  47.964  96.971  0.00  0.00    -0.037 A 
ATOM      8  C   LIG    1       68.886  47.520  97.689  0.00  0.00    +0.008 A 
ATOM      9  C   LIG    1       68.866  46.335  98.431  0.00  0.00    +0.046 A 
BRANCH   4  10
ATOM     10  O   LIG    1       67.633  44.424  99.192  0.00  0.00    -0.507 OA
ATOM     11  H   LIG    1       67.689  44.653 100.134  0.00  0.00    +0.292 HD
ENDBRANCH   4  10
ENDBRANCH   1   7
BRANCH   1  12
ATOM     12  C   LIG    1       68.503  49.094  94.847  0.00  0.00    -0.037 A 
ATOM     13  C   LIG    1       67.835  48.383  93.829  0.00  0.00    +0.008 A 
ATOM     14  C   LIG    1       68.393  48.235  92.557  0.00  0.00    +0.046 A 
ATOM     15  C   LIG    1       69.618  48.815  92.273  0.00  0.00    +0.117 A 
ATOM     16  C   LIG    1       70.306  49.524  93.248  0.00  0.00    +0.046 A 
ATOM     17  C   LIG    1       69.753  49.658  94.528  0.00  0.00    +0.008 A 
BRANCH  15  18
ATOM     18  O   LIG    1       70.110  48.681  91.009  0.00  0.00    -0.507 OA
ATOM     19  H   LIG    1       70.557  47.821  90.943  0.00  0.00    +0.292 HD
ENDBRANCH  15  18
ENDBRANCH   1  12
TORSDOF 4
ENDMDL
MODEL 9
REMARK VINA RESULT:      -6.4      2.461      3.511
REMARK  Name = 
REMARK                            x       y       z     vdW  Elec       q    Type
REMARK                         _______ _______ _______ _____ _____    ______ ____
ROOT
ATOM      1  C   LIG    1       68.559  48.477  97.833  0.00  0.00    +0.015 C 
ATOM      2  C   LIG    1       69.979  48.761  98.398  0.00  0.00    +0.021 C 
ATOM      3  C   LIG    1       67.716  49.705  98.277  0.00  0.00    +0.021 C 
ENDROOT
BRANCH   1   7
ATOM      4  C   LIG    1       66.562  44.936  99.423  0.00  0.00    +0.117 A 
ATOM      5  C   LIG    1       67.796  44.799  98.804  0.00  0.00    +0.046 A 
ATOM      6  C   LIG    1       68.461  45.925  98.306  0.00  0.00    +0.008 A 
ATOM      7  C   LIG    1       67.897  47.206  98.421  0.00  0.00    -0.037 A 
ATOM      8  C   LIG    1       66.644  47.310  99.065  0.00  0.00    +0.008 A 
ATOM      9  C   LIG    1       65.979  46.186  99.564  0.00  0.00    +0.046 A 
BRANCH   4  10
ATOM     10  O   LIG    1       65.943  43.809  99.875  0.00  0.00    -0.507 OA
ATOM     11  H   LIG    1       66.323  43.576 100.738  0.00  0.00    +0.292 HD
ENDBRANCH   4  10
ENDBRANCH   1   7
BRANCH   1  12
ATOM     12  C   LIG    1       68.658  48.322  96.294  0.00  0.00    -0.037 A 
ATOM     13  C   LIG    1       67.566  48.687  95.479  0.00  0.00    +0.008 A 
ATOM     14  C   LIG    1       67.649  48.638  94.085  0.00  0.00    +0.046 A 
ATOM     15  C   LIG    1       68.832  48.246  93.481  0.00  0.00    +0.117 A 
ATOM     16  C   LIG    1       69.929  47.880  94.249  0.00  0.00    +0.046 A 
ATOM     17  C   LIG    1       69.839  47.913  95.646  0.00  0.00    +0.008 A 
BRANCH  15  18
ATOM     18  O   LIG    1       68.884  48.248  92.119  0.00  0.00    -0.507 OA
ATOM     19  H   LIG    1       69.769  48.541  91.846  0.00  0.00    +0.292 HD
ENDBRANCH  15  18
ENDBRANCH   1  12
TORSDOF 4
ENDMDL
