MODEL 1
REMARK VINA RESULT:      -7.6      0.000      0.000
REMARK  Name = 
REMARK                            x       y       z     vdW  Elec       q    Type
REMARK                         _______ _______ _______ _____ _____    ______ ____
ROOT
ATOM      1  C   LIG    1       38.794  30.428   8.304  0.00  0.00    +0.015 C 
ATOM      2  C   LIG    1       37.465  29.622   8.274  0.00  0.00    +0.021 C 
ATOM      3  C   LIG    1       39.593  29.897   7.080  0.00  0.00    +0.021 C 
ENDROOT
BRANCH   1   7
ATOM      4  C   LIG    1       41.141  29.585  11.885  0.00  0.00    +0.117 A 
ATOM      5  C   LIG    1       41.750  30.209  10.806  0.00  0.00    +0.046 A 
ATOM      6  C   LIG    1       41.009  30.506   9.657  0.00  0.00    +0.008 A 
ATOM      7  C   LIG    1       39.645  30.181   9.573  0.00  0.00    -0.037 A 
ATOM      8  C   LIG    1       39.055  29.555  10.694  0.00  0.00    +0.008 A 
ATOM      9  C   LIG    1       39.794  29.259  11.843  0.00  0.00    +0.046 A 
BRANCH   4  10
ATOM     10  O   LIG    1       41.907  29.298  12.976  0.00  0.00    -0.507 OA
ATOM     11  H   LIG    1       41.427  28.659  13.527  0.00  0.00    +0.292 HD
ENDBRANCH   4  10
ENDBRANCH   1   7
BRANCH   1  12
ATOM     12  C   LIG    1       38.460  31.939   8.211  0.00  0.00    -0.037 A 
ATOM     13  C   LIG    1       38.966  32.707   7.142  0.00  0.00    +0.008 A 
ATOM     14  C   LIG    1       38.621  34.051   6.983  0.00  0.00    +0.046 A 
ATOM     15  C   LIG    1       37.744  34.645   7.875  0.00  0.00    +0.117 A 
ATOM     16  C   LIG    1       37.224  33.922   8.940  0.00  0.00    +0.046 A 
ATOM     17  C   LIG    1       37.584  32.580   9.109  0.00  0.00    +0.008 A 
BRANCH  15  18
ATOM     18  O   LIG    1       37.402  35.947   7.663  0.00  0.00    -0.507 OA
ATOM     19  H   LIG    1       38.215  36.462   7.533  0.00  0.00    +0.292 HD
ENDBRANCH  15  18
ENDBRANCH   1  12
TORSDOF 4
ENDMDL
MODEL 2
REMARK VINA RESULT:      -7.6      0.058      5.771
REMARK  Name = 
REMARK                            x       y       z     vdW  Elec       q    Type
REMARK                         _______ _______ _______ _____ _____    ______ ____
ROOT
ATOM      1  C   LIG    1       38.804  30.389   8.340  0.00  0.00    +0.015 C 
ATOM      2  C   LIG    1       39.599  29.833   7.125  0.00  0.00    +0.021 C 
ATOM      3  C   LIG    1       37.475  29.583   8.330  0.00  0.00    +0.021 C 
ENDROOT
BRANCH   1   7
ATOM      4  C   LIG    1       37.776  34.603   7.849  0.00  0.00    +0.117 A 
ATOM      5  C   LIG    1       37.242  33.894   8.915  0.00  0.00    +0.046 A 
ATOM      6  C   LIG    1       37.576  32.547   9.101  0.00  0.00    +0.008 A 
ATOM      7  C   LIG    1       38.451  31.892   8.218  0.00  0.00    -0.037 A 
ATOM      8  C   LIG    1       38.984  32.647   7.150  0.00  0.00    +0.008 A 
ATOM      9  C   LIG    1       38.652  33.992   6.964  0.00  0.00    +0.046 A 
BRANCH   4  10
ATOM     10  O   LIG    1       37.407  35.906   7.697  0.00  0.00    -0.507 OA
ATOM     11  H   LIG    1       36.731  35.954   7.002  0.00  0.00    +0.292 HD
ENDBRANCH   4  10
ENDBRANCH   1   7
BRANCH   1  12
ATOM     12  C   LIG    1       39.646  30.175   9.624  0.00  0.00    -0.037 A 
ATOM     13  C   LIG    1       39.066  29.551  10.748  0.00  0.00    +0.008 A 
ATOM     14  C   LIG    1       39.815  29.268  11.892  0.00  0.00    +0.046 A 
ATOM     15  C   LIG    1       41.164  29.583  11.925  0.00  0.00    +0.117 A 
ATOM     16  C   LIG    1       41.771  30.197  10.838  0.00  0.00    +0.046 A 
ATOM     17  C   LIG    1       41.014  30.496   9.698  0.00  0.00    +0.008 A 
BRANCH  15  18
ATOM     18  O   LIG    1       41.869  29.256  13.044  0.00  0.00    -0.507 OA
ATOM     19  H   LIG    1       42.675  28.787  12.774  0.00  0.00    +0.292 HD
ENDBRANCH  15  18
ENDBRANCH   1  12
TORSDOF 4
ENDMDL
MODEL 3
REMARK VINA RESULT:      -6.9      2.203      5.752
REMARK  Name = 
REMARK                            x       y       z     vdW  Elec       q    Type
REMARK                         _______ _______ _______ _____ _____    ______ ____
ROOT
ATOM      1  C   LIG    1       40.196  30.375   8.967  0.00  0.00    +0.015 C 
ATOM      2  C   LIG    1       41.369  30.506   9.980  0.00  0.00    +0.021 C 
ATOM      3  C   LIG    1       40.892  30.325   7.578  0.00  0.00    +0.021 C 
ENDROOT
BRANCH   1   7
ATOM      4  C   LIG    1       37.393  33.719   8.872  0.00  0.00    +0.117 A 
ATOM      5  C   LIG    1       37.731  33.152  10.092  0.00  0.00    +0.046 A 
ATOM      6  C   LIG    1       38.644  32.093  10.145  0.00  0.00    +0.008 A 
ATOM      7  C   LIG    1       39.230  31.586   8.973  0.00  0.00    -0.037 A 
ATOM      8  C   LIG    1       38.870  32.193   7.750  0.00  0.00    +0.008 A 
ATOM      9  C   LIG    1       37.960  33.253   7.696  0.00  0.00    +0.046 A 
BRANCH   4  10
ATOM     10  O   LIG    1       36.485  34.737   8.868  0.00  0.00    -0.507 OA
ATOM     11  H   LIG    1       36.966  35.575   8.778  0.00  0.00    +0.292 HD
ENDBRANCH   4  10
ENDBRANCH   1   7
BRANCH   1  12
ATOM     12  C   LIG    1       39.392  29.092   9.300  0.00  0.00    -0.037 A 
ATOM     13  C   LIG    1       40.046  27.983   9.877  0.00  0.00    +0.008 A 
ATOM     14  C   LIG    1       39.339  26.842  10.264  0.00  0.00    +0.046 A 
ATOM     15  C   LIG    1       37.964  26.798  10.103  0.00  0.00    +0.117 A 
ATOM     16  C   LIG    1       37.285  27.870   9.539  0.00  0.00    +0.046 A 
ATOM     17  C   LIG    1       37.997  29.007   9.136  0.00  0.00    +0.008 A 
BRANCH  15  18
ATOM     18  O   LIG    1       37.308  25.682  10.529  0.00  0.00    -0.507 OA
ATOM     19  H   LIG    1       36.362  25.890  10.599  0.00  0.00    +0.292 HD
ENDBRANCH  15  18
ENDBRANCH   1  12
TORSDOF 4
ENDMDL
MODEL 4
REMARK VINA RESULT:      -6.8      1.560      5.922
REMARK  Name = 
REMARK                            x       y       z     vdW  Elec       q    Type
REMARK                         _______ _______ _______ _____ _____    ______ ____
ROOT
ATOM      1  C   LIG    1       38.782  29.417   9.109  0.00  0.00    +0.015 C 
ATOM      2  C   LIG    1       38.489  28.264   8.107  0.00  0.00    +0.021 C 
ATOM      3  C   LIG    1       37.597  29.363  10.114  0.00  0.00    +0.021 C 
ENDROOT
BRANCH   1   7
ATOM      4  C   LIG    1       38.803  33.309   7.133  0.00  0.00    +0.117 A 
ATOM      5  C   LIG    1       37.915  33.081   8.173  0.00  0.00    +0.046 A 
ATOM      6  C   LIG    1       37.907  31.847   8.833  0.00  0.00    +0.008 A 
ATOM      7  C   LIG    1       38.791  30.822   8.457  0.00  0.00    -0.037 A 
ATOM      8  C   LIG    1       39.688  31.092   7.400  0.00  0.00    +0.008 A 
ATOM      9  C   LIG    1       39.698  32.325   6.741  0.00  0.00    +0.046 A 
BRANCH   4  10
ATOM     10  O   LIG    1       38.761  34.520   6.508  0.00  0.00    -0.507 OA
ATOM     11  H   LIG    1       37.921  34.586   6.026  0.00  0.00    +0.292 HD
ENDBRANCH   4  10
ENDBRANCH   1   7
BRANCH   1  12
ATOM     12  C   LIG    1       40.161  29.163   9.769  0.00  0.00    -0.037 A 
ATOM     13  C   LIG    1       40.630  30.033  10.775  0.00  0.00    +0.008 A 
ATOM     14  C   LIG    1       41.829  29.789  11.448  0.00  0.00    +0.046 A 
ATOM     15  C   LIG    1       42.570  28.659  11.144  0.00  0.00    +0.117 A 
ATOM     16  C   LIG    1       42.141  27.778  10.161  0.00  0.00    +0.046 A 
ATOM     17  C   LIG    1       40.947  28.032   9.475  0.00  0.00    +0.008 A 
BRANCH  15  18
ATOM     18  O   LIG    1       43.715  28.437  11.850  0.00  0.00    -0.507 OA
ATOM     19  H   LIG    1       43.543  28.637  12.785  0.00  0.00    +0.292 HD
ENDBRANCH  15  18
ENDBRANCH   1  12
TORSDOF 4
ENDMDL
MODEL 5
REMARK VINA RESULT:      -6.8      1.543      1.801
REMARK  Name = 
REMARK                            x       y       z     vdW  Elec       q    Type
REMARK                         _______ _______ _______ _____ _____    ______ ____
ROOT
ATOM      1  C   LIG    1       38.679  29.436   9.092  0.00  0.00    +0.015 C 
ATOM      2  C   LIG    1       37.463  29.354  10.056  0.00  0.00    +0.021 C 
ATOM      3  C   LIG    1       38.420  28.310   8.051  0.00  0.00    +0.021 C 
ENDROOT
BRANCH   1   7
ATOM      4  C   LIG    1       42.435  28.613  11.157  0.00  0.00    +0.117 A 
ATOM      5  C   LIG    1       42.127  27.907  10.004  0.00  0.00    +0.046 A 
ATOM      6  C   LIG    1       40.937  28.171   9.316  0.00  0.00    +0.008 A 
ATOM      7  C   LIG    1       40.038  29.148   9.777  0.00  0.00    -0.037 A 
ATOM      8  C   LIG    1       40.389  29.854  10.949  0.00  0.00    +0.008 A 
ATOM      9  C   LIG    1       41.578  29.592  11.636  0.00  0.00    +0.046 A 
BRANCH   4  10
ATOM     10  O   LIG    1       43.596  28.309  11.804  0.00  0.00    -0.507 OA
ATOM     11  H   LIG    1       43.756  28.986  12.481  0.00  0.00    +0.292 HD
ENDBRANCH   4  10
ENDBRANCH   1   7
BRANCH   1  12
ATOM     12  C   LIG    1       38.724  30.854   8.467  0.00  0.00    -0.037 A 
ATOM     13  C   LIG    1       39.643  31.139   7.437  0.00  0.00    +0.008 A 
ATOM     14  C   LIG    1       39.657  32.380   6.796  0.00  0.00    +0.046 A 
ATOM     15  C   LIG    1       38.736  33.350   7.157  0.00  0.00    +0.117 A 
ATOM     16  C   LIG    1       37.814  33.106   8.167  0.00  0.00    +0.046 A 
ATOM     17  C   LIG    1       37.813  31.868   8.820  0.00  0.00    +0.008 A 
BRANCH  15  18
ATOM     18  O   LIG    1       38.757  34.533   6.482  0.00  0.00    -0.507 OA
ATOM     19  H   LIG    1       39.401  34.463   5.758  0.00  0.00    +0.292 HD
ENDBRANCH  15  18
ENDBRANCH   1  12
TORSDOF 4
ENDMDL
MODEL 6
REMARK VINA RESULT:      -6.6      3.591      6.880
REMARK  Name = 
REMARK                            x       y       z     vdW  Elec       q    Type
REMARK                         _______ _______ _______ _____ _____    ______ ____
ROOT
ATOM      1  C   LIG    1       41.061  28.888  10.198  0.00  0.00    +0.015 C 
ATOM      2  C   LIG    1       41.647  30.297  10.493  0.00  0.00    +0.021 C 
ATOM      3  C   LIG    1       41.914  28.358   9.011  0.00  0.00    +0.021 C 
ENDROOT
BRANCH   1   7
ATOM      4  C   LIG    1       36.913  28.829   8.841  0.00  0.00    +0.117 A 
ATOM      5  C   LIG    1       37.182  28.948  10.196  0.00  0.00    +0.046 A 
ATOM      6  C   LIG    1       38.506  28.989  10.649  0.00  0.00    +0.008 A 
ATOM      7  C   LIG    1       39.580  28.911   9.747  0.00  0.00    -0.037 A 
ATOM      8  C   LIG    1       39.269  28.800   8.374  0.00  0.00    +0.008 A 
ATOM      9  C   LIG    1       37.948  28.761   7.920  0.00  0.00    +0.046 A 
BRANCH   4  10
ATOM     10  O   LIG    1       35.608  28.774   8.448  0.00  0.00    -0.507 OA
ATOM     11  H   LIG    1       35.554  28.230   7.646  0.00  0.00    +0.292 HD
ENDBRANCH   4  10
ENDBRANCH   1   7
BRANCH   1  12
ATOM     12  C   LIG    1       41.182  28.021  11.477  0.00  0.00    -0.037 A 
ATOM     13  C   LIG    1       41.323  28.642  12.736  0.00  0.00    +0.008 A 
ATOM     14  C   LIG    1       41.353  27.896  13.916  0.00  0.00    +0.046 A 
ATOM     15  C   LIG    1       41.219  26.518  13.862  0.00  0.00    +0.117 A 
ATOM     16  C   LIG    1       41.076  25.871  12.642  0.00  0.00    +0.046 A 
ATOM     17  C   LIG    1       41.064  26.618  11.458  0.00  0.00    +0.008 A 
BRANCH  15  18
ATOM     18  O   LIG    1       41.215  25.831  15.039  0.00  0.00    -0.507 OA
ATOM     19  H   LIG    1       42.133  25.626  15.279  0.00  0.00    +0.292 HD
ENDBRANCH  15  18
ENDBRANCH   1  12
TORSDOF 4
ENDMDL
MODEL 7
REMARK VINA RESULT:      -6.6      3.627      4.503
REMARK  Name = 
REMARK                            x       y       z     vdW  Elec       q    Type
REMARK                         _______ _______ _______ _____ _____    ______ ____
ROOT
ATOM      1  C   LIG    1       41.056  28.809  10.174  0.00  0.00    +0.015 C 
ATOM      2  C   LIG    1       41.894  28.230   8.999  0.00  0.00    +0.021 C 
ATOM      3  C   LIG    1       41.687  30.203  10.445  0.00  0.00    +0.021 C 
ENDROOT
BRANCH   1   7
ATOM      4  C   LIG    1       41.232  26.565  13.914  0.00  0.00    +0.117 A 
ATOM      5  C   LIG    1       41.060  25.881  12.720  0.00  0.00    +0.046 A 
ATOM      6  C   LIG    1       41.021  26.581  11.508  0.00  0.00    +0.008 A 
ATOM      7  C   LIG    1       41.154  27.979  11.478  0.00  0.00    -0.037 A 
ATOM      8  C   LIG    1       41.338  28.642  12.712  0.00  0.00    +0.008 A 
ATOM      9  C   LIG    1       41.377  27.944  13.922  0.00  0.00    +0.046 A 
BRANCH   4  10
ATOM     10  O   LIG    1       41.244  25.843  15.070  0.00  0.00    -0.507 OA
ATOM     11  H   LIG    1       41.554  26.420  15.787  0.00  0.00    +0.292 HD
ENDBRANCH   4  10
ENDBRANCH   1   7
BRANCH   1  12
ATOM     12  C   LIG    1       39.570  28.880   9.737  0.00  0.00    -0.037 A 
ATOM     13  C   LIG    1       39.227  28.699   8.381  0.00  0.00    +0.008 A 
ATOM     14  C   LIG    1       37.894  28.676   7.964  0.00  0.00    +0.046 A 
ATOM     15  C   LIG    1       36.880  28.810   8.898  0.00  0.00    +0.117 A 
ATOM     16  C   LIG    1       37.178  28.988  10.242  0.00  0.00    +0.046 A 
ATOM     17  C   LIG    1       38.515  29.028  10.657  0.00  0.00    +0.008 A 
BRANCH  15  18
ATOM     18  O   LIG    1       35.592  28.743   8.455  0.00  0.00    -0.507 OA
ATOM     19  H   LIG    1       35.585  28.932   7.503  0.00  0.00    +0.292 HD
ENDBRANCH  15  18
ENDBRANCH   1  12
TORSDOF 4
ENDMDL
MODEL 8
REMARK VINA RESULT:      -6.6      2.166      3.150
REMARK  Name = 
REMARK                            x       y       z     vdW  Elec       q    Type
REMARK                         _______ _______ _______ _____ _____    ______ ____
ROOT
ATOM      1  C   LIG    1       39.191  28.643  10.010  0.00  0.00    +0.015 C 
ATOM      2  C   LIG    1       37.798  28.979  10.613  0.00  0.00    +0.021 C 
ATOM      3  C   LIG    1       39.050  27.177   9.512  0.00  0.00    +0.021 C 
ENDROOT
BRANCH   1   7
ATOM      4  C   LIG    1       42.522  28.857  12.822  0.00  0.00    +0.117 A 
ATOM      5  C   LIG    1       41.235  29.106  13.274  0.00  0.00    +0.046 A 
ATOM      6  C   LIG    1       40.151  29.023  12.393  0.00  0.00    +0.008 A 
ATOM      7  C   LIG    1       40.344  28.688  11.042  0.00  0.00    -0.037 A 
ATOM      8  C   LIG    1       41.667  28.431  10.618  0.00  0.00    +0.008 A 
ATOM      9  C   LIG    1       42.749  28.513  11.498  0.00  0.00    +0.046 A 
BRANCH   4  10
ATOM     10  O   LIG    1       43.548  28.969  13.713  0.00  0.00    -0.507 OA
ATOM     11  H   LIG    1       43.379  28.362  14.451  0.00  0.00    +0.292 HD
ENDBRANCH   4  10
ENDBRANCH   1   7
BRANCH   1  12
ATOM     12  C   LIG    1       39.496  29.652   8.873  0.00  0.00    -0.037 A 
ATOM     13  C   LIG    1       39.978  29.188   7.632  0.00  0.00    +0.008 A 
ATOM     14  C   LIG    1       40.187  30.059   6.560  0.00  0.00    +0.046 A 
ATOM     15  C   LIG    1       39.896  31.405   6.702  0.00  0.00    +0.117 A 
ATOM     16  C   LIG    1       39.419  31.900   7.908  0.00  0.00    +0.046 A 
ATOM     17  C   LIG    1       39.226  31.029   8.988  0.00  0.00    +0.008 A 
BRANCH  15  18
ATOM     18  O   LIG    1       40.078  32.215   5.621  0.00  0.00    -0.507 OA
ATOM     19  H   LIG    1       39.483  31.919   4.912  0.00  0.00    +0.292 HD
ENDBRANCH  15  18
ENDBRANCH   1  12
TORSDOF 4
ENDMDL
MODEL 9
REMARK VINA RESULT:      -6.4      2.758      3.784
REMARK  Name = 
REMARK                            x       y       z     vdW  Elec       q    Type
REMARK                         _______ _______ _______ _____ _____    ______ ____
ROOT
ATOM      1  C   LIG    1       39.035  28.551   9.860  0.00  0.00    +0.015 C 
ATOM      2  C   LIG    1       37.854  29.428  10.364  0.00  0.00    +0.021 C 
ATOM      3  C   LIG    1       38.352  27.268   9.310  0.00  0.00    +0.021 C 
ENDROOT
BRANCH   1   7
ATOM      4  C   LIG    1       41.709  27.415  13.118  0.00  0.00    +0.117 A 
ATOM      5  C   LIG    1       41.377  26.475  12.153  0.00  0.00    +0.046 A 
ATOM      6  C   LIG    1       40.537  26.826  11.090  0.00  0.00    +0.008 A 
ATOM      7  C   LIG    1       40.018  28.127  10.979  0.00  0.00    -0.037 A 
ATOM      8  C   LIG    1       40.384  29.060  11.974  0.00  0.00    +0.008 A 
ATOM      9  C   LIG    1       41.223  28.711  13.036  0.00  0.00    +0.046 A 
BRANCH   4  10
ATOM     10  O   LIG    1       42.514  27.022  14.145  0.00  0.00    -0.507 OA
ATOM     11  H   LIG    1       43.223  26.467  13.783  0.00  0.00    +0.292 HD
ENDBRANCH   4  10
ENDBRANCH   1   7
BRANCH   1  12
ATOM     12  C   LIG    1       39.817  29.343   8.781  0.00  0.00    -0.037 A 
ATOM     13  C   LIG    1       40.912  28.744   8.125  0.00  0.00    +0.008 A 
ATOM     14  C   LIG    1       41.588  29.397   7.092  0.00  0.00    +0.046 A 
ATOM     15  C   LIG    1       41.168  30.651   6.680  0.00  0.00    +0.117 A 
ATOM     16  C   LIG    1       40.093  31.273   7.301  0.00  0.00    +0.046 A 
ATOM     17  C   LIG    1       39.427  30.625   8.349  0.00  0.00    +0.008 A 
BRANCH  15  18
ATOM     18  O   LIG    1       41.830  31.237   5.643  0.00  0.00    -0.507 OA
ATOM     19  H   LIG    1       41.177  31.663   5.064  0.00  0.00    +0.292 HD
ENDBRANCH  15  18
ENDBRANCH   1  12
TORSDOF 4
ENDMDL
