MODEL 1
REMARK VINA RESULT:      -7.1      0.000      0.000
REMARK  Name = 
REMARK                            x       y       z     vdW  Elec       q    Type
REMARK                         _______ _______ _______ _____ _____    ______ ____
ROOT
ATOM      1  C   LIG    1        8.466  -4.765  21.744  0.00  0.00    +0.015 C 
ATOM      2  C   LIG    1        9.621  -5.334  20.872  0.00  0.00    +0.021 C 
ATOM      3  C   LIG    1        7.474  -5.953  21.891  0.00  0.00    +0.021 C 
ENDROOT
BRANCH   1   7
ATOM      4  C   LIG    1        6.253  -1.426  20.011  0.00  0.00    +0.117 A 
ATOM      5  C   LIG    1        7.630  -1.480  19.856  0.00  0.00    +0.046 A 
ATOM      6  C   LIG    1        8.355  -2.553  20.387  0.00  0.00    +0.008 A 
ATOM      7  C   LIG    1        7.708  -3.589  21.082  0.00  0.00    -0.037 A 
ATOM      8  C   LIG    1        6.304  -3.506  21.213  0.00  0.00    +0.008 A 
ATOM      9  C   LIG    1        5.578  -2.435  20.683  0.00  0.00    +0.046 A 
BRANCH   4  10
ATOM     10  O   LIG    1        5.591  -0.352  19.494  0.00  0.00    -0.507 OA
ATOM     11  H   LIG    1        5.989  -0.132  18.636  0.00  0.00    +0.292 HD
ENDBRANCH   4  10
ENDBRANCH   1   7
BRANCH   1  12
ATOM     12  C   LIG    1        9.055  -4.284  23.095  0.00  0.00    -0.037 A 
ATOM     13  C   LIG    1        8.192  -3.968  24.165  0.00  0.00    +0.008 A 
ATOM     14  C   LIG    1        8.689  -3.610  25.420  0.00  0.00    +0.046 A 
ATOM     15  C   LIG    1       10.057  -3.585  25.636  0.00  0.00    +0.117 A 
ATOM     16  C   LIG    1       10.939  -3.891  24.608  0.00  0.00    +0.046 A 
ATOM     17  C   LIG    1       10.440  -4.233  23.345  0.00  0.00    +0.008 A 
BRANCH  15  18
ATOM     18  O   LIG    1       10.501  -3.268  26.885  0.00  0.00    -0.507 OA
ATOM     19  H   LIG    1       11.421  -2.965  26.817  0.00  0.00    +0.292 HD
ENDBRANCH  15  18
ENDBRANCH   1  12
TORSDOF 4
ENDMDL
MODEL 2
REMARK VINA RESULT:      -7.0      0.144      5.416
REMARK  Name = 
REMARK                            x       y       z     vdW  Elec       q    Type
REMARK                         _______ _______ _______ _____ _____    ______ ____
ROOT
ATOM      1  C   LIG    1        8.439  -4.769  21.778  0.00  0.00    +0.015 C 
ATOM      2  C   LIG    1        7.479  -5.986  21.902  0.00  0.00    +0.021 C 
ATOM      3  C   LIG    1        9.600  -5.286  20.882  0.00  0.00    +0.021 C 
ENDROOT
BRANCH   1   7
ATOM      4  C   LIG    1       10.057  -3.585  25.655  0.00  0.00    +0.117 A 
ATOM      5  C   LIG    1       10.928  -3.873  24.615  0.00  0.00    +0.046 A 
ATOM      6  C   LIG    1       10.429  -4.234  23.359  0.00  0.00    +0.008 A 
ATOM      7  C   LIG    1        9.045  -4.313  23.128  0.00  0.00    -0.037 A 
ATOM      8  C   LIG    1        8.187  -4.005  24.207  0.00  0.00    +0.008 A 
ATOM      9  C   LIG    1        8.685  -3.642  25.461  0.00  0.00    +0.046 A 
BRANCH   4  10
ATOM     10  O   LIG    1       10.589  -3.256  26.866  0.00  0.00    -0.507 OA
ATOM     11  H   LIG    1       11.395  -3.781  26.998  0.00  0.00    +0.292 HD
ENDBRANCH   4  10
ENDBRANCH   1   7
BRANCH   1  12
ATOM     12  C   LIG    1        7.660  -3.583  21.153  0.00  0.00    -0.037 A 
ATOM     13  C   LIG    1        6.251  -3.561  21.207  0.00  0.00    +0.008 A 
ATOM     14  C   LIG    1        5.520  -2.472  20.727  0.00  0.00    +0.046 A 
ATOM     15  C   LIG    1        6.186  -1.375  20.205  0.00  0.00    +0.117 A 
ATOM     16  C   LIG    1        7.573  -1.359  20.136  0.00  0.00    +0.046 A 
ATOM     17  C   LIG    1        8.303  -2.459  20.602  0.00  0.00    +0.008 A 
BRANCH  15  18
ATOM     18  O   LIG    1        5.438  -0.317  19.783  0.00  0.00    -0.507 OA
ATOM     19  H   LIG    1        4.763  -0.644  19.167  0.00  0.00    +0.292 HD
ENDBRANCH  15  18
ENDBRANCH   1  12
TORSDOF 4
ENDMDL
MODEL 3
REMARK VINA RESULT:      -7.0      6.389      7.998
REMARK  Name = 
REMARK                            x       y       z     vdW  Elec       q    Type
REMARK                         _______ _______ _______ _____ _____    ______ ____
ROOT
ATOM      1  C   LIG    1        2.010  -1.324  21.839  0.00  0.00    +0.015 C 
ATOM      2  C   LIG    1        3.320  -2.073  21.464  0.00  0.00    +0.021 C 
ATOM      3  C   LIG    1        1.118  -1.452  20.572  0.00  0.00    +0.021 C 
ENDROOT
BRANCH   1   7
ATOM      4  C   LIG    1        2.674   2.934  22.527  0.00  0.00    +0.117 A 
ATOM      5  C   LIG    1        1.384   2.430  22.589  0.00  0.00    +0.046 A 
ATOM      6  C   LIG    1        1.153   1.064  22.391  0.00  0.00    +0.008 A 
ATOM      7  C   LIG    1        2.215   0.183  22.128  0.00  0.00    -0.037 A 
ATOM      8  C   LIG    1        3.517   0.729  22.082  0.00  0.00    +0.008 A 
ATOM      9  C   LIG    1        3.749   2.093  22.280  0.00  0.00    +0.046 A 
BRANCH   4  10
ATOM     10  O   LIG    1        2.849   4.274  22.707  0.00  0.00    -0.507 OA
ATOM     11  H   LIG    1        2.067   4.734  22.359  0.00  0.00    +0.292 HD
ENDBRANCH   4  10
ENDBRANCH   1   7
BRANCH   1  12
ATOM     12  C   LIG    1        1.396  -1.996  23.094  0.00  0.00    -0.037 A 
ATOM     13  C   LIG    1        0.857  -1.199  24.125  0.00  0.00    +0.008 A 
ATOM     14  C   LIG    1        0.224  -1.769  25.232  0.00  0.00    +0.046 A 
ATOM     15  C   LIG    1        0.097  -3.146  25.316  0.00  0.00    +0.117 A 
ATOM     16  C   LIG    1        0.614  -3.965  24.321  0.00  0.00    +0.046 A 
ATOM     17  C   LIG    1        1.264  -3.392  23.220  0.00  0.00    +0.008 A 
BRANCH  15  18
ATOM     18  O   LIG    1       -0.561  -3.662  26.393  0.00  0.00    -0.507 OA
ATOM     19  H   LIG    1       -1.515  -3.618  26.219  0.00  0.00    +0.292 HD
ENDBRANCH  15  18
ENDBRANCH   1  12
TORSDOF 4
ENDMDL
MODEL 4
REMARK VINA RESULT:      -6.9      6.365      8.685
REMARK  Name = 
REMARK                            x       y       z     vdW  Elec       q    Type
REMARK                         _______ _______ _______ _____ _____    ______ ____
ROOT
ATOM      1  C   LIG    1        2.018  -1.335  21.809  0.00  0.00    +0.015 C 
ATOM      2  C   LIG    1        1.158  -1.466  20.521  0.00  0.00    +0.021 C 
ATOM      3  C   LIG    1        3.335  -2.090  21.470  0.00  0.00    +0.021 C 
ENDROOT
BRANCH   1   7
ATOM      4  C   LIG    1        0.121  -3.146  25.298  0.00  0.00    +0.117 A 
ATOM      5  C   LIG    1        0.620  -3.964  24.296  0.00  0.00    +0.046 A 
ATOM      6  C   LIG    1        1.251  -3.404  23.179  0.00  0.00    +0.008 A 
ATOM      7  C   LIG    1        1.388  -2.011  23.051  0.00  0.00    -0.037 A 
ATOM      8  C   LIG    1        0.876  -1.209  24.095  0.00  0.00    +0.008 A 
ATOM      9  C   LIG    1        0.247  -1.768  25.211  0.00  0.00    +0.046 A 
BRANCH   4  10
ATOM     10  O   LIG    1       -0.502  -3.737  26.357  0.00  0.00    -0.507 OA
ATOM     11  H   LIG    1       -0.453  -4.699  26.242  0.00  0.00    +0.292 HD
ENDBRANCH   4  10
ENDBRANCH   1   7
BRANCH   1  12
ATOM     12  C   LIG    1        2.233   0.170  22.113  0.00  0.00    -0.037 A 
ATOM     13  C   LIG    1        3.523   0.731  22.011  0.00  0.00    +0.008 A 
ATOM     14  C   LIG    1        3.739   2.098  22.198  0.00  0.00    +0.046 A 
ATOM     15  C   LIG    1        2.667   2.933  22.467  0.00  0.00    +0.117 A 
ATOM     16  C   LIG    1        1.382   2.418  22.574  0.00  0.00    +0.046 A 
ATOM     17  C   LIG    1        1.169   1.045  22.404  0.00  0.00    +0.008 A 
BRANCH  15  18
ATOM     18  O   LIG    1        2.916   4.266  22.605  0.00  0.00    -0.507 OA
ATOM     19  H   LIG    1        2.192   4.662  23.118  0.00  0.00    +0.292 HD
ENDBRANCH  15  18
ENDBRANCH   1  12
TORSDOF 4
ENDMDL
MODEL 5
REMARK VINA RESULT:      -6.6      1.690      5.534
REMARK  Name = 
REMARK                            x       y       z     vdW  Elec       q    Type
REMARK                         _______ _______ _______ _____ _____    ______ ____
ROOT
ATOM      1  C   LIG    1        7.861  -4.709  22.409  0.00  0.00    +0.015 C 
ATOM      2  C   LIG    1        7.200  -4.678  23.816  0.00  0.00    +0.021 C 
ATOM      3  C   LIG    1        7.489  -6.107  21.841  0.00  0.00    +0.021 C 
ENDROOT
BRANCH   1   7
ATOM      4  C   LIG    1       12.214  -4.490  22.639  0.00  0.00    +0.117 A 
ATOM      5  C   LIG    1       11.617  -4.898  21.456  0.00  0.00    +0.046 A 
ATOM      6  C   LIG    1       10.222  -4.955  21.356  0.00  0.00    +0.008 A 
ATOM      7  C   LIG    1        9.406  -4.604  22.444  0.00  0.00    -0.037 A 
ATOM      8  C   LIG    1       10.047  -4.184  23.630  0.00  0.00    +0.008 A 
ATOM      9  C   LIG    1       11.440  -4.126  23.731  0.00  0.00    +0.046 A 
BRANCH   4  10
ATOM     10  O   LIG    1       13.576  -4.469  22.696  0.00  0.00    -0.507 OA
ATOM     11  H   LIG    1       13.922  -4.923  21.911  0.00  0.00    +0.292 HD
ENDBRANCH   4  10
ENDBRANCH   1   7
BRANCH   1  12
ATOM     12  C   LIG    1        7.298  -3.534  21.569  0.00  0.00    -0.037 A 
ATOM     13  C   LIG    1        6.212  -3.751  20.696  0.00  0.00    +0.008 A 
ATOM     14  C   LIG    1        5.627  -2.701  19.985  0.00  0.00    +0.046 A 
ATOM     15  C   LIG    1        6.102  -1.410  20.153  0.00  0.00    +0.117 A 
ATOM     16  C   LIG    1        7.168  -1.156  21.004  0.00  0.00    +0.046 A 
ATOM     17  C   LIG    1        7.765  -2.212  21.703  0.00  0.00    +0.008 A 
BRANCH  15  18
ATOM     18  O   LIG    1        5.479  -0.408  19.471  0.00  0.00    -0.507 OA
ATOM     19  H   LIG    1        5.662   0.431  19.923  0.00  0.00    +0.292 HD
ENDBRANCH  15  18
ENDBRANCH   1  12
TORSDOF 4
ENDMDL
MODEL 6
REMARK VINA RESULT:      -6.6      1.766      2.707
REMARK  Name = 
REMARK                            x       y       z     vdW  Elec       q    Type
REMARK                         _______ _______ _______ _____ _____    ______ ____
ROOT
ATOM      1  C   LIG    1        8.255  -4.573  21.794  0.00  0.00    +0.015 C 
ATOM      2  C   LIG    1        8.309  -6.105  21.533  0.00  0.00    +0.021 C 
ATOM      3  C   LIG    1        6.736  -4.255  21.896  0.00  0.00    +0.021 C 
ENDROOT
BRANCH   1   7
ATOM      4  C   LIG    1        9.920  -2.306  18.457  0.00  0.00    +0.117 A 
ATOM      5  C   LIG    1        8.793  -1.827  19.107  0.00  0.00    +0.046 A 
ATOM      6  C   LIG    1        8.256  -2.529  20.192  0.00  0.00    +0.008 A 
ATOM      7  C   LIG    1        8.843  -3.724  20.641  0.00  0.00    -0.037 A 
ATOM      8  C   LIG    1        9.996  -4.178  19.961  0.00  0.00    +0.008 A 
ATOM      9  C   LIG    1       10.534  -3.476  18.878  0.00  0.00    +0.046 A 
BRANCH   4  10
ATOM     10  O   LIG    1       10.397  -1.599  17.393  0.00  0.00    -0.507 OA
ATOM     11  H   LIG    1        9.957  -0.733  17.381  0.00  0.00    +0.292 HD
ENDBRANCH   4  10
ENDBRANCH   1   7
BRANCH   1  12
ATOM     12  C   LIG    1        9.038  -4.262  23.095  0.00  0.00    -0.037 A 
ATOM     13  C   LIG    1       10.445  -4.352  23.107  0.00  0.00    +0.008 A 
ATOM     14  C   LIG    1       11.188  -4.002  24.236  0.00  0.00    +0.046 A 
ATOM     15  C   LIG    1       10.540  -3.533  25.367  0.00  0.00    +0.117 A 
ATOM     16  C   LIG    1        9.155  -3.429  25.393  0.00  0.00    +0.046 A 
ATOM     17  C   LIG    1        8.410  -3.797  24.266  0.00  0.00    +0.008 A 
BRANCH  15  18
ATOM     18  O   LIG    1       11.303  -3.165  26.434  0.00  0.00    -0.507 OA
ATOM     19  H   LIG    1       12.203  -3.501  26.298  0.00  0.00    +0.292 HD
ENDBRANCH  15  18
ENDBRANCH   1  12
TORSDOF 4
ENDMDL
MODEL 7
REMARK VINA RESULT:      -6.5      3.757      6.299
REMARK  Name = 
REMARK                            x       y       z     vdW  Elec       q    Type
REMARK                         _______ _______ _______ _____ _____    ______ ____
ROOT
ATOM      1  C   LIG    1        3.243  -0.943  20.020  0.00  0.00    +0.015 C 
ATOM      2  C   LIG    1        3.102  -0.280  18.621  0.00  0.00    +0.021 C 
ATOM      3  C   LIG    1        2.048  -1.936  20.097  0.00  0.00    +0.021 C 
ENDROOT
BRANCH   1   7
ATOM      4  C   LIG    1        2.878   1.746  23.439  0.00  0.00    +0.117 A 
ATOM      5  C   LIG    1        3.808   2.028  22.450  0.00  0.00    +0.046 A 
ATOM      6  C   LIG    1        3.926   1.189  21.336  0.00  0.00    +0.008 A 
ATOM      7  C   LIG    1        3.111   0.053  21.198  0.00  0.00    -0.037 A 
ATOM      8  C   LIG    1        2.169  -0.199  22.220  0.00  0.00    +0.008 A 
ATOM      9  C   LIG    1        2.049   0.639  23.332  0.00  0.00    +0.046 A 
BRANCH   4  10
ATOM     10  O   LIG    1        2.812   2.581  24.514  0.00  0.00    -0.507 OA
ATOM     11  H   LIG    1        1.903   2.571  24.853  0.00  0.00    +0.292 HD
ENDBRANCH   4  10
ENDBRANCH   1   7
BRANCH   1  12
ATOM     12  C   LIG    1        4.626  -1.638  20.104  0.00  0.00    -0.037 A 
ATOM     13  C   LIG    1        5.670  -1.230  19.248  0.00  0.00    +0.008 A 
ATOM     14  C   LIG    1        6.951  -1.777  19.349  0.00  0.00    +0.046 A 
ATOM     15  C   LIG    1        7.218  -2.724  20.324  0.00  0.00    +0.117 A 
ATOM     16  C   LIG    1        6.217  -3.150  21.187  0.00  0.00    +0.046 A 
ATOM     17  C   LIG    1        4.929  -2.614  21.072  0.00  0.00    +0.008 A 
BRANCH  15  18
ATOM     18  O   LIG    1        8.491  -3.204  20.416  0.00  0.00    -0.507 OA
ATOM     19  H   LIG    1        8.919  -2.794  21.184  0.00  0.00    +0.292 HD
ENDBRANCH  15  18
ENDBRANCH   1  12
TORSDOF 4
ENDMDL
MODEL 8
REMARK VINA RESULT:      -6.5      3.758      6.734
REMARK  Name = 
REMARK                            x       y       z     vdW  Elec       q    Type
REMARK                         _______ _______ _______ _____ _____    ______ ____
ROOT
ATOM      1  C   LIG    1        3.243  -0.974  20.023  0.00  0.00    +0.015 C 
ATOM      2  C   LIG    1        2.062  -1.983  20.097  0.00  0.00    +0.021 C 
ATOM      3  C   LIG    1        3.113  -0.335  18.612  0.00  0.00    +0.021 C 
ENDROOT
BRANCH   1   7
ATOM      4  C   LIG    1        7.239  -2.707  20.293  0.00  0.00    +0.117 A 
ATOM      5  C   LIG    1        6.256  -3.129  21.174  0.00  0.00    +0.046 A 
ATOM      6  C   LIG    1        4.962  -2.601  21.091  0.00  0.00    +0.008 A 
ATOM      7  C   LIG    1        4.638  -1.638  20.120  0.00  0.00    -0.037 A 
ATOM      8  C   LIG    1        5.662  -1.237  19.233  0.00  0.00    +0.008 A 
ATOM      9  C   LIG    1        6.953  -1.766  19.315  0.00  0.00    +0.046 A 
BRANCH   4  10
ATOM     10  O   LIG    1        8.489  -3.236  20.425  0.00  0.00    -0.507 OA
ATOM     11  H   LIG    1        8.644  -3.422  21.365  0.00  0.00    +0.292 HD
ENDBRANCH   4  10
ENDBRANCH   1   7
BRANCH   1  12
ATOM     12  C   LIG    1        3.094   0.050  21.178  0.00  0.00    -0.037 A 
ATOM     13  C   LIG    1        2.168  -0.190  22.215  0.00  0.00    +0.008 A 
ATOM     14  C   LIG    1        2.065   0.669  23.312  0.00  0.00    +0.046 A 
ATOM     15  C   LIG    1        2.901   1.769  23.404  0.00  0.00    +0.117 A 
ATOM     16  C   LIG    1        3.826   2.038  22.404  0.00  0.00    +0.046 A 
ATOM     17  C   LIG    1        3.917   1.186  21.296  0.00  0.00    +0.008 A 
BRANCH  15  18
ATOM     18  O   LIG    1        2.795   2.560  24.509  0.00  0.00    -0.507 OA
ATOM     19  H   LIG    1        2.619   3.470  24.219  0.00  0.00    +0.292 HD
ENDBRANCH  15  18
ENDBRANCH   1  12
TORSDOF 4
ENDMDL
MODEL 9
REMARK VINA RESULT:      -6.3      3.268      5.594
REMARK  Name = 
REMARK                            x       y       z     vdW  Elec       q    Type
REMARK                         _______ _______ _______ _____ _____    ______ ____
ROOT
ATOM      1  C   LIG    1        4.460  -1.286  19.323  0.00  0.00    +0.015 C 
ATOM      2  C   LIG    1        4.910  -0.040  18.509  0.00  0.00    +0.021 C 
ATOM      3  C   LIG    1        3.746  -2.190  18.279  0.00  0.00    +0.021 C 
ENDROOT
BRANCH   1   7
ATOM      4  C   LIG    1        1.585  -0.235  22.434  0.00  0.00    +0.117 A 
ATOM      5  C   LIG    1        1.435  -1.430  21.747  0.00  0.00    +0.046 A 
ATOM      6  C   LIG    1        2.358  -1.794  20.760  0.00  0.00    +0.008 A 
ATOM      7  C   LIG    1        3.446  -0.963  20.448  0.00  0.00    -0.037 A 
ATOM      8  C   LIG    1        3.574   0.242  21.174  0.00  0.00    +0.008 A 
ATOM      9  C   LIG    1        2.653   0.606  22.160  0.00  0.00    +0.046 A 
BRANCH   4  10
ATOM     10  O   LIG    1        0.650   0.087  23.373  0.00  0.00    -0.507 OA
ATOM     11  H   LIG    1       -0.063   0.581  22.938  0.00  0.00    +0.292 HD
ENDBRANCH   4  10
ENDBRANCH   1   7
BRANCH   1  12
ATOM     12  C   LIG    1        5.714  -1.946  19.953  0.00  0.00    -0.037 A 
ATOM     13  C   LIG    1        5.563  -2.986  20.894  0.00  0.00    +0.008 A 
ATOM     14  C   LIG    1        6.668  -3.657  21.421  0.00  0.00    +0.046 A 
ATOM     15  C   LIG    1        7.943  -3.318  21.000  0.00  0.00    +0.117 A 
ATOM     16  C   LIG    1        8.132  -2.301  20.074  0.00  0.00    +0.046 A 
ATOM     17  C   LIG    1        7.024  -1.616  19.559  0.00  0.00    +0.008 A 
BRANCH  15  18
ATOM     18  O   LIG    1        8.992  -4.023  21.509  0.00  0.00    -0.507 OA
ATOM     19  H   LIG    1        8.695  -4.930  21.688  0.00  0.00    +0.292 HD
ENDBRANCH  15  18
ENDBRANCH   1  12
TORSDOF 4
ENDMDL
