MODEL 1
REMARK VINA RESULT:      -7.4      0.000      0.000
REMARK  Name = 
REMARK                            x       y       z     vdW  Elec       q    Type
REMARK                         _______ _______ _______ _____ _____    ______ ____
ROOT
ATOM      1  C   LIG    1       17.753   4.056  23.061  0.00  0.00    +0.015 C 
ATOM      2  C   LIG    1       16.208   3.925  23.174  0.00  0.00    +0.021 C 
ATOM      3  C   LIG    1       17.967   5.285  22.134  0.00  0.00    +0.021 C 
ENDROOT
BRANCH   1   7
ATOM      4  C   LIG    1       19.547   0.529  21.219  0.00  0.00    +0.117 A 
ATOM      5  C   LIG    1       19.591   1.741  20.547  0.00  0.00    +0.046 A 
ATOM      6  C   LIG    1       19.039   2.888  21.130  0.00  0.00    +0.008 A 
ATOM      7  C   LIG    1       18.434   2.834  22.397  0.00  0.00    -0.037 A 
ATOM      8  C   LIG    1       18.416   1.585  23.056  0.00  0.00    +0.008 A 
ATOM      9  C   LIG    1       18.968   0.439  22.476  0.00  0.00    +0.046 A 
BRANCH   4  10
ATOM     10  O   LIG    1       20.080  -0.565  20.603  0.00  0.00    -0.507 OA
ATOM     11  H   LIG    1       20.065  -0.414  19.645  0.00  0.00    +0.292 HD
ENDBRANCH   4  10
ENDBRANCH   1   7
BRANCH   1  12
ATOM     12  C   LIG    1       18.342   4.246  24.482  0.00  0.00    -0.037 A 
ATOM     13  C   LIG    1       19.648   4.753  24.640  0.00  0.00    +0.008 A 
ATOM     14  C   LIG    1       20.181   5.014  25.904  0.00  0.00    +0.046 A 
ATOM     15  C   LIG    1       19.409   4.796  27.033  0.00  0.00    +0.117 A 
ATOM     16  C   LIG    1       18.117   4.299  26.919  0.00  0.00    +0.046 A 
ATOM     17  C   LIG    1       17.590   4.021  25.651  0.00  0.00    +0.008 A 
BRANCH  15  18
ATOM     18  O   LIG    1       19.951   5.099  28.246  0.00  0.00    -0.507 OA
ATOM     19  H   LIG    1       19.541   5.918  28.570  0.00  0.00    +0.292 HD
ENDBRANCH  15  18
ENDBRANCH   1  12
TORSDOF 4
ENDMDL
MODEL 2
REMARK VINA RESULT:      -7.4      0.058      5.701
REMARK  Name = 
REMARK                            x       y       z     vdW  Elec       q    Type
REMARK                         _______ _______ _______ _____ _____    ______ ____
ROOT
ATOM      1  C   LIG    1       17.805   4.083  23.025  0.00  0.00    +0.015 C 
ATOM      2  C   LIG    1       18.006   5.307  22.087  0.00  0.00    +0.021 C 
ATOM      3  C   LIG    1       16.262   3.937  23.140  0.00  0.00    +0.021 C 
ENDROOT
BRANCH   1   7
ATOM      4  C   LIG    1       19.449   4.810  27.002  0.00  0.00    +0.117 A 
ATOM      5  C   LIG    1       18.163   4.305  26.881  0.00  0.00    +0.046 A 
ATOM      6  C   LIG    1       17.626   4.046  25.615  0.00  0.00    +0.008 A 
ATOM      7  C   LIG    1       18.372   4.291  24.451  0.00  0.00    -0.037 A 
ATOM      8  C   LIG    1       19.682   4.796  24.611  0.00  0.00    +0.008 A 
ATOM      9  C   LIG    1       20.220   5.054  25.875  0.00  0.00    +0.046 A 
BRANCH   4  10
ATOM     10  O   LIG    1       19.924   5.064  28.255  0.00  0.00    -0.507 OA
ATOM     11  H   LIG    1       20.715   5.621  28.175  0.00  0.00    +0.292 HD
ENDBRANCH   4  10
ENDBRANCH   1   7
BRANCH   1  12
ATOM     12  C   LIG    1       18.494   2.850  22.387  0.00  0.00    -0.037 A 
ATOM     13  C   LIG    1       18.445   1.600  23.040  0.00  0.00    +0.008 A 
ATOM     14  C   LIG    1       18.984   0.452  22.456  0.00  0.00    +0.046 A 
ATOM     15  C   LIG    1       19.561   0.526  21.200  0.00  0.00    +0.117 A 
ATOM     16  C   LIG    1       19.628   1.737  20.524  0.00  0.00    +0.046 A 
ATOM     17  C   LIG    1       19.103   2.892  21.118  0.00  0.00    +0.008 A 
BRANCH  15  18
ATOM     18  O   LIG    1       20.041  -0.625  20.649  0.00  0.00    -0.507 OA
ATOM     19  H   LIG    1       20.414  -1.173  21.358  0.00  0.00    +0.292 HD
ENDBRANCH  15  18
ENDBRANCH   1  12
TORSDOF 4
ENDMDL
MODEL 3
REMARK VINA RESULT:      -6.9     10.448     12.897
REMARK  Name = 
REMARK                            x       y       z     vdW  Elec       q    Type
REMARK                         _______ _______ _______ _____ _____    ______ ____
ROOT
ATOM      1  C   LIG    1        9.202   0.708  28.201  0.00  0.00    +0.015 C 
ATOM      2  C   LIG    1        8.843  -0.763  27.849  0.00  0.00    +0.021 C 
ATOM      3  C   LIG    1       10.542   0.965  27.456  0.00  0.00    +0.021 C 
ENDROOT
BRANCH   1   7
ATOM      4  C   LIG    1        9.950   1.514  32.424  0.00  0.00    +0.117 A 
ATOM      5  C   LIG    1        8.671   1.165  32.017  0.00  0.00    +0.046 A 
ATOM      6  C   LIG    1        8.416   0.883  30.670  0.00  0.00    +0.008 A 
ATOM      7  C   LIG    1        9.441   0.948  29.711  0.00  0.00    -0.037 A 
ATOM      8  C   LIG    1       10.733   1.297  30.164  0.00  0.00    +0.008 A 
ATOM      9  C   LIG    1       10.990   1.578  31.509  0.00  0.00    +0.046 A 
BRANCH   4  10
ATOM     10  O   LIG    1       10.147   1.798  33.743  0.00  0.00    -0.507 OA
ATOM     11  H   LIG    1       10.225   2.761  33.840  0.00  0.00    +0.292 HD
ENDBRANCH   4  10
ENDBRANCH   1   7
BRANCH   1  12
ATOM     12  C   LIG    1        8.048   1.628  27.725  0.00  0.00    -0.037 A 
ATOM     13  C   LIG    1        6.887   1.063  27.157  0.00  0.00    +0.008 A 
ATOM     14  C   LIG    1        5.795   1.854  26.792  0.00  0.00    +0.046 A 
ATOM     15  C   LIG    1        5.835   3.221  27.009  0.00  0.00    +0.117 A 
ATOM     16  C   LIG    1        6.960   3.815  27.567  0.00  0.00    +0.046 A 
ATOM     17  C   LIG    1        8.060   3.023  27.916  0.00  0.00    +0.008 A 
BRANCH  15  18
ATOM     18  O   LIG    1        4.735   3.953  26.675  0.00  0.00    -0.507 OA
ATOM     19  H   LIG    1        4.904   4.392  25.826  0.00  0.00    +0.292 HD
ENDBRANCH  15  18
ENDBRANCH   1  12
TORSDOF 4
ENDMDL
MODEL 4
REMARK VINA RESULT:      -6.9      3.130      4.670
REMARK  Name = 
REMARK                            x       y       z     vdW  Elec       q    Type
REMARK                         _______ _______ _______ _____ _____    ______ ____
ROOT
ATOM      1  C   LIG    1       18.584   4.552  26.286  0.00  0.00    +0.015 C 
ATOM      2  C   LIG    1       19.798   5.394  25.801  0.00  0.00    +0.021 C 
ATOM      3  C   LIG    1       19.183   3.148  26.580  0.00  0.00    +0.021 C 
ENDROOT
BRANCH   1   7
ATOM      4  C   LIG    1       15.550   3.969  23.203  0.00  0.00    +0.117 A 
ATOM      5  C   LIG    1       15.171   3.966  24.537  0.00  0.00    +0.046 A 
ATOM      6  C   LIG    1       16.125   4.171  25.539  0.00  0.00    +0.008 A 
ATOM      7  C   LIG    1       17.477   4.383  25.217  0.00  0.00    -0.037 A 
ATOM      8  C   LIG    1       17.825   4.389  23.848  0.00  0.00    +0.008 A 
ATOM      9  C   LIG    1       16.872   4.185  22.846  0.00  0.00    +0.046 A 
BRANCH   4  10
ATOM     10  O   LIG    1       14.588   3.745  22.262  0.00  0.00    -0.507 OA
ATOM     11  H   LIG    1       13.827   3.327  22.697  0.00  0.00    +0.292 HD
ENDBRANCH   4  10
ENDBRANCH   1   7
BRANCH   1  12
ATOM     12  C   LIG    1       17.972   5.235  27.536  0.00  0.00    -0.037 A 
ATOM     13  C   LIG    1       17.443   4.447  28.579  0.00  0.00    +0.008 A 
ATOM     14  C   LIG    1       16.959   5.025  29.755  0.00  0.00    +0.046 A 
ATOM     15  C   LIG    1       17.016   6.399  29.919  0.00  0.00    +0.117 A 
ATOM     16  C   LIG    1       17.530   7.209  28.915  0.00  0.00    +0.046 A 
ATOM     17  C   LIG    1       18.000   6.629  27.729  0.00  0.00    +0.008 A 
BRANCH  15  18
ATOM     18  O   LIG    1       16.568   6.921  31.096  0.00  0.00    -0.507 OA
ATOM     19  H   LIG    1       16.254   6.192  31.655  0.00  0.00    +0.292 HD
ENDBRANCH  15  18
ENDBRANCH   1  12
TORSDOF 4
ENDMDL
MODEL 5
REMARK VINA RESULT:      -6.8     10.528     11.748
REMARK  Name = 
REMARK                            x       y       z     vdW  Elec       q    Type
REMARK                         _______ _______ _______ _____ _____    ______ ____
ROOT
ATOM      1  C   LIG    1        8.628   1.171  27.573  0.00  0.00    +0.015 C 
ATOM      2  C   LIG    1        9.609   0.342  26.697  0.00  0.00    +0.021 C 
ATOM      3  C   LIG    1        7.270   0.426  27.438  0.00  0.00    +0.021 C 
ENDROOT
BRANCH   1   7
ATOM      4  C   LIG    1        7.911   5.258  26.221  0.00  0.00    +0.117 A 
ATOM      5  C   LIG    1        9.003   4.994  27.034  0.00  0.00    +0.046 A 
ATOM      6  C   LIG    1        9.262   3.687  27.461  0.00  0.00    +0.008 A 
ATOM      7  C   LIG    1        8.426   2.624  27.079  0.00  0.00    -0.037 A 
ATOM      8  C   LIG    1        7.329   2.928  26.243  0.00  0.00    +0.008 A 
ATOM      9  C   LIG    1        7.071   4.233  25.814  0.00  0.00    +0.046 A 
BRANCH   4  10
ATOM     10  O   LIG    1        7.689   6.550  25.845  0.00  0.00    -0.507 OA
ATOM     11  H   LIG    1        8.472   7.074  26.075  0.00  0.00    +0.292 HD
ENDBRANCH   4  10
ENDBRANCH   1   7
BRANCH   1  12
ATOM     12  C   LIG    1        9.168   1.207  29.026  0.00  0.00    -0.037 A 
ATOM     13  C   LIG    1        8.277   1.066  30.111  0.00  0.00    +0.008 A 
ATOM     14  C   LIG    1        8.737   1.012  31.428  0.00  0.00    +0.046 A 
ATOM     15  C   LIG    1       10.097   1.075  31.684  0.00  0.00    +0.117 A 
ATOM     16  C   LIG    1       11.005   1.213  30.643  0.00  0.00    +0.046 A 
ATOM     17  C   LIG    1       10.542   1.283  29.323  0.00  0.00    +0.008 A 
BRANCH  15  18
ATOM     18  O   LIG    1       10.508   0.980  32.980  0.00  0.00    -0.507 OA
ATOM     19  H   LIG    1       10.292   0.092  33.307  0.00  0.00    +0.292 HD
ENDBRANCH  15  18
ENDBRANCH   1  12
TORSDOF 4
ENDMDL
MODEL 6
REMARK VINA RESULT:      -6.8      3.114      6.820
REMARK  Name = 
REMARK                            x       y       z     vdW  Elec       q    Type
REMARK                         _______ _______ _______ _____ _____    ______ ____
ROOT
ATOM      1  C   LIG    1       18.610   4.536  26.239  0.00  0.00    +0.015 C 
ATOM      2  C   LIG    1       19.206   3.128  26.520  0.00  0.00    +0.021 C 
ATOM      3  C   LIG    1       19.824   5.376  25.751  0.00  0.00    +0.021 C 
ENDROOT
BRANCH   1   7
ATOM      4  C   LIG    1       17.045   6.389  29.868  0.00  0.00    +0.117 A 
ATOM      5  C   LIG    1       17.555   7.194  28.861  0.00  0.00    +0.046 A 
ATOM      6  C   LIG    1       18.043   6.620  27.681  0.00  0.00    +0.008 A 
ATOM      7  C   LIG    1       18.026   5.227  27.495  0.00  0.00    -0.037 A 
ATOM      8  C   LIG    1       17.490   4.439  28.537  0.00  0.00    +0.008 A 
ATOM      9  C   LIG    1       17.002   5.011  29.715  0.00  0.00    +0.046 A 
BRANCH   4  10
ATOM     10  O   LIG    1       16.598   6.991  31.006  0.00  0.00    -0.507 OA
ATOM     11  H   LIG    1       15.846   6.480  31.347  0.00  0.00    +0.292 HD
ENDBRANCH   4  10
ENDBRANCH   1   7
BRANCH   1  12
ATOM     12  C   LIG    1       17.490   4.398  25.176  0.00  0.00    -0.037 A 
ATOM     13  C   LIG    1       17.822   4.353  23.806  0.00  0.00    +0.008 A 
ATOM     14  C   LIG    1       16.847   4.148  22.827  0.00  0.00    +0.046 A 
ATOM     15  C   LIG    1       15.527   3.962  23.201  0.00  0.00    +0.117 A 
ATOM     16  C   LIG    1       15.160   3.999  24.540  0.00  0.00    +0.046 A 
ATOM     17  C   LIG    1       16.136   4.221  25.520  0.00  0.00    +0.008 A 
BRANCH  15  18
ATOM     18  O   LIG    1       14.612   3.727  22.218  0.00  0.00    -0.507 OA
ATOM     19  H   LIG    1       14.938   3.000  21.662  0.00  0.00    +0.292 HD
ENDBRANCH  15  18
ENDBRANCH   1  12
TORSDOF 4
ENDMDL
MODEL 7
REMARK VINA RESULT:      -6.8      9.413     11.177
REMARK  Name = 
REMARK                            x       y       z     vdW  Elec       q    Type
REMARK                         _______ _______ _______ _____ _____    ______ ____
ROOT
ATOM      1  C   LIG    1       10.770   1.956  29.114  0.00  0.00    +0.015 C 
ATOM      2  C   LIG    1       12.256   1.717  28.725  0.00  0.00    +0.021 C 
ATOM      3  C   LIG    1       10.056   0.627  28.739  0.00  0.00    +0.021 C 
ENDROOT
BRANCH   1   7
ATOM      4  C   LIG    1        8.756   5.189  26.981  0.00  0.00    +0.117 A 
ATOM      5  C   LIG    1       10.122   5.270  27.204  0.00  0.00    +0.046 A 
ATOM      6  C   LIG    1       10.790   4.235  27.868  0.00  0.00    +0.008 A 
ATOM      7  C   LIG    1       10.094   3.101  28.319  0.00  0.00    -0.037 A 
ATOM      8  C   LIG    1        8.705   3.046  28.067  0.00  0.00    +0.008 A 
ATOM      9  C   LIG    1        8.038   4.080  27.403  0.00  0.00    +0.046 A 
BRANCH   4  10
ATOM     10  O   LIG    1        8.146   6.230  26.347  0.00  0.00    -0.507 OA
ATOM     11  H   LIG    1        7.567   5.870  25.656  0.00  0.00    +0.292 HD
ENDBRANCH   4  10
ENDBRANCH   1   7
BRANCH   1  12
ATOM     12  C   LIG    1       10.698   2.288  30.627  0.00  0.00    -0.037 A 
ATOM     13  C   LIG    1       10.024   1.415  31.506  0.00  0.00    +0.008 A 
ATOM     14  C   LIG    1       10.009   1.639  32.885  0.00  0.00    +0.046 A 
ATOM     15  C   LIG    1       10.687   2.726  33.412  0.00  0.00    +0.117 A 
ATOM     16  C   LIG    1       11.364   3.607  32.578  0.00  0.00    +0.046 A 
ATOM     17  C   LIG    1       11.364   3.391  31.194  0.00  0.00    +0.008 A 
BRANCH  15  18
ATOM     18  O   LIG    1       10.681   2.888  34.765  0.00  0.00    -0.507 OA
ATOM     19  H   LIG    1       11.211   3.671  34.983  0.00  0.00    +0.292 HD
ENDBRANCH  15  18
ENDBRANCH   1  12
TORSDOF 4
ENDMDL
MODEL 8
REMARK VINA RESULT:      -6.8      9.372     11.728
REMARK  Name = 
REMARK                            x       y       z     vdW  Elec       q    Type
REMARK                         _______ _______ _______ _____ _____    ______ ____
ROOT
ATOM      1  C   LIG    1       10.740   1.949  29.109  0.00  0.00    +0.015 C 
ATOM      2  C   LIG    1       10.043   0.610  28.733  0.00  0.00    +0.021 C 
ATOM      3  C   LIG    1       12.226   1.734  28.705  0.00  0.00    +0.021 C 
ENDROOT
BRANCH   1   7
ATOM      4  C   LIG    1       10.665   2.709  33.406  0.00  0.00    +0.117 A 
ATOM      5  C   LIG    1       11.325   3.598  32.571  0.00  0.00    +0.046 A 
ATOM      6  C   LIG    1       11.343   3.383  31.188  0.00  0.00    +0.008 A 
ATOM      7  C   LIG    1       10.698   2.270  30.623  0.00  0.00    -0.037 A 
ATOM      8  C   LIG    1       10.029   1.390  31.502  0.00  0.00    +0.008 A 
ATOM      9  C   LIG    1       10.009   1.605  32.883  0.00  0.00    +0.046 A 
BRANCH   4  10
ATOM     10  O   LIG    1       10.691   2.949  34.748  0.00  0.00    -0.507 OA
ATOM     11  H   LIG    1       11.609   2.873  35.054  0.00  0.00    +0.292 HD
ENDBRANCH   4  10
ENDBRANCH   1   7
BRANCH   1  12
ATOM     12  C   LIG    1       10.052   3.101  28.333  0.00  0.00    -0.037 A 
ATOM     13  C   LIG    1       10.827   4.158  27.811  0.00  0.00    +0.008 A 
ATOM     14  C   LIG    1       10.252   5.170  27.039  0.00  0.00    +0.046 A 
ATOM     15  C   LIG    1        8.897   5.132  26.755  0.00  0.00    +0.117 A 
ATOM     16  C   LIG    1        8.101   4.107  27.250  0.00  0.00    +0.046 A 
ATOM     17  C   LIG    1        8.675   3.102  28.038  0.00  0.00    +0.008 A 
BRANCH  15  18
ATOM     18  O   LIG    1        8.382   6.117  25.966  0.00  0.00    -0.507 OA
ATOM     19  H   LIG    1        8.660   5.953  25.050  0.00  0.00    +0.292 HD
ENDBRANCH  15  18
ENDBRANCH   1  12
TORSDOF 4
ENDMDL
MODEL 9
REMARK VINA RESULT:      -6.8     10.556     12.077
REMARK  Name = 
REMARK                            x       y       z     vdW  Elec       q    Type
REMARK                         _______ _______ _______ _____ _____    ______ ____
ROOT
ATOM      1  C   LIG    1        8.632   1.195  27.565  0.00  0.00    +0.015 C 
ATOM      2  C   LIG    1        7.304   0.420  27.338  0.00  0.00    +0.021 C 
ATOM      3  C   LIG    1        9.681   0.415  26.722  0.00  0.00    +0.021 C 
ENDROOT
BRANCH   1   7
ATOM      4  C   LIG    1        9.888   1.073  31.743  0.00  0.00    +0.117 A 
ATOM      5  C   LIG    1       10.849   1.176  30.749  0.00  0.00    +0.046 A 
ATOM      6  C   LIG    1       10.465   1.237  29.404  0.00  0.00    +0.008 A 
ATOM      7  C   LIG    1        9.110   1.195  29.038  0.00  0.00    -0.037 A 
ATOM      8  C   LIG    1        8.158   1.100  30.077  0.00  0.00    +0.008 A 
ATOM      9  C   LIG    1        8.540   1.041  31.420  0.00  0.00    +0.046 A 
BRANCH   4  10
ATOM     10  O   LIG    1       10.310   0.998  33.037  0.00  0.00    -0.507 OA
ATOM     11  H   LIG    1       10.999   1.668  33.174  0.00  0.00    +0.292 HD
ENDBRANCH   4  10
ENDBRANCH   1   7
BRANCH   1  12
ATOM     12  C   LIG    1        8.438   2.661  27.101  0.00  0.00    -0.037 A 
ATOM     13  C   LIG    1        7.323   3.006  26.310  0.00  0.00    +0.008 A 
ATOM     14  C   LIG    1        7.072   4.330  25.942  0.00  0.00    +0.046 A 
ATOM     15  C   LIG    1        7.918   5.336  26.378  0.00  0.00    +0.117 A 
ATOM     16  C   LIG    1        9.026   5.036  27.160  0.00  0.00    +0.046 A 
ATOM     17  C   LIG    1        9.286   3.707  27.514  0.00  0.00    +0.008 A 
BRANCH  15  18
ATOM     18  O   LIG    1        7.617   6.619  26.029  0.00  0.00    -0.507 OA
ATOM     19  H   LIG    1        8.254   7.212  26.461  0.00  0.00    +0.292 HD
ENDBRANCH  15  18
ENDBRANCH   1  12
TORSDOF 4
ENDMDL
