MODEL 1
REMARK VINA RESULT:      -2.6      0.000      0.000
REMARK  Name = 
REMARK                            x       y       z     vdW  Elec       q    Type
REMARK                         _______ _______ _______ _____ _____    ______ ____
ROOT
ATOM      1  C   LIG    1       16.182   3.060  53.353  0.00  0.00    +0.015 C 
ATOM      2  C   LIG    1       15.336   4.360  53.247  0.00  0.00    +0.021 C 
ATOM      3  C   LIG    1       16.363   2.843  54.882  0.00  0.00    +0.021 C 
ENDROOT
BRANCH   1   7
ATOM      4  C   LIG    1       20.182   3.255  51.618  0.00  0.00    +0.117 A 
ATOM      5  C   LIG    1       19.086   3.578  50.833  0.00  0.00    +0.046 A 
ATOM      6  C   LIG    1       17.797   3.542  51.377  0.00  0.00    +0.008 A 
ATOM      7  C   LIG    1       17.589   3.179  52.718  0.00  0.00    -0.037 A 
ATOM      8  C   LIG    1       18.729   2.865  53.491  0.00  0.00    +0.008 A 
ATOM      9  C   LIG    1       20.017   2.903  52.949  0.00  0.00    +0.046 A 
BRANCH   4  10
ATOM     10  O   LIG    1       21.416   3.287  51.040  0.00  0.00    -0.507 OA
ATOM     11  H   LIG    1       21.305   3.229  50.078  0.00  0.00    +0.292 HD
ENDBRANCH   4  10
ENDBRANCH   1   7
BRANCH   1  12
ATOM     12  C   LIG    1       15.414   1.908  52.655  0.00  0.00    -0.037 A 
ATOM     13  C   LIG    1       14.321   2.201  51.813  0.00  0.00    +0.008 A 
ATOM     14  C   LIG    1       13.657   1.197  51.105  0.00  0.00    +0.046 A 
ATOM     15  C   LIG    1       14.088  -0.115  51.208  0.00  0.00    +0.117 A 
ATOM     16  C   LIG    1       15.161  -0.444  52.026  0.00  0.00    +0.046 A 
ATOM     17  C   LIG    1       15.815   0.562  52.749  0.00  0.00    +0.008 A 
BRANCH  15  18
ATOM     18  O   LIG    1       13.438  -1.060  50.471  0.00  0.00    -0.507 OA
ATOM     19  H   LIG    1       13.827  -1.927  50.671  0.00  0.00    +0.292 HD
ENDBRANCH  15  18
ENDBRANCH   1  12
TORSDOF 4
ENDMDL
MODEL 2
REMARK VINA RESULT:      -2.4      0.487      5.445
REMARK  Name = 
REMARK                            x       y       z     vdW  Elec       q    Type
REMARK                         _______ _______ _______ _____ _____    ______ ____
ROOT
ATOM      1  C   LIG    1       16.517   3.352  53.240  0.00  0.00    +0.015 C 
ATOM      2  C   LIG    1       16.626   3.329  54.790  0.00  0.00    +0.021 C 
ATOM      3  C   LIG    1       15.754   4.671  52.928  0.00  0.00    +0.021 C 
ENDROOT
BRANCH   1   7
ATOM      4  C   LIG    1       14.201  -0.026  51.732  0.00  0.00    +0.117 A 
ATOM      5  C   LIG    1       13.783   1.264  51.445  0.00  0.00    +0.046 A 
ATOM      6  C   LIG    1       14.524   2.361  51.902  0.00  0.00    +0.008 A 
ATOM      7  C   LIG    1       15.695   2.177  52.655  0.00  0.00    -0.037 A 
ATOM      8  C   LIG    1       16.096   0.849  52.921  0.00  0.00    +0.008 A 
ATOM      9  C   LIG    1       15.358  -0.247  52.464  0.00  0.00    +0.046 A 
BRANCH   4  10
ATOM     10  O   LIG    1       13.438  -1.062  51.282  0.00  0.00    -0.507 OA
ATOM     11  H   LIG    1       14.001  -1.850  51.216  0.00  0.00    +0.292 HD
ENDBRANCH   4  10
ENDBRANCH   1   7
BRANCH   1  12
ATOM     12  C   LIG    1       17.946   3.311  52.640  0.00  0.00    -0.037 A 
ATOM     13  C   LIG    1       18.127   3.438  51.247  0.00  0.00    +0.008 A 
ATOM     14  C   LIG    1       19.403   3.487  50.680  0.00  0.00    +0.046 A 
ATOM     15  C   LIG    1       20.520   3.433  51.497  0.00  0.00    +0.117 A 
ATOM     16  C   LIG    1       20.382   3.310  52.874  0.00  0.00    +0.046 A 
ATOM     17  C   LIG    1       19.103   3.244  53.439  0.00  0.00    +0.008 A 
BRANCH  15  18
ATOM     18  O   LIG    1       21.746   3.523  50.909  0.00  0.00    -0.507 OA
ATOM     19  H   LIG    1       22.166   4.349  51.197  0.00  0.00    +0.292 HD
ENDBRANCH  15  18
ENDBRANCH   1  12
TORSDOF 4
ENDMDL
MODEL 3
REMARK VINA RESULT:      -2.3      0.924      1.488
REMARK  Name = 
REMARK                            x       y       z     vdW  Elec       q    Type
REMARK                         _______ _______ _______ _____ _____    ______ ____
ROOT
ATOM      1  C   LIG    1       15.642   3.589  53.504  0.00  0.00    +0.015 C 
ATOM      2  C   LIG    1       14.639   4.742  53.218  0.00  0.00    +0.021 C 
ATOM      3  C   LIG    1       15.698   3.504  55.056  0.00  0.00    +0.021 C 
ENDROOT
BRANCH   1   7
ATOM      4  C   LIG    1       19.633   4.506  51.994  0.00  0.00    +0.117 A 
ATOM      5  C   LIG    1       19.482   4.100  53.311  0.00  0.00    +0.046 A 
ATOM      6  C   LIG    1       18.213   3.781  53.809  0.00  0.00    +0.008 A 
ATOM      7  C   LIG    1       17.075   3.867  52.989  0.00  0.00    -0.037 A 
ATOM      8  C   LIG    1       17.266   4.275  51.651  0.00  0.00    +0.008 A 
ATOM      9  C   LIG    1       18.533   4.592  51.153  0.00  0.00    +0.046 A 
BRANCH   4  10
ATOM     10  O   LIG    1       20.885   4.824  51.560  0.00  0.00    -0.507 OA
ATOM     11  H   LIG    1       21.362   5.251  52.289  0.00  0.00    +0.292 HD
ENDBRANCH   4  10
ENDBRANCH   1   7
BRANCH   1  12
ATOM     12  C   LIG    1       15.112   2.294  52.836  0.00  0.00    -0.037 A 
ATOM     13  C   LIG    1       13.976   2.347  52.003  0.00  0.00    +0.008 A 
ATOM     14  C   LIG    1       13.519   1.217  51.321  0.00  0.00    +0.046 A 
ATOM     15  C   LIG    1       14.204   0.019  51.440  0.00  0.00    +0.117 A 
ATOM     16  C   LIG    1       15.328  -0.073  52.250  0.00  0.00    +0.046 A 
ATOM     17  C   LIG    1       15.775   1.057  52.947  0.00  0.00    +0.008 A 
BRANCH  15  18
ATOM     18  O   LIG    1       13.749  -1.050  50.728  0.00  0.00    -0.507 OA
ATOM     19  H   LIG    1       12.780  -1.003  50.688  0.00  0.00    +0.292 HD
ENDBRANCH  15  18
ENDBRANCH   1  12
TORSDOF 4
ENDMDL
MODEL 4
REMARK VINA RESULT:      -2.2      2.887      4.251
REMARK  Name = 
REMARK                            x       y       z     vdW  Elec       q    Type
REMARK                         _______ _______ _______ _____ _____    ______ ____
ROOT
ATOM      1  C   LIG    1       18.907   3.616  51.433  0.00  0.00    +0.015 C 
ATOM      2  C   LIG    1       20.360   3.554  51.982  0.00  0.00    +0.021 C 
ATOM      3  C   LIG    1       19.044   3.210  49.938  0.00  0.00    +0.021 C 
ENDROOT
BRANCH   1   7
ATOM      4  C   LIG    1       17.022   7.552  51.498  0.00  0.00    +0.117 A 
ATOM      5  C   LIG    1       17.436   6.978  52.691  0.00  0.00    +0.046 A 
ATOM      6  C   LIG    1       18.060   5.725  52.689  0.00  0.00    +0.008 A 
ATOM      7  C   LIG    1       18.279   5.030  51.487  0.00  0.00    -0.037 A 
ATOM      8  C   LIG    1       17.854   5.649  50.291  0.00  0.00    +0.008 A 
ATOM      9  C   LIG    1       17.231   6.900  50.292  0.00  0.00    +0.046 A 
BRANCH   4  10
ATOM     10  O   LIG    1       16.401   8.765  51.552  0.00  0.00    -0.507 OA
ATOM     11  H   LIG    1       15.457   8.633  51.368  0.00  0.00    +0.292 HD
ENDBRANCH   4  10
ENDBRANCH   1   7
BRANCH   1  12
ATOM     12  C   LIG    1       18.023   2.643  52.255  0.00  0.00    -0.037 A 
ATOM     13  C   LIG    1       16.691   2.398  51.859  0.00  0.00    +0.008 A 
ATOM     14  C   LIG    1       15.893   1.468  52.528  0.00  0.00    +0.046 A 
ATOM     15  C   LIG    1       16.417   0.749  53.590  0.00  0.00    +0.117 A 
ATOM     16  C   LIG    1       17.724   0.961  54.008  0.00  0.00    +0.046 A 
ATOM     17  C   LIG    1       18.519   1.907  53.348  0.00  0.00    +0.008 A 
BRANCH  15  18
ATOM     18  O   LIG    1       15.618  -0.177  54.191  0.00  0.00    -0.507 OA
ATOM     19  H   LIG    1       15.146  -0.671  53.500  0.00  0.00    +0.292 HD
ENDBRANCH  15  18
ENDBRANCH   1  12
TORSDOF 4
ENDMDL
MODEL 5
REMARK VINA RESULT:      -2.2      2.667      5.603
REMARK  Name = 
REMARK                            x       y       z     vdW  Elec       q    Type
REMARK                         _______ _______ _______ _____ _____    ______ ____
ROOT
ATOM      1  C   LIG    1       18.106   3.363  51.859  0.00  0.00    +0.015 C 
ATOM      2  C   LIG    1       18.736   3.028  50.478  0.00  0.00    +0.021 C 
ATOM      3  C   LIG    1       19.315   3.383  52.837  0.00  0.00    +0.021 C 
ENDROOT
BRANCH   1   7
ATOM      4  C   LIG    1       15.292   0.284  53.142  0.00  0.00    +0.117 A 
ATOM      5  C   LIG    1       16.347   0.627  53.974  0.00  0.00    +0.046 A 
ATOM      6  C   LIG    1       17.249   1.627  53.589  0.00  0.00    +0.008 A 
ATOM      7  C   LIG    1       17.104   2.296  52.363  0.00  0.00    -0.037 A 
ATOM      8  C   LIG    1       16.012   1.928  51.545  0.00  0.00    +0.008 A 
ATOM      9  C   LIG    1       15.111   0.931  51.929  0.00  0.00    +0.046 A 
BRANCH   4  10
ATOM     10  O   LIG    1       14.450  -0.708  53.550  0.00  0.00    -0.507 OA
ATOM     11  H   LIG    1       13.543  -0.454  53.316  0.00  0.00    +0.292 HD
ENDBRANCH   4  10
ENDBRANCH   1   7
BRANCH   1  12
ATOM     12  C   LIG    1       17.376   4.727  51.755  0.00  0.00    -0.037 A 
ATOM     13  C   LIG    1       16.489   5.129  52.775  0.00  0.00    +0.008 A 
ATOM     14  C   LIG    1       15.876   6.384  52.755  0.00  0.00    +0.046 A 
ATOM     15  C   LIG    1       16.158   7.269  51.727  0.00  0.00    +0.117 A 
ATOM     16  C   LIG    1       17.028   6.911  50.706  0.00  0.00    +0.046 A 
ATOM     17  C   LIG    1       17.628   5.645  50.718  0.00  0.00    +0.008 A 
BRANCH  15  18
ATOM     18  O   LIG    1       15.570   8.498  51.765  0.00  0.00    -0.507 OA
ATOM     19  H   LIG    1       16.181   9.118  52.196  0.00  0.00    +0.292 HD
ENDBRANCH  15  18
ENDBRANCH   1  12
TORSDOF 4
ENDMDL
MODEL 6
REMARK VINA RESULT:      -2.1      3.656      5.250
REMARK  Name = 
REMARK                            x       y       z     vdW  Elec       q    Type
REMARK                         _______ _______ _______ _____ _____    ______ ____
ROOT
ATOM      1  C   LIG    1       18.660   3.761  51.323  0.00  0.00    +0.015 C 
ATOM      2  C   LIG    1       17.780   2.725  52.078  0.00  0.00    +0.021 C 
ATOM      3  C   LIG    1       18.922   3.104  49.938  0.00  0.00    +0.021 C 
ENDROOT
BRANCH   1   7
ATOM      4  C   LIG    1       22.550   4.607  53.112  0.00  0.00    +0.117 A 
ATOM      5  C   LIG    1       21.435   4.505  53.930  0.00  0.00    +0.046 A 
ATOM      6  C   LIG    1       20.182   4.214  53.378  0.00  0.00    +0.008 A 
ATOM      7  C   LIG    1       20.031   4.022  51.994  0.00  0.00    -0.037 A 
ATOM      8  C   LIG    1       21.189   4.124  51.192  0.00  0.00    +0.008 A 
ATOM      9  C   LIG    1       22.441   4.413  51.743  0.00  0.00    +0.046 A 
BRANCH   4  10
ATOM     10  O   LIG    1       23.746   4.911  53.693  0.00  0.00    -0.507 OA
ATOM     11  H   LIG    1       24.422   4.317  53.329  0.00  0.00    +0.292 HD
ENDBRANCH   4  10
ENDBRANCH   1   7
BRANCH   1  12
ATOM     12  C   LIG    1       17.884   5.100  51.232  0.00  0.00    -0.037 A 
ATOM     13  C   LIG    1       18.022   5.916  50.090  0.00  0.00    +0.008 A 
ATOM     14  C   LIG    1       17.277   7.088  49.938  0.00  0.00    +0.046 A 
ATOM     15  C   LIG    1       16.364   7.453  50.914  0.00  0.00    +0.117 A 
ATOM     16  C   LIG    1       16.200   6.675  52.052  0.00  0.00    +0.046 A 
ATOM     17  C   LIG    1       16.959   5.509  52.211  0.00  0.00    +0.008 A 
BRANCH  15  18
ATOM     18  O   LIG    1       15.630   8.583  50.710  0.00  0.00    -0.507 OA
ATOM     19  H   LIG    1       16.229   9.291  50.422  0.00  0.00    +0.292 HD
ENDBRANCH  15  18
ENDBRANCH   1  12
TORSDOF 4
ENDMDL
MODEL 7
REMARK VINA RESULT:      -2.0      2.332      6.499
REMARK  Name = 
REMARK                            x       y       z     vdW  Elec       q    Type
REMARK                         _______ _______ _______ _____ _____    ______ ____
ROOT
ATOM      1  C   LIG    1       18.676   4.303  50.972  0.00  0.00    +0.015 C 
ATOM      2  C   LIG    1       18.532   5.582  50.100  0.00  0.00    +0.021 C 
ATOM      3  C   LIG    1       18.970   3.171  49.947  0.00  0.00    +0.021 C 
ENDROOT
BRANCH   1   7
ATOM      4  C   LIG    1       15.125   3.132  53.223  0.00  0.00    +0.117 A 
ATOM      5  C   LIG    1       15.453   4.476  53.125  0.00  0.00    +0.046 A 
ATOM      6  C   LIG    1       16.577   4.873  52.390  0.00  0.00    +0.008 A 
ATOM      7  C   LIG    1       17.388   3.925  51.744  0.00  0.00    -0.037 A 
ATOM      8  C   LIG    1       17.019   2.567  51.857  0.00  0.00    +0.008 A 
ATOM      9  C   LIG    1       15.896   2.169  52.590  0.00  0.00    +0.046 A 
BRANCH   4  10
ATOM     10  O   LIG    1       14.033   2.791  53.965  0.00  0.00    -0.507 OA
ATOM     11  H   LIG    1       14.312   2.685  54.889  0.00  0.00    +0.292 HD
ENDBRANCH   4  10
ENDBRANCH   1   7
BRANCH   1  12
ATOM     12  C   LIG    1       19.824   4.523  51.991  0.00  0.00    -0.037 A 
ATOM     13  C   LIG    1       20.611   3.431  52.410  0.00  0.00    +0.008 A 
ATOM     14  C   LIG    1       21.703   3.604  53.264  0.00  0.00    +0.046 A 
ATOM     15  C   LIG    1       22.042   4.876  53.694  0.00  0.00    +0.117 A 
ATOM     16  C   LIG    1       21.293   5.977  53.302  0.00  0.00    +0.046 A 
ATOM     17  C   LIG    1       20.188   5.800  52.460  0.00  0.00    +0.008 A 
BRANCH  15  18
ATOM     18  O   LIG    1       23.138   5.008  54.494  0.00  0.00    -0.507 OA
ATOM     19  H   LIG    1       23.866   4.498  54.105  0.00  0.00    +0.292 HD
ENDBRANCH  15  18
ENDBRANCH   1  12
TORSDOF 4
ENDMDL
MODEL 8
REMARK VINA RESULT:      -2.0      2.569      4.947
REMARK  Name = 
REMARK                            x       y       z     vdW  Elec       q    Type
REMARK                         _______ _______ _______ _____ _____    ______ ____
ROOT
ATOM      1  C   LIG    1       16.123   2.517  52.546  0.00  0.00    +0.015 C 
ATOM      2  C   LIG    1       15.009   3.452  53.096  0.00  0.00    +0.021 C 
ATOM      3  C   LIG    1       15.361   1.494  51.657  0.00  0.00    +0.021 C 
ENDROOT
BRANCH   1   7
ATOM      4  C   LIG    1       18.165   0.376  55.755  0.00  0.00    +0.117 A 
ATOM      5  C   LIG    1       17.556  -0.345  54.738  0.00  0.00    +0.046 A 
ATOM      6  C   LIG    1       16.914   0.324  53.690  0.00  0.00    +0.008 A 
ATOM      7  C   LIG    1       16.873   1.728  53.647  0.00  0.00    -0.037 A 
ATOM      8  C   LIG    1       17.511   2.429  54.694  0.00  0.00    +0.008 A 
ATOM      9  C   LIG    1       18.154   1.762  55.740  0.00  0.00    +0.046 A 
BRANCH   4  10
ATOM     10  O   LIG    1       18.761  -0.319  56.765  0.00  0.00    -0.507 OA
ATOM     11  H   LIG    1       19.711  -0.383  56.572  0.00  0.00    +0.292 HD
ENDBRANCH   4  10
ENDBRANCH   1   7
BRANCH   1  12
ATOM     12  C   LIG    1       17.147   3.374  51.759  0.00  0.00    -0.037 A 
ATOM     13  C   LIG    1       17.075   4.782  51.813  0.00  0.00    +0.008 A 
ATOM     14  C   LIG    1       18.028   5.585  51.183  0.00  0.00    +0.046 A 
ATOM     15  C   LIG    1       19.084   4.996  50.507  0.00  0.00    +0.117 A 
ATOM     16  C   LIG    1       19.190   3.613  50.432  0.00  0.00    +0.046 A 
ATOM     17  C   LIG    1       18.224   2.809  51.050  0.00  0.00    +0.008 A 
BRANCH  15  18
ATOM     18  O   LIG    1       20.014   5.814  49.938  0.00  0.00    -0.507 OA
ATOM     19  H   LIG    1       19.655   6.152  49.102  0.00  0.00    +0.292 HD
ENDBRANCH  15  18
ENDBRANCH   1  12
TORSDOF 4
ENDMDL
MODEL 9
REMARK VINA RESULT:      -1.9      2.028      3.436
REMARK  Name = 
REMARK                            x       y       z     vdW  Elec       q    Type
REMARK                         _______ _______ _______ _____ _____    ______ ____
ROOT
ATOM      1  C   LIG    1       18.410   5.002  51.683  0.00  0.00    +0.015 C 
ATOM      2  C   LIG    1       18.329   5.310  50.161  0.00  0.00    +0.021 C 
ATOM      3  C   LIG    1       18.425   6.403  52.358  0.00  0.00    +0.021 C 
ENDROOT
BRANCH   1   7
ATOM      4  C   LIG    1       22.132   2.999  52.770  0.00  0.00    +0.117 A 
ATOM      5  C   LIG    1       21.252   3.383  53.769  0.00  0.00    +0.046 A 
ATOM      6  C   LIG    1       20.044   4.008  53.440  0.00  0.00    +0.008 A 
ATOM      7  C   LIG    1       19.702   4.258  52.100  0.00  0.00    -0.037 A 
ATOM      8  C   LIG    1       20.618   3.845  51.108  0.00  0.00    +0.008 A 
ATOM      9  C   LIG    1       21.824   3.219  51.435  0.00  0.00    +0.046 A 
BRANCH   4  10
ATOM     10  O   LIG    1       23.306   2.411  53.139  0.00  0.00    -0.507 OA
ATOM     11  H   LIG    1       23.118   1.497  53.406  0.00  0.00    +0.292 HD
ENDBRANCH   4  10
ENDBRANCH   1   7
BRANCH   1  12
ATOM     12  C   LIG    1       17.184   4.140  52.081  0.00  0.00    -0.037 A 
ATOM     13  C   LIG    1       17.163   2.764  51.773  0.00  0.00    +0.008 A 
ATOM     14  C   LIG    1       16.113   1.941  52.188  0.00  0.00    +0.046 A 
ATOM     15  C   LIG    1       15.078   2.473  52.938  0.00  0.00    +0.117 A 
ATOM     16  C   LIG    1       15.064   3.823  53.262  0.00  0.00    +0.046 A 
ATOM     17  C   LIG    1       16.108   4.651  52.832  0.00  0.00    +0.008 A 
BRANCH  15  18
ATOM     18  O   LIG    1       14.093   1.629  53.355  0.00  0.00    -0.507 OA
ATOM     19  H   LIG    1       13.412   2.152  53.809  0.00  0.00    +0.292 HD
ENDBRANCH  15  18
ENDBRANCH   1  12
TORSDOF 4
ENDMDL
