MODEL 1
REMARK VINA RESULT:      -8.0      0.000      0.000
REMARK  Name = 
REMARK                            x       y       z     vdW  Elec       q    Type
REMARK                         _______ _______ _______ _____ _____    ______ ____
ROOT
ATOM      1  C   LIG    1       27.336   0.207  20.373  0.00  0.00    +0.015 C 
ATOM      2  C   LIG    1       26.328  -0.580  21.257  0.00  0.00    +0.021 C 
ATOM      3  C   LIG    1       27.496  -0.672  19.100  0.00  0.00    +0.021 C 
ENDROOT
BRANCH   1   7
ATOM      4  C   LIG    1       31.314   0.535  22.137  0.00  0.00    +0.117 A 
ATOM      5  C   LIG    1       30.818   1.587  21.381  0.00  0.00    +0.046 A 
ATOM      6  C   LIG    1       29.537   1.509  20.824  0.00  0.00    +0.008 A 
ATOM      7  C   LIG    1       28.734   0.372  21.017  0.00  0.00    -0.037 A 
ATOM      8  C   LIG    1       29.267  -0.675  21.800  0.00  0.00    +0.008 A 
ATOM      9  C   LIG    1       30.546  -0.598  22.358  0.00  0.00    +0.046 A 
BRANCH   4  10
ATOM     10  O   LIG    1       32.575   0.648  22.643  0.00  0.00    -0.507 OA
ATOM     11  H   LIG    1       32.512   1.014  23.540  0.00  0.00    +0.292 HD
ENDBRANCH   4  10
ENDBRANCH   1   7
BRANCH   1  12
ATOM     12  C   LIG    1       26.749   1.612  20.081  0.00  0.00    -0.037 A 
ATOM     13  C   LIG    1       26.218   2.384  21.135  0.00  0.00    +0.008 A 
ATOM     14  C   LIG    1       25.755   3.685  20.922  0.00  0.00    +0.046 A 
ATOM     15  C   LIG    1       25.837   4.246  19.658  0.00  0.00    +0.117 A 
ATOM     16  C   LIG    1       26.355   3.517  18.596  0.00  0.00    +0.046 A 
ATOM     17  C   LIG    1       26.802   2.207  18.806  0.00  0.00    +0.008 A 
BRANCH  15  18
ATOM     18  O   LIG    1       25.411   5.531  19.501  0.00  0.00    -0.507 OA
ATOM     19  H   LIG    1       24.952   5.600  18.648  0.00  0.00    +0.292 HD
ENDBRANCH  15  18
ENDBRANCH   1  12
TORSDOF 4
ENDMDL
MODEL 2
REMARK VINA RESULT:      -8.0      0.095      5.477
REMARK  Name = 
REMARK                            x       y       z     vdW  Elec       q    Type
REMARK                         _______ _______ _______ _____ _____    ______ ____
ROOT
ATOM      1  C   LIG    1       27.360   0.234  20.362  0.00  0.00    +0.015 C 
ATOM      2  C   LIG    1       27.535  -0.611  19.069  0.00  0.00    +0.021 C 
ATOM      3  C   LIG    1       26.354  -0.584  21.221  0.00  0.00    +0.021 C 
ENDROOT
BRANCH   1   7
ATOM      4  C   LIG    1       25.713   4.234  19.783  0.00  0.00    +0.117 A 
ATOM      5  C   LIG    1       26.245   3.555  18.697  0.00  0.00    +0.046 A 
ATOM      6  C   LIG    1       26.759   2.263  18.858  0.00  0.00    +0.008 A 
ATOM      7  C   LIG    1       26.748   1.634  20.114  0.00  0.00    -0.037 A 
ATOM      8  C   LIG    1       26.190   2.351  21.196  0.00  0.00    +0.008 A 
ATOM      9  C   LIG    1       25.675   3.640  21.035  0.00  0.00    +0.046 A 
BRANCH   4  10
ATOM     10  O   LIG    1       25.241   5.497  19.581  0.00  0.00    -0.507 OA
ATOM     11  H   LIG    1       24.302   5.515  19.827  0.00  0.00    +0.292 HD
ENDBRANCH   4  10
ENDBRANCH   1   7
BRANCH   1  12
ATOM     12  C   LIG    1       28.746   0.405  21.035  0.00  0.00    -0.037 A 
ATOM     13  C   LIG    1       29.276  -0.634  21.828  0.00  0.00    +0.008 A 
ATOM     14  C   LIG    1       30.555  -0.547  22.382  0.00  0.00    +0.046 A 
ATOM     15  C   LIG    1       31.336   0.570  22.135  0.00  0.00    +0.117 A 
ATOM     16  C   LIG    1       30.850   1.613  21.359  0.00  0.00    +0.046 A 
ATOM     17  C   LIG    1       29.561   1.533  20.818  0.00  0.00    +0.008 A 
BRANCH  15  18
ATOM     18  O   LIG    1       32.593   0.599  22.663  0.00  0.00    -0.507 OA
ATOM     19  H   LIG    1       32.548   1.009  23.541  0.00  0.00    +0.292 HD
ENDBRANCH  15  18
ENDBRANCH   1  12
TORSDOF 4
ENDMDL
MODEL 3
REMARK VINA RESULT:      -7.9      1.496      2.064
REMARK  Name = 
REMARK                            x       y       z     vdW  Elec       q    Type
REMARK                         _______ _______ _______ _____ _____    ______ ____
ROOT
ATOM      1  C   LIG    1       27.444  -0.270  20.698  0.00  0.00    +0.015 C 
ATOM      2  C   LIG    1       26.038  -0.858  21.005  0.00  0.00    +0.021 C 
ATOM      3  C   LIG    1       27.887  -0.995  19.396  0.00  0.00    +0.021 C 
ENDROOT
BRANCH   1   7
ATOM      4  C   LIG    1       30.323  -1.231  23.834  0.00  0.00    +0.117 A 
ATOM      5  C   LIG    1       30.768  -1.070  22.531  0.00  0.00    +0.046 A 
ATOM      6  C   LIG    1       29.864  -0.742  21.515  0.00  0.00    +0.008 A 
ATOM      7  C   LIG    1       28.497  -0.571  21.793  0.00  0.00    -0.037 A 
ATOM      8  C   LIG    1       28.081  -0.733  23.133  0.00  0.00    +0.008 A 
ATOM      9  C   LIG    1       28.984  -1.059  24.148  0.00  0.00    +0.046 A 
BRANCH   4  10
ATOM     10  O   LIG    1       31.238  -1.569  24.787  0.00  0.00    -0.507 OA
ATOM     11  H   LIG    1       31.161  -0.940  25.522  0.00  0.00    +0.292 HD
ENDBRANCH   4  10
ENDBRANCH   1   7
BRANCH   1  12
ATOM     12  C   LIG    1       27.316   1.266  20.535  0.00  0.00    -0.037 A 
ATOM     13  C   LIG    1       28.311   1.985  19.840  0.00  0.00    +0.008 A 
ATOM     14  C   LIG    1       28.188   3.356  19.604  0.00  0.00    +0.046 A 
ATOM     15  C   LIG    1       27.058   4.029  20.037  0.00  0.00    +0.117 A 
ATOM     16  C   LIG    1       26.055   3.356  20.723  0.00  0.00    +0.046 A 
ATOM     17  C   LIG    1       26.188   1.984  20.974  0.00  0.00    +0.008 A 
BRANCH  15  18
ATOM     18  O   LIG    1       26.958   5.358  19.753  0.00  0.00    -0.507 OA
ATOM     19  H   LIG    1       27.278   5.503  18.848  0.00  0.00    +0.292 HD
ENDBRANCH  15  18
ENDBRANCH   1  12
TORSDOF 4
ENDMDL
MODEL 4
REMARK VINA RESULT:      -7.9      1.478      5.545
REMARK  Name = 
REMARK                            x       y       z     vdW  Elec       q    Type
REMARK                         _______ _______ _______ _____ _____    ______ ____
ROOT
ATOM      1  C   LIG    1       27.414  -0.252  20.714  0.00  0.00    +0.015 C 
ATOM      2  C   LIG    1       27.816  -1.014  19.419  0.00  0.00    +0.021 C 
ATOM      3  C   LIG    1       26.010  -0.816  21.071  0.00  0.00    +0.021 C 
ENDROOT
BRANCH   1   7
ATOM      4  C   LIG    1       27.063   4.042  20.017  0.00  0.00    +0.117 A 
ATOM      5  C   LIG    1       26.064   3.385  20.720  0.00  0.00    +0.046 A 
ATOM      6  C   LIG    1       26.169   2.012  20.971  0.00  0.00    +0.008 A 
ATOM      7  C   LIG    1       27.278   1.278  20.519  0.00  0.00    -0.037 A 
ATOM      8  C   LIG    1       28.280   1.981  19.815  0.00  0.00    +0.008 A 
ATOM      9  C   LIG    1       28.178   3.352  19.564  0.00  0.00    +0.046 A 
BRANCH   4  10
ATOM     10  O   LIG    1       26.909   5.376  19.780  0.00  0.00    -0.507 OA
ATOM     11  H   LIG    1       27.782   5.797  19.824  0.00  0.00    +0.292 HD
ENDBRANCH   4  10
ENDBRANCH   1   7
BRANCH   1  12
ATOM     12  C   LIG    1       28.483  -0.526  21.803  0.00  0.00    -0.037 A 
ATOM     13  C   LIG    1       28.087  -0.731  23.141  0.00  0.00    +0.008 A 
ATOM     14  C   LIG    1       29.013  -1.060  24.133  0.00  0.00    +0.046 A 
ATOM     15  C   LIG    1       30.349  -1.212  23.801  0.00  0.00    +0.117 A 
ATOM     16  C   LIG    1       30.778  -1.019  22.494  0.00  0.00    +0.046 A 
ATOM     17  C   LIG    1       29.851  -0.673  21.504  0.00  0.00    +0.008 A 
BRANCH  15  18
ATOM     18  O   LIG    1       31.216  -1.571  24.790  0.00  0.00    -0.507 OA
ATOM     19  H   LIG    1       30.897  -1.198  25.628  0.00  0.00    +0.292 HD
ENDBRANCH  15  18
ENDBRANCH   1  12
TORSDOF 4
ENDMDL
MODEL 5
REMARK VINA RESULT:      -7.9      1.236      1.823
REMARK  Name = 
REMARK                            x       y       z     vdW  Elec       q    Type
REMARK                         _______ _______ _______ _____ _____    ______ ____
ROOT
ATOM      1  C   LIG    1       27.155  -0.220  19.994  0.00  0.00    +0.015 C 
ATOM      2  C   LIG    1       26.031  -0.540  21.020  0.00  0.00    +0.021 C 
ATOM      3  C   LIG    1       27.345  -1.547  19.207  0.00  0.00    +0.021 C 
ENDROOT
BRANCH   1   7
ATOM      4  C   LIG    1       31.035   0.681  21.777  0.00  0.00    +0.117 A 
ATOM      5  C   LIG    1       30.365   1.671  21.075  0.00  0.00    +0.046 A 
ATOM      6  C   LIG    1       29.110   1.408  20.513  0.00  0.00    +0.008 A 
ATOM      7  C   LIG    1       28.510   0.145  20.648  0.00  0.00    -0.037 A 
ATOM      8  C   LIG    1       29.217  -0.837  21.377  0.00  0.00    +0.008 A 
ATOM      9  C   LIG    1       30.469  -0.575  21.939  0.00  0.00    +0.046 A 
BRANCH   4  10
ATOM     10  O   LIG    1       32.263   0.978  22.290  0.00  0.00    -0.507 OA
ATOM     11  H   LIG    1       32.224   0.875  23.254  0.00  0.00    +0.292 HD
ENDBRANCH   4  10
ENDBRANCH   1   7
BRANCH   1  12
ATOM     12  C   LIG    1       26.693   0.963  19.105  0.00  0.00    -0.037 A 
ATOM     13  C   LIG    1       26.436   0.753  17.734  0.00  0.00    +0.008 A 
ATOM     14  C   LIG    1       25.941   1.775  16.921  0.00  0.00    +0.046 A 
ATOM     15  C   LIG    1       25.673   3.019  17.468  0.00  0.00    +0.117 A 
ATOM     16  C   LIG    1       25.912   3.264  18.813  0.00  0.00    +0.046 A 
ATOM     17  C   LIG    1       26.424   2.243  19.624  0.00  0.00    +0.008 A 
BRANCH  15  18
ATOM     18  O   LIG    1       25.156   3.978  16.649  0.00  0.00    -0.507 OA
ATOM     19  H   LIG    1       25.890   4.480  16.261  0.00  0.00    +0.292 HD
ENDBRANCH  15  18
ENDBRANCH   1  12
TORSDOF 4
ENDMDL
MODEL 6
REMARK VINA RESULT:      -7.8      1.249      5.571
REMARK  Name = 
REMARK                            x       y       z     vdW  Elec       q    Type
REMARK                         _______ _______ _______ _____ _____    ______ ____
ROOT
ATOM      1  C   LIG    1       27.134  -0.234  20.013  0.00  0.00    +0.015 C 
ATOM      2  C   LIG    1       27.330  -1.573  19.246  0.00  0.00    +0.021 C 
ATOM      3  C   LIG    1       26.003  -0.540  21.035  0.00  0.00    +0.021 C 
ENDROOT
BRANCH   1   7
ATOM      4  C   LIG    1       25.692   2.972  17.427  0.00  0.00    +0.117 A 
ATOM      5  C   LIG    1       25.938   3.239  18.765  0.00  0.00    +0.046 A 
ATOM      6  C   LIG    1       26.421   2.230  19.606  0.00  0.00    +0.008 A 
ATOM      7  C   LIG    1       26.662   0.935  19.115  0.00  0.00    -0.037 A 
ATOM      8  C   LIG    1       26.409   0.702  17.745  0.00  0.00    +0.008 A 
ATOM      9  C   LIG    1       25.928   1.710  16.904  0.00  0.00    +0.046 A 
BRANCH   4  10
ATOM     10  O   LIG    1       25.205   3.982  16.650  0.00  0.00    -0.507 OA
ATOM     11  H   LIG    1       25.344   4.821  17.118  0.00  0.00    +0.292 HD
ENDBRANCH   4  10
ENDBRANCH   1   7
BRANCH   1  12
ATOM     12  C   LIG    1       28.477   0.157  20.680  0.00  0.00    -0.037 A 
ATOM     13  C   LIG    1       29.204  -0.803  21.414  0.00  0.00    +0.008 A 
ATOM     14  C   LIG    1       30.455  -0.509  21.960  0.00  0.00    +0.046 A 
ATOM     15  C   LIG    1       31.014   0.743  21.762  0.00  0.00    +0.117 A 
ATOM     16  C   LIG    1       30.330   1.715  21.044  0.00  0.00    +0.046 A 
ATOM     17  C   LIG    1       29.068   1.424  20.512  0.00  0.00    +0.008 A 
BRANCH  15  18
ATOM     18  O   LIG    1       32.253   0.977  22.278  0.00  0.00    -0.507 OA
ATOM     19  H   LIG    1       32.706   0.126  22.389  0.00  0.00    +0.292 HD
ENDBRANCH  15  18
ENDBRANCH   1  12
TORSDOF 4
ENDMDL
MODEL 7
REMARK VINA RESULT:      -7.8      1.805      2.784
REMARK  Name = 
REMARK                            x       y       z     vdW  Elec       q    Type
REMARK                         _______ _______ _______ _____ _____    ______ ____
ROOT
ATOM      1  C   LIG    1       26.758   0.906  20.735  0.00  0.00    +0.015 C 
ATOM      2  C   LIG    1       25.980   1.943  21.594  0.00  0.00    +0.021 C 
ATOM      3  C   LIG    1       26.162  -0.466  21.157  0.00  0.00    +0.021 C 
ENDROOT
BRANCH   1   7
ATOM      4  C   LIG    1       31.031   0.951  21.621  0.00  0.00    +0.117 A 
ATOM      5  C   LIG    1       30.299  -0.201  21.869  0.00  0.00    +0.046 A 
ATOM      6  C   LIG    1       28.932  -0.242  21.572  0.00  0.00    +0.008 A 
ATOM      7  C   LIG    1       28.279   0.875  21.023  0.00  0.00    -0.037 A 
ATOM      8  C   LIG    1       29.057   2.027  20.775  0.00  0.00    +0.008 A 
ATOM      9  C   LIG    1       30.423   2.068  21.070  0.00  0.00    +0.046 A 
BRANCH   4  10
ATOM     10  O   LIG    1       32.356   0.950  21.944  0.00  0.00    -0.507 OA
ATOM     11  H   LIG    1       32.529   0.191  22.523  0.00  0.00    +0.292 HD
ENDBRANCH   4  10
ENDBRANCH   1   7
BRANCH   1  12
ATOM     12  C   LIG    1       26.538   1.237  19.236  0.00  0.00    -0.037 A 
ATOM     13  C   LIG    1       26.684   0.226  18.264  0.00  0.00    +0.008 A 
ATOM     14  C   LIG    1       26.416   0.468  16.915  0.00  0.00    +0.046 A 
ATOM     15  C   LIG    1       25.974   1.718  16.517  0.00  0.00    +0.117 A 
ATOM     16  C   LIG    1       25.816   2.740  17.444  0.00  0.00    +0.046 A 
ATOM     17  C   LIG    1       26.102   2.501  18.794  0.00  0.00    +0.008 A 
BRANCH  15  18
ATOM     18  O   LIG    1       25.686   1.903  15.197  0.00  0.00    -0.507 OA
ATOM     19  H   LIG    1       24.751   2.151  15.119  0.00  0.00    +0.292 HD
ENDBRANCH  15  18
ENDBRANCH   1  12
TORSDOF 4
ENDMDL
MODEL 8
REMARK VINA RESULT:      -7.4      1.994      5.931
REMARK  Name = 
REMARK                            x       y       z     vdW  Elec       q    Type
REMARK                         _______ _______ _______ _____ _____    ______ ____
ROOT
ATOM      1  C   LIG    1       26.703   2.675  20.475  0.00  0.00    +0.015 C 
ATOM      2  C   LIG    1       25.480   2.560  21.428  0.00  0.00    +0.021 C 
ATOM      3  C   LIG    1       27.163   4.153  20.616  0.00  0.00    +0.021 C 
ENDROOT
BRANCH   1   7
ATOM      4  C   LIG    1       25.823   2.082  16.241  0.00  0.00    +0.117 A 
ATOM      5  C   LIG    1       26.206   0.996  17.013  0.00  0.00    +0.046 A 
ATOM      6  C   LIG    1       26.473   1.161  18.376  0.00  0.00    +0.008 A 
ATOM      7  C   LIG    1       26.359   2.422  18.986  0.00  0.00    -0.037 A 
ATOM      8  C   LIG    1       25.957   3.504  18.172  0.00  0.00    +0.008 A 
ATOM      9  C   LIG    1       25.689   3.340  16.811  0.00  0.00    +0.046 A 
BRANCH   4  10
ATOM     10  O   LIG    1       25.592   1.876  14.913  0.00  0.00    -0.507 OA
ATOM     11  H   LIG    1       24.693   1.524  14.810  0.00  0.00    +0.292 HD
ENDBRANCH   4  10
ENDBRANCH   1   7
BRANCH   1  12
ATOM     12  C   LIG    1       27.778   1.651  20.921  0.00  0.00    -0.037 A 
ATOM     13  C   LIG    1       29.145   1.992  20.853  0.00  0.00    +0.008 A 
ATOM     14  C   LIG    1       30.136   1.126  21.321  0.00  0.00    +0.046 A 
ATOM     15  C   LIG    1       29.777  -0.086  21.888  0.00  0.00    +0.117 A 
ATOM     16  C   LIG    1       28.442  -0.457  21.974  0.00  0.00    +0.046 A 
ATOM     17  C   LIG    1       27.450   0.404  21.488  0.00  0.00    +0.008 A 
BRANCH  15  18
ATOM     18  O   LIG    1       30.772  -0.885  22.368  0.00  0.00    -0.507 OA
ATOM     19  H   LIG    1       30.997  -1.538  21.686  0.00  0.00    +0.292 HD
ENDBRANCH  15  18
ENDBRANCH   1  12
TORSDOF 4
ENDMDL
MODEL 9
REMARK VINA RESULT:      -6.9      2.448      5.969
REMARK  Name = 
REMARK                            x       y       z     vdW  Elec       q    Type
REMARK                         _______ _______ _______ _____ _____    ______ ____
ROOT
ATOM      1  C   LIG    1       28.787   1.571  20.707  0.00  0.00    +0.015 C 
ATOM      2  C   LIG    1       28.138   2.773  21.451  0.00  0.00    +0.021 C 
ATOM      3  C   LIG    1       30.004   2.192  19.965  0.00  0.00    +0.021 C 
ENDROOT
BRANCH   1   7
ATOM      4  C   LIG    1       26.228  -0.155  17.621  0.00  0.00    +0.117 A 
ATOM      5  C   LIG    1       27.056  -0.987  18.359  0.00  0.00    +0.046 A 
ATOM      6  C   LIG    1       27.869  -0.455  19.367  0.00  0.00    +0.008 A 
ATOM      7  C   LIG    1       27.863   0.922  19.649  0.00  0.00    -0.037 A 
ATOM      8  C   LIG    1       27.000   1.738  18.884  0.00  0.00    +0.008 A 
ATOM      9  C   LIG    1       26.187   1.208  17.878  0.00  0.00    +0.046 A 
BRANCH   4  10
ATOM     10  O   LIG    1       25.469  -0.715  16.637  0.00  0.00    -0.507 OA
ATOM     11  H   LIG    1       25.682  -0.274  15.799  0.00  0.00    +0.292 HD
ENDBRANCH   4  10
ENDBRANCH   1   7
BRANCH   1  12
ATOM     12  C   LIG    1       29.185   0.497  21.752  0.00  0.00    -0.037 A 
ATOM     13  C   LIG    1       30.547   0.230  22.001  0.00  0.00    +0.008 A 
ATOM     14  C   LIG    1       30.944  -0.672  22.991  0.00  0.00    +0.046 A 
ATOM     15  C   LIG    1       29.986  -1.306  23.765  0.00  0.00    +0.117 A 
ATOM     16  C   LIG    1       28.635  -1.068  23.551  0.00  0.00    +0.046 A 
ATOM     17  C   LIG    1       28.238  -0.177  22.547  0.00  0.00    +0.008 A 
BRANCH  15  18
ATOM     18  O   LIG    1       30.415  -2.149  24.746  0.00  0.00    -0.507 OA
ATOM     19  H   LIG    1       29.651  -2.646  25.081  0.00  0.00    +0.292 HD
ENDBRANCH  15  18
ENDBRANCH   1  12
TORSDOF 4
ENDMDL
