MODEL 1
REMARK VINA RESULT:      -8.6      0.000      0.000
REMARK  Name = 
REMARK                            x       y       z     vdW  Elec       q    Type
REMARK                         _______ _______ _______ _____ _____    ______ ____
ROOT
ATOM      1  C   LIG    1        4.100  18.481  28.789  0.00  0.00    +0.015 C 
ATOM      2  C   LIG    1        4.176  17.196  27.916  0.00  0.00    +0.021 C 
ATOM      3  C   LIG    1        3.354  19.510  27.893  0.00  0.00    +0.021 C 
ENDROOT
BRANCH   1   7
ATOM      4  C   LIG    1        7.964  20.284  29.723  0.00  0.00    +0.117 A 
ATOM      5  C   LIG    1        7.248  19.653  30.730  0.00  0.00    +0.046 A 
ATOM      6  C   LIG    1        6.017  19.052  30.446  0.00  0.00    +0.008 A 
ATOM      7  C   LIG    1        5.485  19.074  29.146  0.00  0.00    -0.037 A 
ATOM      8  C   LIG    1        6.245  19.717  28.143  0.00  0.00    +0.008 A 
ATOM      9  C   LIG    1        7.475  20.317  28.426  0.00  0.00    +0.046 A 
BRANCH   4  10
ATOM     10  O   LIG    1        9.149  20.873  30.051  0.00  0.00    -0.507 OA
ATOM     11  H   LIG    1        9.620  20.289  30.668  0.00  0.00    +0.292 HD
ENDBRANCH   4  10
ENDBRANCH   1   7
BRANCH   1  12
ATOM     12  C   LIG    1        3.346  18.147  30.101  0.00  0.00    -0.037 A 
ATOM     13  C   LIG    1        2.458  19.089  30.661  0.00  0.00    +0.008 A 
ATOM     14  C   LIG    1        1.701  18.791  31.797  0.00  0.00    +0.046 A 
ATOM     15  C   LIG    1        1.800  17.538  32.379  0.00  0.00    +0.117 A 
ATOM     16  C   LIG    1        2.662  16.583  31.856  0.00  0.00    +0.046 A 
ATOM     17  C   LIG    1        3.433  16.889  30.728  0.00  0.00    +0.008 A 
BRANCH  15  18
ATOM     18  O   LIG    1        1.016  17.274  33.462  0.00  0.00    -0.507 OA
ATOM     19  H   LIG    1        0.086  17.331  33.190  0.00  0.00    +0.292 HD
ENDBRANCH  15  18
ENDBRANCH   1  12
TORSDOF 4
ENDMDL
MODEL 2
REMARK VINA RESULT:      -8.6      0.066      5.584
REMARK  Name = 
REMARK                            x       y       z     vdW  Elec       q    Type
REMARK                         _______ _______ _______ _____ _____    ______ ____
ROOT
ATOM      1  C   LIG    1        4.091  18.499  28.728  0.00  0.00    +0.015 C 
ATOM      2  C   LIG    1        3.370  19.535  27.819  0.00  0.00    +0.021 C 
ATOM      3  C   LIG    1        4.155  17.209  27.863  0.00  0.00    +0.021 C 
ENDROOT
BRANCH   1   7
ATOM      4  C   LIG    1        1.782  17.605  32.322  0.00  0.00    +0.117 A 
ATOM      5  C   LIG    1        2.648  16.647  31.816  0.00  0.00    +0.046 A 
ATOM      6  C   LIG    1        3.412  16.922  30.677  0.00  0.00    +0.008 A 
ATOM      7  C   LIG    1        3.318  18.165  30.027  0.00  0.00    -0.037 A 
ATOM      8  C   LIG    1        2.432  19.119  30.574  0.00  0.00    +0.008 A 
ATOM      9  C   LIG    1        1.670  18.846  31.713  0.00  0.00    +0.046 A 
BRANCH   4  10
ATOM     10  O   LIG    1        1.044  17.285  33.423  0.00  0.00    -0.507 OA
ATOM     11  H   LIG    1        0.949  16.319  33.457  0.00  0.00    +0.292 HD
ENDBRANCH   4  10
ENDBRANCH   1   7
BRANCH   1  12
ATOM     12  C   LIG    1        5.487  19.057  29.105  0.00  0.00    -0.037 A 
ATOM     13  C   LIG    1        6.265  19.722  28.135  0.00  0.00    +0.008 A 
ATOM     14  C   LIG    1        7.490  20.307  28.459  0.00  0.00    +0.046 A 
ATOM     15  C   LIG    1        7.950  20.260  29.765  0.00  0.00    +0.117 A 
ATOM     16  C   LIG    1        7.212  19.616  30.749  0.00  0.00    +0.046 A 
ATOM     17  C   LIG    1        5.991  19.014  30.419  0.00  0.00    +0.008 A 
BRANCH  15  18
ATOM     18  O   LIG    1        9.132  20.877  30.048  0.00  0.00    -0.507 OA
ATOM     19  H   LIG    1        9.440  20.567  30.915  0.00  0.00    +0.292 HD
ENDBRANCH  15  18
ENDBRANCH   1  12
TORSDOF 4
ENDMDL
MODEL 3
REMARK VINA RESULT:      -8.6      0.295      1.204
REMARK  Name = 
REMARK                            x       y       z     vdW  Elec       q    Type
REMARK                         _______ _______ _______ _____ _____    ______ ____
ROOT
ATOM      1  C   LIG    1        4.192  18.435  28.590  0.00  0.00    +0.015 C 
ATOM      2  C   LIG    1        4.384  17.055  27.901  0.00  0.00    +0.021 C 
ATOM      3  C   LIG    1        3.469  19.302  27.521  0.00  0.00    +0.021 C 
ENDROOT
BRANCH   1   7
ATOM      4  C   LIG    1        7.988  20.291  29.686  0.00  0.00    +0.117 A 
ATOM      5  C   LIG    1        7.528  20.405  28.382  0.00  0.00    +0.046 A 
ATOM      6  C   LIG    1        6.304  19.834  28.016  0.00  0.00    +0.008 A 
ATOM      7  C   LIG    1        5.522  19.140  28.955  0.00  0.00    -0.037 A 
ATOM      8  C   LIG    1        6.016  19.051  30.275  0.00  0.00    +0.008 A 
ATOM      9  C   LIG    1        7.238  19.622  30.642  0.00  0.00    +0.046 A 
BRANCH   4  10
ATOM     10  O   LIG    1        9.195  20.847  29.991  0.00  0.00    -0.507 OA
ATOM     11  H   LIG    1        9.452  21.438  29.265  0.00  0.00    +0.292 HD
ENDBRANCH   4  10
ENDBRANCH   1   7
BRANCH   1  12
ATOM     12  C   LIG    1        3.362  18.233  29.884  0.00  0.00    -0.037 A 
ATOM     13  C   LIG    1        2.477  19.243  30.316  0.00  0.00    +0.008 A 
ATOM     14  C   LIG    1        1.654  19.063  31.430  0.00  0.00    +0.046 A 
ATOM     15  C   LIG    1        1.683  17.861  32.118  0.00  0.00    +0.117 A 
ATOM     16  C   LIG    1        2.540  16.843  31.723  0.00  0.00    +0.046 A 
ATOM     17  C   LIG    1        3.377  17.031  30.616  0.00  0.00    +0.008 A 
BRANCH  15  18
ATOM     18  O   LIG    1        0.837  17.711  33.176  0.00  0.00    -0.507 OA
ATOM     19  H   LIG    1        0.322  18.528  33.276  0.00  0.00    +0.292 HD
ENDBRANCH  15  18
ENDBRANCH   1  12
TORSDOF 4
ENDMDL
MODEL 4
REMARK VINA RESULT:      -8.2      1.665      5.941
REMARK  Name = 
REMARK                            x       y       z     vdW  Elec       q    Type
REMARK                         _______ _______ _______ _____ _____    ______ ____
ROOT
ATOM      1  C   LIG    1        3.289  17.733  30.898  0.00  0.00    +0.015 C 
ATOM      2  C   LIG    1        2.325  18.113  29.738  0.00  0.00    +0.021 C 
ATOM      3  C   LIG    1        3.464  16.194  30.763  0.00  0.00    +0.021 C 
ENDROOT
BRANCH   1   7
ATOM      4  C   LIG    1        1.582  18.437  34.852  0.00  0.00    +0.117 A 
ATOM      5  C   LIG    1        2.960  18.438  34.698  0.00  0.00    +0.046 A 
ATOM      6  C   LIG    1        3.527  18.235  33.435  0.00  0.00    +0.008 A 
ATOM      7  C   LIG    1        2.716  18.026  32.306  0.00  0.00    -0.037 A 
ATOM      8  C   LIG    1        1.317  18.040  32.498  0.00  0.00    +0.008 A 
ATOM      9  C   LIG    1        0.751  18.245  33.759  0.00  0.00    +0.046 A 
BRANCH   4  10
ATOM     10  O   LIG    1        1.077  18.621  36.105  0.00  0.00    -0.507 OA
ATOM     11  H   LIG    1        1.583  19.327  36.539  0.00  0.00    +0.292 HD
ENDBRANCH   4  10
ENDBRANCH   1   7
BRANCH   1  12
ATOM     12  C   LIG    1        4.613  18.520  30.722  0.00  0.00    -0.037 A 
ATOM     13  C   LIG    1        5.840  17.920  31.074  0.00  0.00    +0.008 A 
ATOM     14  C   LIG    1        7.057  18.568  30.854  0.00  0.00    +0.046 A 
ATOM     15  C   LIG    1        7.072  19.817  30.256  0.00  0.00    +0.117 A 
ATOM     16  C   LIG    1        5.885  20.440  29.894  0.00  0.00    +0.046 A 
ATOM     17  C   LIG    1        4.664  19.797  30.131  0.00  0.00    +0.008 A 
BRANCH  15  18
ATOM     18  O   LIG    1        8.283  20.399  30.023  0.00  0.00    -0.507 OA
ATOM     19  H   LIG    1        8.959  19.908  30.517  0.00  0.00    +0.292 HD
ENDBRANCH  15  18
ENDBRANCH   1  12
TORSDOF 4
ENDMDL
MODEL 5
REMARK VINA RESULT:      -8.0      1.417      2.242
REMARK  Name = 
REMARK                            x       y       z     vdW  Elec       q    Type
REMARK                         _______ _______ _______ _____ _____    ______ ____
ROOT
ATOM      1  C   LIG    1        2.901  19.056  30.171  0.00  0.00    +0.015 C 
ATOM      2  C   LIG    1        2.435  18.351  28.866  0.00  0.00    +0.021 C 
ATOM      3  C   LIG    1        2.078  20.374  30.211  0.00  0.00    +0.021 C 
ENDROOT
BRANCH   1   7
ATOM      4  C   LIG    1        7.168  19.974  30.124  0.00  0.00    +0.117 A 
ATOM      5  C   LIG    1        6.274  20.875  29.565  0.00  0.00    +0.046 A 
ATOM      6  C   LIG    1        4.900  20.608  29.589  0.00  0.00    +0.008 A 
ATOM      7  C   LIG    1        4.403  19.431  30.174  0.00  0.00    -0.037 A 
ATOM      8  C   LIG    1        5.341  18.541  30.742  0.00  0.00    +0.008 A 
ATOM      9  C   LIG    1        6.713  18.807  30.720  0.00  0.00    +0.046 A 
BRANCH   4  10
ATOM     10  O   LIG    1        8.498  20.267  30.061  0.00  0.00    -0.507 OA
ATOM     11  H   LIG    1        8.934  19.592  29.516  0.00  0.00    +0.292 HD
ENDBRANCH   4  10
ENDBRANCH   1   7
BRANCH   1  12
ATOM     12  C   LIG    1        2.617  18.117  31.372  0.00  0.00    -0.037 A 
ATOM     13  C   LIG    1        2.682  16.718  31.201  0.00  0.00    +0.008 A 
ATOM     14  C   LIG    1        2.512  15.844  32.277  0.00  0.00    +0.046 A 
ATOM     15  C   LIG    1        2.299  16.353  33.548  0.00  0.00    +0.117 A 
ATOM     16  C   LIG    1        2.230  17.724  33.756  0.00  0.00    +0.046 A 
ATOM     17  C   LIG    1        2.383  18.598  32.674  0.00  0.00    +0.008 A 
BRANCH  15  18
ATOM     18  O   LIG    1        2.176  15.468  34.577  0.00  0.00    -0.507 OA
ATOM     19  H   LIG    1        1.248  15.190  34.635  0.00  0.00    +0.292 HD
ENDBRANCH  15  18
ENDBRANCH   1  12
TORSDOF 4
ENDMDL
MODEL 6
REMARK VINA RESULT:      -7.9      2.315      5.692
REMARK  Name = 
REMARK                            x       y       z     vdW  Elec       q    Type
REMARK                         _______ _______ _______ _____ _____    ______ ____
ROOT
ATOM      1  C   LIG    1        4.785  17.888  30.413  0.00  0.00    +0.015 C 
ATOM      2  C   LIG    1        5.338  16.437  30.497  0.00  0.00    +0.021 C 
ATOM      3  C   LIG    1        5.864  18.752  31.125  0.00  0.00    +0.021 C 
ENDROOT
BRANCH   1   7
ATOM      4  C   LIG    1        0.940  18.493  32.387  0.00  0.00    +0.117 A 
ATOM      5  C   LIG    1        1.642  17.320  32.615  0.00  0.00    +0.046 A 
ATOM      6  C   LIG    1        2.886  17.116  32.008  0.00  0.00    +0.008 A 
ATOM      7  C   LIG    1        3.444  18.088  31.160  0.00  0.00    -0.037 A 
ATOM      8  C   LIG    1        2.705  19.275  30.957  0.00  0.00    +0.008 A 
ATOM      9  C   LIG    1        1.463  19.480  31.565  0.00  0.00    +0.046 A 
BRANCH   4  10
ATOM     10  O   LIG    1       -0.277  18.640  32.985  0.00  0.00    -0.507 OA
ATOM     11  H   LIG    1       -0.424  17.877  33.568  0.00  0.00    +0.292 HD
ENDBRANCH   4  10
ENDBRANCH   1   7
BRANCH   1  12
ATOM     12  C   LIG    1        4.587  18.258  28.921  0.00  0.00    -0.037 A 
ATOM     13  C   LIG    1        3.961  17.344  28.047  0.00  0.00    +0.008 A 
ATOM     14  C   LIG    1        3.694  17.676  26.717  0.00  0.00    +0.046 A 
ATOM     15  C   LIG    1        4.025  18.934  26.242  0.00  0.00    +0.117 A 
ATOM     16  C   LIG    1        4.641  19.861  27.072  0.00  0.00    +0.046 A 
ATOM     17  C   LIG    1        4.925  19.522  28.401  0.00  0.00    +0.008 A 
BRANCH  15  18
ATOM     18  O   LIG    1        3.712  19.231  24.950  0.00  0.00    -0.507 OA
ATOM     19  H   LIG    1        2.756  19.114  24.830  0.00  0.00    +0.292 HD
ENDBRANCH  15  18
ENDBRANCH   1  12
TORSDOF 4
ENDMDL
MODEL 7
REMARK VINA RESULT:      -7.8      1.318      5.747
REMARK  Name = 
REMARK                            x       y       z     vdW  Elec       q    Type
REMARK                         _______ _______ _______ _____ _____    ______ ____
ROOT
ATOM      1  C   LIG    1        4.117  18.332  27.459  0.00  0.00    +0.015 C 
ATOM      2  C   LIG    1        3.133  19.069  26.507  0.00  0.00    +0.021 C 
ATOM      3  C   LIG    1        4.293  16.927  26.816  0.00  0.00    +0.021 C 
ENDROOT
BRANCH   1   7
ATOM      4  C   LIG    1        2.709  17.763  31.551  0.00  0.00    +0.117 A 
ATOM      5  C   LIG    1        2.203  18.813  30.799  0.00  0.00    +0.046 A 
ATOM      6  C   LIG    1        2.627  19.000  29.479  0.00  0.00    +0.008 A 
ATOM      7  C   LIG    1        3.566  18.135  28.893  0.00  0.00    -0.037 A 
ATOM      8  C   LIG    1        4.053  17.071  29.684  0.00  0.00    +0.008 A 
ATOM      9  C   LIG    1        3.629  16.882  31.003  0.00  0.00    +0.046 A 
BRANCH   4  10
ATOM     10  O   LIG    1        2.281  17.632  32.839  0.00  0.00    -0.507 OA
ATOM     11  H   LIG    1        2.634  18.374  33.355  0.00  0.00    +0.292 HD
ENDBRANCH   4  10
ENDBRANCH   1   7
BRANCH   1  12
ATOM     12  C   LIG    1        5.436  19.143  27.537  0.00  0.00    -0.037 A 
ATOM     13  C   LIG    1        6.101  19.517  26.351  0.00  0.00    +0.008 A 
ATOM     14  C   LIG    1        7.246  20.316  26.380  0.00  0.00    +0.046 A 
ATOM     15  C   LIG    1        7.733  20.775  27.592  0.00  0.00    +0.117 A 
ATOM     16  C   LIG    1        7.105  20.429  28.781  0.00  0.00    +0.046 A 
ATOM     17  C   LIG    1        5.967  19.614  28.752  0.00  0.00    +0.008 A 
BRANCH  15  18
ATOM     18  O   LIG    1        8.830  21.584  27.575  0.00  0.00    -0.507 OA
ATOM     19  H   LIG    1        9.019  21.826  26.653  0.00  0.00    +0.292 HD
ENDBRANCH  15  18
ENDBRANCH   1  12
TORSDOF 4
ENDMDL
MODEL 8
REMARK VINA RESULT:      -7.8      1.480      2.176
REMARK  Name = 
REMARK                            x       y       z     vdW  Elec       q    Type
REMARK                         _______ _______ _______ _____ _____    ______ ____
ROOT
ATOM      1  C   LIG    1        4.187  18.423  27.249  0.00  0.00    +0.015 C 
ATOM      2  C   LIG    1        4.357  17.123  26.412  0.00  0.00    +0.021 C 
ATOM      3  C   LIG    1        3.139  19.255  26.458  0.00  0.00    +0.021 C 
ENDROOT
BRANCH   1   7
ATOM      4  C   LIG    1        7.789  20.880  27.436  0.00  0.00    +0.117 A 
ATOM      5  C   LIG    1        7.044  20.680  28.588  0.00  0.00    +0.046 A 
ATOM      6  C   LIG    1        5.897  19.879  28.553  0.00  0.00    +0.008 A 
ATOM      7  C   LIG    1        5.481  19.266  27.359  0.00  0.00    -0.037 A 
ATOM      8  C   LIG    1        6.269  19.484  26.207  0.00  0.00    +0.008 A 
ATOM      9  C   LIG    1        7.415  20.283  26.241  0.00  0.00    +0.046 A 
BRANCH   4  10
ATOM     10  O   LIG    1        8.888  21.684  27.514  0.00  0.00    -0.507 OA
ATOM     11  H   LIG    1        9.046  21.895  28.448  0.00  0.00    +0.292 HD
ENDBRANCH   4  10
ENDBRANCH   1   7
BRANCH   1  12
ATOM     12  C   LIG    1        3.718  18.037  28.675  0.00  0.00    -0.037 A 
ATOM     13  C   LIG    1        4.492  17.154  29.456  0.00  0.00    +0.008 A 
ATOM     14  C   LIG    1        4.143  16.848  30.773  0.00  0.00    +0.046 A 
ATOM     15  C   LIG    1        3.026  17.438  31.342  0.00  0.00    +0.117 A 
ATOM     16  C   LIG    1        2.239  18.314  30.606  0.00  0.00    +0.046 A 
ATOM     17  C   LIG    1        2.581  18.607  29.280  0.00  0.00    +0.008 A 
BRANCH  15  18
ATOM     18  O   LIG    1        2.741  17.144  32.642  0.00  0.00    -0.507 OA
ATOM     19  H   LIG    1        1.787  17.259  32.781  0.00  0.00    +0.292 HD
ENDBRANCH  15  18
ENDBRANCH   1  12
TORSDOF 4
ENDMDL
MODEL 9
REMARK VINA RESULT:      -7.7      1.658      5.885
REMARK  Name = 
REMARK                            x       y       z     vdW  Elec       q    Type
REMARK                         _______ _______ _______ _____ _____    ______ ____
ROOT
ATOM      1  C   LIG    1        5.102  17.789  30.489  0.00  0.00    +0.015 C 
ATOM      2  C   LIG    1        5.304  16.322  30.014  0.00  0.00    +0.021 C 
ATOM      3  C   LIG    1        6.091  17.947  31.678  0.00  0.00    +0.021 C 
ENDROOT
BRANCH   1   7
ATOM      4  C   LIG    1        1.128  18.586  32.106  0.00  0.00    +0.117 A 
ATOM      5  C   LIG    1        1.711  19.511  31.253  0.00  0.00    +0.046 A 
ATOM      6  C   LIG    1        2.976  19.264  30.708  0.00  0.00    +0.008 A 
ATOM      7  C   LIG    1        3.675  18.084  31.012  0.00  0.00    -0.037 A 
ATOM      8  C   LIG    1        3.047  17.160  31.877  0.00  0.00    +0.008 A 
ATOM      9  C   LIG    1        1.783  17.405  32.421  0.00  0.00    +0.046 A 
BRANCH   4  10
ATOM     10  O   LIG    1       -0.098  18.878  32.628  0.00  0.00    -0.507 OA
ATOM     11  H   LIG    1       -0.217  18.357  33.439  0.00  0.00    +0.292 HD
ENDBRANCH   4  10
ENDBRANCH   1   7
BRANCH   1  12
ATOM     12  C   LIG    1        5.408  18.741  29.304  0.00  0.00    -0.037 A 
ATOM     13  C   LIG    1        6.289  19.827  29.485  0.00  0.00    +0.008 A 
ATOM     14  C   LIG    1        6.650  20.657  28.421  0.00  0.00    +0.046 A 
ATOM     15  C   LIG    1        6.156  20.402  27.152  0.00  0.00    +0.117 A 
ATOM     16  C   LIG    1        5.287  19.341  26.934  0.00  0.00    +0.046 A 
ATOM     17  C   LIG    1        4.912  18.520  28.005  0.00  0.00    +0.008 A 
BRANCH  15  18
ATOM     18  O   LIG    1        6.563  21.211  26.134  0.00  0.00    -0.507 OA
ATOM     19  H   LIG    1        6.910  22.034  26.515  0.00  0.00    +0.292 HD
ENDBRANCH  15  18
ENDBRANCH   1  12
TORSDOF 4
ENDMDL
