MODEL 1
REMARK VINA RESULT:      -8.2      0.000      0.000
REMARK  Name = 
REMARK                            x       y       z     vdW  Elec       q    Type
REMARK                         _______ _______ _______ _____ _____    ______ ____
ROOT
ATOM      1  C   LIG    1       23.667 -17.983  17.412  0.00  0.00    +0.015 C 
ATOM      2  C   LIG    1       23.975 -18.463  15.966  0.00  0.00    +0.021 C 
ATOM      3  C   LIG    1       23.319 -19.287  18.184  0.00  0.00    +0.021 C 
ENDROOT
BRANCH   1   7
ATOM      4  C   LIG    1       20.235 -15.290  17.526  0.00  0.00    +0.117 A 
ATOM      5  C   LIG    1       20.184 -16.483  18.231  0.00  0.00    +0.046 A 
ATOM      6  C   LIG    1       21.283 -17.350  18.223  0.00  0.00    +0.008 A 
ATOM      7  C   LIG    1       22.449 -17.032  17.507  0.00  0.00    -0.037 A 
ATOM      8  C   LIG    1       22.469 -15.805  16.808  0.00  0.00    +0.008 A 
ATOM      9  C   LIG    1       21.373 -14.937  16.816  0.00  0.00    +0.046 A 
BRANCH   4  10
ATOM     10  O   LIG    1       19.134 -14.485  17.547  0.00  0.00    -0.507 OA
ATOM     11  H   LIG    1       19.260 -13.812  18.235  0.00  0.00    +0.292 HD
ENDBRANCH   4  10
ENDBRANCH   1   7
BRANCH   1  12
ATOM     12  C   LIG    1       24.916 -17.253  17.970  0.00  0.00    -0.037 A 
ATOM     13  C   LIG    1       25.082 -17.108  19.363  0.00  0.00    +0.008 A 
ATOM     14  C   LIG    1       26.232 -16.529  19.904  0.00  0.00    +0.046 A 
ATOM     15  C   LIG    1       27.248 -16.106  19.063  0.00  0.00    +0.117 A 
ATOM     16  C   LIG    1       27.122 -16.232  17.686  0.00  0.00    +0.046 A 
ATOM     17  C   LIG    1       25.961 -16.797  17.144  0.00  0.00    +0.008 A 
BRANCH  15  18
ATOM     18  O   LIG    1       28.370 -15.581  19.631  0.00  0.00    -0.507 OA
ATOM     19  H   LIG    1       28.796 -16.272  20.164  0.00  0.00    +0.292 HD
ENDBRANCH  15  18
ENDBRANCH   1  12
TORSDOF 4
ENDMDL
MODEL 2
REMARK VINA RESULT:      -8.2      0.097      5.721
REMARK  Name = 
REMARK                            x       y       z     vdW  Elec       q    Type
REMARK                         _______ _______ _______ _____ _____    ______ ____
ROOT
ATOM      1  C   LIG    1       23.727 -18.031  17.479  0.00  0.00    +0.015 C 
ATOM      2  C   LIG    1       23.392 -19.341  18.246  0.00  0.00    +0.021 C 
ATOM      3  C   LIG    1       24.021 -18.502  16.026  0.00  0.00    +0.021 C 
ENDROOT
BRANCH   1   7
ATOM      4  C   LIG    1       27.301 -16.096  19.069  0.00  0.00    +0.117 A 
ATOM      5  C   LIG    1       27.150 -16.217  17.696  0.00  0.00    +0.046 A 
ATOM      6  C   LIG    1       26.001 -16.816  17.166  0.00  0.00    +0.008 A 
ATOM      7  C   LIG    1       24.987 -17.304  18.008  0.00  0.00    -0.037 A 
ATOM      8  C   LIG    1       25.171 -17.155  19.401  0.00  0.00    +0.008 A 
ATOM      9  C   LIG    1       26.317 -16.556  19.931  0.00  0.00    +0.046 A 
BRANCH   4  10
ATOM     10  O   LIG    1       28.445 -15.523  19.540  0.00  0.00    -0.507 OA
ATOM     11  H   LIG    1       28.252 -15.116  20.400  0.00  0.00    +0.292 HD
ENDBRANCH   4  10
ENDBRANCH   1   7
BRANCH   1  12
ATOM     12  C   LIG    1       22.514 -17.071  17.581  0.00  0.00    -0.037 A 
ATOM     13  C   LIG    1       22.496 -15.878  16.829  0.00  0.00    +0.008 A 
ATOM     14  C   LIG    1       21.387 -15.030  16.835  0.00  0.00    +0.046 A 
ATOM     15  C   LIG    1       20.265 -15.371  17.573  0.00  0.00    +0.117 A 
ATOM     16  C   LIG    1       20.244 -16.538  18.326  0.00  0.00    +0.046 A 
ATOM     17  C   LIG    1       21.364 -17.379  18.333  0.00  0.00    +0.008 A 
BRANCH  15  18
ATOM     18  O   LIG    1       19.189 -14.537  17.521  0.00  0.00    -0.507 OA
ATOM     19  H   LIG    1       18.516 -14.939  16.949  0.00  0.00    +0.292 HD
ENDBRANCH  15  18
ENDBRANCH   1  12
TORSDOF 4
ENDMDL
MODEL 3
REMARK VINA RESULT:      -8.2      0.189      1.181
REMARK  Name = 
REMARK                            x       y       z     vdW  Elec       q    Type
REMARK                         _______ _______ _______ _____ _____    ______ ____
ROOT
ATOM      1  C   LIG    1       23.741 -18.123  17.489  0.00  0.00    +0.015 C 
ATOM      2  C   LIG    1       24.063 -18.624  16.053  0.00  0.00    +0.021 C 
ATOM      3  C   LIG    1       23.359 -19.413  18.268  0.00  0.00    +0.021 C 
ENDROOT
BRANCH   1   7
ATOM      4  C   LIG    1       20.348 -15.378  17.520  0.00  0.00    +0.117 A 
ATOM      5  C   LIG    1       20.291 -16.536  18.281  0.00  0.00    +0.046 A 
ATOM      6  C   LIG    1       21.377 -17.419  18.300  0.00  0.00    +0.008 A 
ATOM      7  C   LIG    1       22.537 -17.152  17.554  0.00  0.00    -0.037 A 
ATOM      8  C   LIG    1       22.564 -15.959  16.798  0.00  0.00    +0.008 A 
ATOM      9  C   LIG    1       21.481 -15.076  16.779  0.00  0.00    +0.046 A 
BRANCH   4  10
ATOM     10  O   LIG    1       19.258 -14.558  17.517  0.00  0.00    -0.507 OA
ATOM     11  H   LIG    1       18.665 -14.836  18.234  0.00  0.00    +0.292 HD
ENDBRANCH   4  10
ENDBRANCH   1   7
BRANCH   1  12
ATOM     12  C   LIG    1       24.993 -17.408  18.058  0.00  0.00    -0.037 A 
ATOM     13  C   LIG    1       26.007 -16.962  17.184  0.00  0.00    +0.008 A 
ATOM     14  C   LIG    1       27.109 -16.244  17.653  0.00  0.00    +0.046 A 
ATOM     15  C   LIG    1       27.206 -15.937  19.000  0.00  0.00    +0.117 A 
ATOM     16  C   LIG    1       26.227 -16.356  19.892  0.00  0.00    +0.046 A 
ATOM     17  C   LIG    1       25.132 -17.092  19.423  0.00  0.00    +0.008 A 
BRANCH  15  18
ATOM     18  O   LIG    1       28.277 -15.201  19.411  0.00  0.00    -0.507 OA
ATOM     19  H   LIG    1       27.957 -14.492  19.993  0.00  0.00    +0.292 HD
ENDBRANCH  15  18
ENDBRANCH   1  12
TORSDOF 4
ENDMDL
MODEL 4
REMARK VINA RESULT:      -8.1      0.213      5.435
REMARK  Name = 
REMARK                            x       y       z     vdW  Elec       q    Type
REMARK                         _______ _______ _______ _____ _____    ______ ____
ROOT
ATOM      1  C   LIG    1       23.731 -18.140  17.466  0.00  0.00    +0.015 C 
ATOM      2  C   LIG    1       23.356 -19.424  18.257  0.00  0.00    +0.021 C 
ATOM      3  C   LIG    1       24.124 -18.660  16.054  0.00  0.00    +0.021 C 
ENDROOT
BRANCH   1   7
ATOM      4  C   LIG    1       27.143 -15.893  19.002  0.00  0.00    +0.117 A 
ATOM      5  C   LIG    1       26.162 -16.324  19.883  0.00  0.00    +0.046 A 
ATOM      6  C   LIG    1       25.071 -17.063  19.413  0.00  0.00    +0.008 A 
ATOM      7  C   LIG    1       24.948 -17.381  18.049  0.00  0.00    -0.037 A 
ATOM      8  C   LIG    1       25.970 -16.934  17.183  0.00  0.00    +0.008 A 
ATOM      9  C   LIG    1       27.061 -16.197  17.652  0.00  0.00    +0.046 A 
BRANCH   4  10
ATOM     10  O   LIG    1       28.177 -15.160  19.503  0.00  0.00    -0.507 OA
ATOM     11  H   LIG    1       28.945 -15.276  18.920  0.00  0.00    +0.292 HD
ENDBRANCH   4  10
ENDBRANCH   1   7
BRANCH   1  12
ATOM     12  C   LIG    1       22.507 -17.189  17.453  0.00  0.00    -0.037 A 
ATOM     13  C   LIG    1       21.381 -17.482  18.250  0.00  0.00    +0.008 A 
ATOM     14  C   LIG    1       20.294 -16.608  18.325  0.00  0.00    +0.046 A 
ATOM     15  C   LIG    1       20.324 -15.414  17.624  0.00  0.00    +0.117 A 
ATOM     16  C   LIG    1       21.415 -15.089  16.829  0.00  0.00    +0.046 A 
ATOM     17  C   LIG    1       22.496 -15.974  16.741  0.00  0.00    +0.008 A 
BRANCH  15  18
ATOM     18  O   LIG    1       19.261 -14.571  17.755  0.00  0.00    -0.507 OA
ATOM     19  H   LIG    1       18.598 -14.997  18.322  0.00  0.00    +0.292 HD
ENDBRANCH  15  18
ENDBRANCH   1  12
TORSDOF 4
ENDMDL
MODEL 5
REMARK VINA RESULT:      -8.0      1.773      2.425
REMARK  Name = 
REMARK                            x       y       z     vdW  Elec       q    Type
REMARK                         _______ _______ _______ _____ _____    ______ ____
ROOT
ATOM      1  C   LIG    1       23.026 -16.641  17.582  0.00  0.00    +0.015 C 
ATOM      2  C   LIG    1       23.382 -16.583  16.070  0.00  0.00    +0.021 C 
ATOM      3  C   LIG    1       23.078 -18.156  17.930  0.00  0.00    +0.021 C 
ENDROOT
BRANCH   1   7
ATOM      4  C   LIG    1       19.062 -15.153  18.642  0.00  0.00    +0.117 A 
ATOM      5  C   LIG    1       19.654 -14.727  17.462  0.00  0.00    +0.046 A 
ATOM      6  C   LIG    1       20.916 -15.209  17.095  0.00  0.00    +0.008 A 
ATOM      7  C   LIG    1       21.603 -16.125  17.908  0.00  0.00    -0.037 A 
ATOM      8  C   LIG    1       20.967 -16.545  19.097  0.00  0.00    +0.008 A 
ATOM      9  C   LIG    1       19.706 -16.065  19.464  0.00  0.00    +0.046 A 
BRANCH   4  10
ATOM     10  O   LIG    1       17.841 -14.642  18.968  0.00  0.00    -0.507 OA
ATOM     11  H   LIG    1       17.334 -14.518  18.149  0.00  0.00    +0.292 HD
ENDBRANCH   4  10
ENDBRANCH   1   7
BRANCH   1  12
ATOM     12  C   LIG    1       24.058 -15.794  18.369  0.00  0.00    -0.037 A 
ATOM     13  C   LIG    1       24.195 -14.417  18.092  0.00  0.00    +0.008 A 
ATOM     14  C   LIG    1       25.056 -13.607  18.835  0.00  0.00    +0.046 A 
ATOM     15  C   LIG    1       25.778 -14.152  19.884  0.00  0.00    +0.117 A 
ATOM     16  C   LIG    1       25.669 -15.502  20.189  0.00  0.00    +0.046 A 
ATOM     17  C   LIG    1       24.819 -16.317  19.432  0.00  0.00    +0.008 A 
BRANCH  15  18
ATOM     18  O   LIG    1       26.577 -13.319  20.609  0.00  0.00    -0.507 OA
ATOM     19  H   LIG    1       26.539 -12.434  20.212  0.00  0.00    +0.292 HD
ENDBRANCH  15  18
ENDBRANCH   1  12
TORSDOF 4
ENDMDL
MODEL 6
REMARK VINA RESULT:      -8.0      2.527      6.319
REMARK  Name = 
REMARK                            x       y       z     vdW  Elec       q    Type
REMARK                         _______ _______ _______ _____ _____    ______ ____
ROOT
ATOM      1  C   LIG    1       21.636 -15.246  17.531  0.00  0.00    +0.015 C 
ATOM      2  C   LIG    1       21.570 -14.409  16.222  0.00  0.00    +0.021 C 
ATOM      3  C   LIG    1       22.279 -14.284  18.570  0.00  0.00    +0.021 C 
ENDROOT
BRANCH   1   7
ATOM      4  C   LIG    1       24.246 -18.719  17.110  0.00  0.00    +0.117 A 
ATOM      5  C   LIG    1       24.058 -18.160  18.365  0.00  0.00    +0.046 A 
ATOM      6  C   LIG    1       23.209 -17.059  18.524  0.00  0.00    +0.008 A 
ATOM      7  C   LIG    1       22.536 -16.502  17.423  0.00  0.00    -0.037 A 
ATOM      8  C   LIG    1       22.743 -17.102  16.162  0.00  0.00    +0.008 A 
ATOM      9  C   LIG    1       23.590 -18.203  16.002  0.00  0.00    +0.046 A 
BRANCH   4  10
ATOM     10  O   LIG    1       25.097 -19.779  17.001  0.00  0.00    -0.507 OA
ATOM     11  H   LIG    1       24.822 -20.458  17.638  0.00  0.00    +0.292 HD
ENDBRANCH   4  10
ENDBRANCH   1   7
BRANCH   1  12
ATOM     12  C   LIG    1       20.200 -15.690  17.910  0.00  0.00    -0.037 A 
ATOM     13  C   LIG    1       19.966 -17.007  18.357  0.00  0.00    +0.008 A 
ATOM     14  C   LIG    1       18.701 -17.418  18.783  0.00  0.00    +0.046 A 
ATOM     15  C   LIG    1       17.652 -16.514  18.792  0.00  0.00    +0.117 A 
ATOM     16  C   LIG    1       17.843 -15.208  18.361  0.00  0.00    +0.046 A 
ATOM     17  C   LIG    1       19.108 -14.802  17.918  0.00  0.00    +0.008 A 
BRANCH  15  18
ATOM     18  O   LIG    1       16.443 -16.943  19.252  0.00  0.00    -0.507 OA
ATOM     19  H   LIG    1       16.347 -17.884  19.030  0.00  0.00    +0.292 HD
ENDBRANCH  15  18
ENDBRANCH   1  12
TORSDOF 4
ENDMDL
MODEL 7
REMARK VINA RESULT:      -8.0      2.624      4.093
REMARK  Name = 
REMARK                            x       y       z     vdW  Elec       q    Type
REMARK                         _______ _______ _______ _____ _____    ______ ____
ROOT
ATOM      1  C   LIG    1       21.550 -15.256  17.555  0.00  0.00    +0.015 C 
ATOM      2  C   LIG    1       22.214 -14.325  18.608  0.00  0.00    +0.021 C 
ATOM      3  C   LIG    1       21.513 -14.402  16.256  0.00  0.00    +0.021 C 
ENDROOT
BRANCH   1   7
ATOM      4  C   LIG    1       17.501 -16.445  18.669  0.00  0.00    +0.117 A 
ATOM      5  C   LIG    1       17.742 -15.134  18.287  0.00  0.00    +0.046 A 
ATOM      6  C   LIG    1       19.029 -14.739  17.906  0.00  0.00    +0.008 A 
ATOM      7  C   LIG    1       20.095 -15.654  17.905  0.00  0.00    -0.037 A 
ATOM      8  C   LIG    1       19.812 -16.983  18.291  0.00  0.00    +0.008 A 
ATOM      9  C   LIG    1       18.526 -17.379  18.670  0.00  0.00    +0.046 A 
BRANCH   4  10
ATOM     10  O   LIG    1       16.235 -16.780  19.050  0.00  0.00    -0.507 OA
ATOM     11  H   LIG    1       15.954 -17.551  18.531  0.00  0.00    +0.292 HD
ENDBRANCH   4  10
ENDBRANCH   1   7
BRANCH   1  12
ATOM     12  C   LIG    1       22.403 -16.543  17.421  0.00  0.00    -0.037 A 
ATOM     13  C   LIG    1       22.666 -17.083  16.145  0.00  0.00    +0.008 A 
ATOM     14  C   LIG    1       23.496 -18.194  15.980  0.00  0.00    +0.046 A 
ATOM     15  C   LIG    1       24.098 -18.771  17.086  0.00  0.00    +0.117 A 
ATOM     16  C   LIG    1       23.865 -18.268  18.359  0.00  0.00    +0.046 A 
ATOM     17  C   LIG    1       23.018 -17.164  18.524  0.00  0.00    +0.008 A 
BRANCH  15  18
ATOM     18  O   LIG    1       24.932 -19.829  16.879  0.00  0.00    -0.507 OA
ATOM     19  H   LIG    1       25.553 -19.597  16.170  0.00  0.00    +0.292 HD
ENDBRANCH  15  18
ENDBRANCH   1  12
TORSDOF 4
ENDMDL
MODEL 8
REMARK VINA RESULT:      -7.9      1.718      2.828
REMARK  Name = 
REMARK                            x       y       z     vdW  Elec       q    Type
REMARK                         _______ _______ _______ _____ _____    ______ ____
ROOT
ATOM      1  C   LIG    1       22.289 -15.533  17.241  0.00  0.00    +0.015 C 
ATOM      2  C   LIG    1       22.261 -13.999  16.988  0.00  0.00    +0.021 C 
ATOM      3  C   LIG    1       22.385 -16.155  15.819  0.00  0.00    +0.021 C 
ENDROOT
BRANCH   1   7
ATOM      4  C   LIG    1       18.588 -17.022  19.011  0.00  0.00    +0.117 A 
ATOM      5  C   LIG    1       19.711 -17.834  19.005  0.00  0.00    +0.046 A 
ATOM      6  C   LIG    1       20.913 -17.367  18.460  0.00  0.00    +0.008 A 
ATOM      7  C   LIG    1       21.004 -16.076  17.913  0.00  0.00    -0.037 A 
ATOM      8  C   LIG    1       19.843 -15.273  17.945  0.00  0.00    +0.008 A 
ATOM      9  C   LIG    1       18.643 -15.738  18.490  0.00  0.00    +0.046 A 
BRANCH   4  10
ATOM     10  O   LIG    1       17.435 -17.526  19.535  0.00  0.00    -0.507 OA
ATOM     11  H   LIG    1       16.782 -17.603  18.821  0.00  0.00    +0.292 HD
ENDBRANCH   4  10
ENDBRANCH   1   7
BRANCH   1  12
ATOM     12  C   LIG    1       23.505 -15.866  18.142  0.00  0.00    -0.037 A 
ATOM     13  C   LIG    1       24.392 -16.899  17.772  0.00  0.00    +0.008 A 
ATOM     14  C   LIG    1       25.541 -17.173  18.517  0.00  0.00    +0.046 A 
ATOM     15  C   LIG    1       25.838 -16.405  19.630  0.00  0.00    +0.117 A 
ATOM     16  C   LIG    1       24.990 -15.378  20.025  0.00  0.00    +0.046 A 
ATOM     17  C   LIG    1       23.829 -15.116  19.288  0.00  0.00    +0.008 A 
BRANCH  15  18
ATOM     18  O   LIG    1       26.989 -16.679  20.307  0.00  0.00    -0.507 OA
ATOM     19  H   LIG    1       26.890 -16.367  21.221  0.00  0.00    +0.292 HD
ENDBRANCH  15  18
ENDBRANCH   1  12
TORSDOF 4
ENDMDL
MODEL 9
REMARK VINA RESULT:      -7.9      1.775      5.939
REMARK  Name = 
REMARK                            x       y       z     vdW  Elec       q    Type
REMARK                         _______ _______ _______ _____ _____    ______ ____
ROOT
ATOM      1  C   LIG    1       25.115 -16.468  17.862  0.00  0.00    +0.015 C 
ATOM      2  C   LIG    1       25.116 -17.764  18.721  0.00  0.00    +0.021 C 
ATOM      3  C   LIG    1       25.657 -16.924  16.478  0.00  0.00    +0.021 C 
ENDROOT
BRANCH   1   7
ATOM      4  C   LIG    1       27.879 -13.414  19.305  0.00  0.00    +0.117 A 
ATOM      5  C   LIG    1       26.655 -13.028  18.782  0.00  0.00    +0.046 A 
ATOM      6  C   LIG    1       25.746 -13.993  18.332  0.00  0.00    +0.008 A 
ATOM      7  C   LIG    1       26.054 -15.362  18.402  0.00  0.00    -0.037 A 
ATOM      8  C   LIG    1       27.306 -15.720  18.950  0.00  0.00    +0.008 A 
ATOM      9  C   LIG    1       28.214 -14.757  19.400  0.00  0.00    +0.046 A 
BRANCH   4  10
ATOM     10  O   LIG    1       28.739 -12.438  19.713  0.00  0.00    -0.507 OA
ATOM     11  H   LIG    1       28.220 -11.653  19.952  0.00  0.00    +0.292 HD
ENDBRANCH   4  10
ENDBRANCH   1   7
BRANCH   1  12
ATOM     12  C   LIG    1       23.669 -15.912  17.804  0.00  0.00    -0.037 A 
ATOM     13  C   LIG    1       23.101 -15.560  16.562  0.00  0.00    +0.008 A 
ATOM     14  C   LIG    1       21.775 -15.132  16.463  0.00  0.00    +0.046 A 
ATOM     15  C   LIG    1       20.985 -15.072  17.599  0.00  0.00    +0.117 A 
ATOM     16  C   LIG    1       21.508 -15.412  18.840  0.00  0.00    +0.046 A 
ATOM     17  C   LIG    1       22.843 -15.824  18.941  0.00  0.00    +0.008 A 
BRANCH  15  18
ATOM     18  O   LIG    1       19.686 -14.688  17.454  0.00  0.00    -0.507 OA
ATOM     19  H   LIG    1       19.200 -15.405  17.015  0.00  0.00    +0.292 HD
ENDBRANCH  15  18
ENDBRANCH   1  12
TORSDOF 4
ENDMDL
