MODEL 1
REMARK VINA RESULT:      -7.7      0.000      0.000
REMARK  Name = 
REMARK                            x       y       z     vdW  Elec       q    Type
REMARK                         _______ _______ _______ _____ _____    ______ ____
ROOT
ATOM      1  C   LIG    1        3.953   7.385  -2.349  0.00  0.00    +0.015 C 
ATOM      2  C   LIG    1        5.132   6.372  -2.385  0.00  0.00    +0.021 C 
ATOM      3  C   LIG    1        4.521   8.608  -1.575  0.00  0.00    +0.021 C 
ENDROOT
BRANCH   1   7
ATOM      4  C   LIG    1        0.438   6.070  -0.119  0.00  0.00    +0.117 A 
ATOM      5  C   LIG    1        0.530   5.782  -1.473  0.00  0.00    +0.046 A 
ATOM      6  C   LIG    1        1.658   6.177  -2.200  0.00  0.00    +0.008 A 
ATOM      7  C   LIG    1        2.712   6.869  -1.580  0.00  0.00    -0.037 A 
ATOM      8  C   LIG    1        2.589   7.138  -0.198  0.00  0.00    +0.008 A 
ATOM      9  C   LIG    1        1.463   6.742   0.530  0.00  0.00    +0.046 A 
BRANCH   4  10
ATOM     10  O   LIG    1       -0.688   5.682   0.544  0.00  0.00    -0.507 OA
ATOM     11  H   LIG    1       -0.423   5.283   1.388  0.00  0.00    +0.292 HD
ENDBRANCH   4  10
ENDBRANCH   1   7
BRANCH   1  12
ATOM     12  C   LIG    1        3.537   7.716  -3.805  0.00  0.00    -0.037 A 
ATOM     13  C   LIG    1        3.214   9.043  -4.159  0.00  0.00    +0.008 A 
ATOM     14  C   LIG    1        2.914   9.392  -5.478  0.00  0.00    +0.046 A 
ATOM     15  C   LIG    1        2.955   8.427  -6.470  0.00  0.00    +0.117 A 
ATOM     16  C   LIG    1        3.269   7.110  -6.161  0.00  0.00    +0.046 A 
ATOM     17  C   LIG    1        3.553   6.758  -4.836  0.00  0.00    +0.008 A 
BRANCH  15  18
ATOM     18  O   LIG    1        2.693   8.816  -7.750  0.00  0.00    -0.507 OA
ATOM     19  H   LIG    1        1.804   9.204  -7.778  0.00  0.00    +0.292 HD
ENDBRANCH  15  18
ENDBRANCH   1  12
TORSDOF 4
ENDMDL
MODEL 2
REMARK VINA RESULT:      -7.6      0.083      5.523
REMARK  Name = 
REMARK                            x       y       z     vdW  Elec       q    Type
REMARK                         _______ _______ _______ _____ _____    ______ ____
ROOT
ATOM      1  C   LIG    1        3.966   7.385  -2.327  0.00  0.00    +0.015 C 
ATOM      2  C   LIG    1        4.546   8.581  -1.521  0.00  0.00    +0.021 C 
ATOM      3  C   LIG    1        5.142   6.371  -2.407  0.00  0.00    +0.021 C 
ENDROOT
BRANCH   1   7
ATOM      4  C   LIG    1        2.899   8.531  -6.401  0.00  0.00    +0.117 A 
ATOM      5  C   LIG    1        3.177   7.201  -6.121  0.00  0.00    +0.046 A 
ATOM      6  C   LIG    1        3.501   6.811  -4.817  0.00  0.00    +0.008 A 
ATOM      7  C   LIG    1        3.551   7.750  -3.773  0.00  0.00    -0.037 A 
ATOM      8  C   LIG    1        3.253   9.093  -4.092  0.00  0.00    +0.008 A 
ATOM      9  C   LIG    1        2.928   9.484  -5.394  0.00  0.00    +0.046 A 
BRANCH   4  10
ATOM     10  O   LIG    1        2.607   8.867  -7.689  0.00  0.00    -0.507 OA
ATOM     11  H   LIG    1        3.052   9.704  -7.895  0.00  0.00    +0.292 HD
ENDBRANCH   4  10
ENDBRANCH   1   7
BRANCH   1  12
ATOM     12  C   LIG    1        2.727   6.833  -1.575  0.00  0.00    -0.037 A 
ATOM     13  C   LIG    1        2.567   7.093  -0.198  0.00  0.00    +0.008 A 
ATOM     14  C   LIG    1        1.425   6.681   0.492  0.00  0.00    +0.046 A 
ATOM     15  C   LIG    1        0.413   6.022  -0.185  0.00  0.00    +0.117 A 
ATOM     16  C   LIG    1        0.533   5.749  -1.541  0.00  0.00    +0.046 A 
ATOM     17  C   LIG    1        1.686   6.147  -2.229  0.00  0.00    +0.008 A 
BRANCH  15  18
ATOM     18  O   LIG    1       -0.702   5.672   0.517  0.00  0.00    -0.507 OA
ATOM     19  H   LIG    1       -1.483   5.957   0.016  0.00  0.00    +0.292 HD
ENDBRANCH  15  18
ENDBRANCH   1  12
TORSDOF 4
ENDMDL
MODEL 3
REMARK VINA RESULT:      -7.3      2.747      3.867
REMARK  Name = 
REMARK                            x       y       z     vdW  Elec       q    Type
REMARK                         _______ _______ _______ _____ _____    ______ ____
ROOT
ATOM      1  C   LIG    1        3.970   7.530  -4.695  0.00  0.00    +0.015 C 
ATOM      2  C   LIG    1        2.654   7.502  -5.522  0.00  0.00    +0.021 C 
ATOM      3  C   LIG    1        5.062   7.054  -5.695  0.00  0.00    +0.021 C 
ENDROOT
BRANCH   1   7
ATOM      4  C   LIG    1        4.035   4.897  -1.214  0.00  0.00    +0.117 A 
ATOM      5  C   LIG    1        2.863   5.030  -1.943  0.00  0.00    +0.046 A 
ATOM      6  C   LIG    1        2.828   5.853  -3.074  0.00  0.00    +0.008 A 
ATOM      7  C   LIG    1        3.970   6.557  -3.490  0.00  0.00    -0.037 A 
ATOM      8  C   LIG    1        5.149   6.392  -2.730  0.00  0.00    +0.008 A 
ATOM      9  C   LIG    1        5.186   5.569  -1.601  0.00  0.00    +0.046 A 
BRANCH   4  10
ATOM     10  O   LIG    1        4.017   4.099  -0.109  0.00  0.00    -0.507 OA
ATOM     11  H   LIG    1        4.733   4.380   0.483  0.00  0.00    +0.292 HD
ENDBRANCH   4  10
ENDBRANCH   1   7
BRANCH   1  12
ATOM     12  C   LIG    1        4.200   8.972  -4.174  0.00  0.00    -0.037 A 
ATOM     13  C   LIG    1        3.618   9.380  -2.956  0.00  0.00    +0.008 A 
ATOM     14  C   LIG    1        3.869  10.644  -2.416  0.00  0.00    +0.046 A 
ATOM     15  C   LIG    1        4.724  11.513  -3.072  0.00  0.00    +0.117 A 
ATOM     16  C   LIG    1        5.318  11.147  -4.273  0.00  0.00    +0.046 A 
ATOM     17  C   LIG    1        5.052   9.887  -4.822  0.00  0.00    +0.008 A 
BRANCH  15  18
ATOM     18  O   LIG    1        4.973  12.722  -2.493  0.00  0.00    -0.507 OA
ATOM     19  H   LIG    1        4.515  13.408  -3.005  0.00  0.00    +0.292 HD
ENDBRANCH  15  18
ENDBRANCH   1  12
TORSDOF 4
ENDMDL
MODEL 4
REMARK VINA RESULT:      -7.3      2.767      5.573
REMARK  Name = 
REMARK                            x       y       z     vdW  Elec       q    Type
REMARK                         _______ _______ _______ _____ _____    ______ ____
ROOT
ATOM      1  C   LIG    1        3.963   7.643  -4.725  0.00  0.00    +0.015 C 
ATOM      2  C   LIG    1        5.029   7.201  -5.767  0.00  0.00    +0.021 C 
ATOM      3  C   LIG    1        2.631   7.671  -5.526  0.00  0.00    +0.021 C 
ENDROOT
BRANCH   1   7
ATOM      4  C   LIG    1        4.661  11.576  -2.966  0.00  0.00    +0.117 A 
ATOM      5  C   LIG    1        5.353  11.213  -4.112  0.00  0.00    +0.046 A 
ATOM      6  C   LIG    1        5.128   9.964  -4.703  0.00  0.00    +0.008 A 
ATOM      7  C   LIG    1        4.205   9.061  -4.150  0.00  0.00    -0.037 A 
ATOM      8  C   LIG    1        3.512   9.467  -2.989  0.00  0.00    +0.008 A 
ATOM      9  C   LIG    1        3.735  10.715  -2.399  0.00  0.00    +0.046 A 
BRANCH   4  10
ATOM     10  O   LIG    1        4.927  12.795  -2.416  0.00  0.00    -0.507 OA
ATOM     11  H   LIG    1        4.207  13.018  -1.804  0.00  0.00    +0.292 HD
ENDBRANCH   4  10
ENDBRANCH   1   7
BRANCH   1  12
ATOM     12  C   LIG    1        3.957   6.624  -3.557  0.00  0.00    -0.037 A 
ATOM     13  C   LIG    1        5.111   6.457  -2.763  0.00  0.00    +0.008 A 
ATOM     14  C   LIG    1        5.116   5.608  -1.654  0.00  0.00    +0.046 A 
ATOM     15  C   LIG    1        3.961   4.929  -1.304  0.00  0.00    +0.117 A 
ATOM     16  C   LIG    1        2.805   5.068  -2.060  0.00  0.00    +0.046 A 
ATOM     17  C   LIG    1        2.806   5.906  -3.182  0.00  0.00    +0.008 A 
BRANCH  15  18
ATOM     18  O   LIG    1        3.996   4.141  -0.193  0.00  0.00    -0.507 OA
ATOM     19  H   LIG    1        4.580   3.385  -0.370  0.00  0.00    +0.292 HD
ENDBRANCH  15  18
ENDBRANCH   1  12
TORSDOF 4
ENDMDL
MODEL 5
REMARK VINA RESULT:      -7.3      1.938      2.760
REMARK  Name = 
REMARK                            x       y       z     vdW  Elec       q    Type
REMARK                         _______ _______ _______ _____ _____    ______ ____
ROOT
ATOM      1  C   LIG    1        4.245   9.109  -2.385  0.00  0.00    +0.015 C 
ATOM      2  C   LIG    1        5.628   9.794  -2.198  0.00  0.00    +0.021 C 
ATOM      3  C   LIG    1        3.248  10.054  -1.657  0.00  0.00    +0.021 C 
ENDROOT
BRANCH   1   7
ATOM      4  C   LIG    1        4.120   5.173  -0.503  0.00  0.00    +0.117 A 
ATOM      5  C   LIG    1        3.229   6.151  -0.089  0.00  0.00    +0.046 A 
ATOM      6  C   LIG    1        3.240   7.413  -0.694  0.00  0.00    +0.008 A 
ATOM      7  C   LIG    1        4.147   7.712  -1.725  0.00  0.00    -0.037 A 
ATOM      8  C   LIG    1        5.033   6.689  -2.128  0.00  0.00    +0.008 A 
ATOM      9  C   LIG    1        5.023   5.428  -1.525  0.00  0.00    +0.046 A 
BRANCH   4  10
ATOM     10  O   LIG    1        4.086   3.965   0.128  0.00  0.00    -0.507 OA
ATOM     11  H   LIG    1        3.359   3.977   0.771  0.00  0.00    +0.292 HD
ENDBRANCH   4  10
ENDBRANCH   1   7
BRANCH   1  12
ATOM     12  C   LIG    1        3.962   8.967  -3.902  0.00  0.00    -0.037 A 
ATOM     13  C   LIG    1        3.008   8.032  -4.355  0.00  0.00    +0.008 A 
ATOM     14  C   LIG    1        2.670   7.933  -5.706  0.00  0.00    +0.046 A 
ATOM     15  C   LIG    1        3.260   8.784  -6.627  0.00  0.00    +0.117 A 
ATOM     16  C   LIG    1        4.203   9.719  -6.219  0.00  0.00    +0.046 A 
ATOM     17  C   LIG    1        4.554   9.805  -4.867  0.00  0.00    +0.008 A 
BRANCH  15  18
ATOM     18  O   LIG    1        2.874   8.682  -7.930  0.00  0.00    -0.507 OA
ATOM     19  H   LIG    1        3.456   8.044  -8.374  0.00  0.00    +0.292 HD
ENDBRANCH  15  18
ENDBRANCH   1  12
TORSDOF 4
ENDMDL
MODEL 6
REMARK VINA RESULT:      -7.3      1.957      3.075
REMARK  Name = 
REMARK                            x       y       z     vdW  Elec       q    Type
REMARK                         _______ _______ _______ _____ _____    ______ ____
ROOT
ATOM      1  C   LIG    1        3.508   6.910  -2.398  0.00  0.00    +0.015 C 
ATOM      2  C   LIG    1        3.408   6.338  -3.841  0.00  0.00    +0.021 C 
ATOM      3  C   LIG    1        4.728   6.172  -1.777  0.00  0.00    +0.021 C 
ENDROOT
BRANCH   1   7
ATOM      4  C   LIG    1        0.015   5.911   0.020  0.00  0.00    +0.117 A 
ATOM      5  C   LIG    1        1.100   6.532   0.620  0.00  0.00    +0.046 A 
ATOM      6  C   LIG    1        2.221   6.879  -0.143  0.00  0.00    +0.008 A 
ATOM      7  C   LIG    1        2.270   6.606  -1.520  0.00  0.00    -0.037 A 
ATOM      8  C   LIG    1        1.143   5.981  -2.100  0.00  0.00    +0.008 A 
ATOM      9  C   LIG    1        0.023   5.635  -1.339  0.00  0.00    +0.046 A 
BRANCH   4  10
ATOM     10  O   LIG    1       -1.047   5.574   0.806  0.00  0.00    -0.507 OA
ATOM     11  H   LIG    1       -1.430   4.750   0.466  0.00  0.00    +0.292 HD
ENDBRANCH   4  10
ENDBRANCH   1   7
BRANCH   1  12
ATOM     12  C   LIG    1        3.697   8.446  -2.484  0.00  0.00    -0.037 A 
ATOM     13  C   LIG    1        3.422   9.121  -3.692  0.00  0.00    +0.008 A 
ATOM     14  C   LIG    1        3.503  10.513  -3.783  0.00  0.00    +0.046 A 
ATOM     15  C   LIG    1        3.836  11.256  -2.662  0.00  0.00    +0.117 A 
ATOM     16  C   LIG    1        4.112  10.628  -1.455  0.00  0.00    +0.046 A 
ATOM     17  C   LIG    1        4.048   9.232  -1.370  0.00  0.00    +0.008 A 
BRANCH  15  18
ATOM     18  O   LIG    1        3.866  12.613  -2.783  0.00  0.00    -0.507 OA
ATOM     19  H   LIG    1        2.953  12.944  -2.760  0.00  0.00    +0.292 HD
ENDBRANCH  15  18
ENDBRANCH   1  12
TORSDOF 4
ENDMDL
MODEL 7
REMARK VINA RESULT:      -7.2      1.950      5.664
REMARK  Name = 
REMARK                            x       y       z     vdW  Elec       q    Type
REMARK                         _______ _______ _______ _____ _____    ______ ____
ROOT
ATOM      1  C   LIG    1        3.498   6.956  -2.414  0.00  0.00    +0.015 C 
ATOM      2  C   LIG    1        4.723   6.219  -1.802  0.00  0.00    +0.021 C 
ATOM      3  C   LIG    1        3.400   6.398  -3.862  0.00  0.00    +0.021 C 
ENDROOT
BRANCH   1   7
ATOM      4  C   LIG    1        3.864  11.293  -2.739  0.00  0.00    +0.117 A 
ATOM      5  C   LIG    1        4.151  10.677  -1.530  0.00  0.00    +0.046 A 
ATOM      6  C   LIG    1        4.059   9.285  -1.412  0.00  0.00    +0.008 A 
ATOM      7  C   LIG    1        3.677   8.491  -2.506  0.00  0.00    -0.037 A 
ATOM      8  C   LIG    1        3.402   9.152  -3.724  0.00  0.00    +0.008 A 
ATOM      9  C   LIG    1        3.495  10.541  -3.844  0.00  0.00    +0.046 A 
BRANCH   4  10
ATOM     10  O   LIG    1        3.949  12.653  -2.802  0.00  0.00    -0.507 OA
ATOM     11  H   LIG    1        3.850  13.007  -1.903  0.00  0.00    +0.292 HD
ENDBRANCH   4  10
ENDBRANCH   1   7
BRANCH   1  12
ATOM     12  C   LIG    1        2.249   6.649  -1.550  0.00  0.00    -0.037 A 
ATOM     13  C   LIG    1        1.140   5.994  -2.125  0.00  0.00    +0.008 A 
ATOM     14  C   LIG    1        0.032   5.629  -1.357  0.00  0.00    +0.046 A 
ATOM     15  C   LIG    1        0.022   5.890   0.003  0.00  0.00    +0.117 A 
ATOM     16  C   LIG    1        1.095   6.532   0.606  0.00  0.00    +0.046 A 
ATOM     17  C   LIG    1        2.199   6.913  -0.168  0.00  0.00    +0.008 A 
BRANCH  15  18
ATOM     18  O   LIG    1       -1.062   5.483   0.723  0.00  0.00    -0.507 OA
ATOM     19  H   LIG    1       -0.747   5.018   1.515  0.00  0.00    +0.292 HD
ENDBRANCH  15  18
ENDBRANCH   1  12
TORSDOF 4
ENDMDL
MODEL 8
REMARK VINA RESULT:      -7.0      3.731      5.093
REMARK  Name = 
REMARK                            x       y       z     vdW  Elec       q    Type
REMARK                         _______ _______ _______ _____ _____    ______ ____
ROOT
ATOM      1  C   LIG    1        3.528   7.992  -5.101  0.00  0.00    +0.015 C 
ATOM      2  C   LIG    1        2.392   8.221  -6.137  0.00  0.00    +0.021 C 
ATOM      3  C   LIG    1        2.961   6.907  -4.143  0.00  0.00    +0.021 C 
ENDROOT
BRANCH   1   7
ATOM      4  C   LIG    1        4.621  11.487  -2.726  0.00  0.00    +0.117 A 
ATOM      5  C   LIG    1        3.786  11.645  -3.821  0.00  0.00    +0.046 A 
ATOM      6  C   LIG    1        3.407  10.534  -4.583  0.00  0.00    +0.008 A 
ATOM      7  C   LIG    1        3.864   9.245  -4.257  0.00  0.00    -0.037 A 
ATOM      8  C   LIG    1        4.706   9.120  -3.130  0.00  0.00    +0.008 A 
ATOM      9  C   LIG    1        5.083  10.229  -2.367  0.00  0.00    +0.046 A 
BRANCH   4  10
ATOM     10  O   LIG    1        4.979  12.600  -2.025  0.00  0.00    -0.507 OA
ATOM     11  H   LIG    1        5.361  13.242  -2.645  0.00  0.00    +0.292 HD
ENDBRANCH   4  10
ENDBRANCH   1   7
BRANCH   1  12
ATOM     12  C   LIG    1        4.805   7.540  -5.855  0.00  0.00    -0.037 A 
ATOM     13  C   LIG    1        5.585   8.489  -6.548  0.00  0.00    +0.008 A 
ATOM     14  C   LIG    1        6.784   8.132  -7.170  0.00  0.00    +0.046 A 
ATOM     15  C   LIG    1        7.236   6.825  -7.091  0.00  0.00    +0.117 A 
ATOM     16  C   LIG    1        6.497   5.862  -6.417  0.00  0.00    +0.046 A 
ATOM     17  C   LIG    1        5.287   6.218  -5.808  0.00  0.00    +0.008 A 
BRANCH  15  18
ATOM     18  O   LIG    1        8.430   6.526  -7.678  0.00  0.00    -0.507 OA
ATOM     19  H   LIG    1        8.257   5.994  -8.471  0.00  0.00    +0.292 HD
ENDBRANCH  15  18
ENDBRANCH   1  12
TORSDOF 4
ENDMDL
MODEL 9
REMARK VINA RESULT:      -7.0      3.741      6.314
REMARK  Name = 
REMARK                            x       y       z     vdW  Elec       q    Type
REMARK                         _______ _______ _______ _____ _____    ______ ____
ROOT
ATOM      1  C   LIG    1        3.570   7.890  -5.104  0.00  0.00    +0.015 C 
ATOM      2  C   LIG    1        3.034   6.803  -4.131  0.00  0.00    +0.021 C 
ATOM      3  C   LIG    1        2.442   8.047  -6.163  0.00  0.00    +0.021 C 
ENDROOT
BRANCH   1   7
ATOM      4  C   LIG    1        7.295   6.850  -7.127  0.00  0.00    +0.117 A 
ATOM      5  C   LIG    1        6.586   5.862  -6.461  0.00  0.00    +0.046 A 
ATOM      6  C   LIG    1        5.379   6.171  -5.824  0.00  0.00    +0.008 A 
ATOM      7  C   LIG    1        4.866   7.479  -5.845  0.00  0.00    -0.037 A 
ATOM      8  C   LIG    1        5.610   8.459  -6.540  0.00  0.00    +0.008 A 
ATOM      9  C   LIG    1        6.814   8.150  -7.178  0.00  0.00    +0.046 A 
BRANCH   4  10
ATOM     10  O   LIG    1        8.475   6.506  -7.717  0.00  0.00    -0.507 OA
ATOM     11  H   LIG    1        8.293   6.246  -8.634  0.00  0.00    +0.292 HD
ENDBRANCH   4  10
ENDBRANCH   1   7
BRANCH   1  12
ATOM     12  C   LIG    1        3.843   9.187  -4.299  0.00  0.00    -0.037 A 
ATOM     13  C   LIG    1        4.710   9.154  -3.187  0.00  0.00    +0.008 A 
ATOM     14  C   LIG    1        5.042  10.316  -2.488  0.00  0.00    +0.046 A 
ATOM     15  C   LIG    1        4.533  11.536  -2.902  0.00  0.00    +0.117 A 
ATOM     16  C   LIG    1        3.677  11.609  -3.993  0.00  0.00    +0.046 A 
ATOM     17  C   LIG    1        3.331  10.441  -4.683  0.00  0.00    +0.008 A 
BRANCH  15  18
ATOM     18  O   LIG    1        4.912  12.652  -2.217  0.00  0.00    -0.507 OA
ATOM     19  H   LIG    1        5.057  13.369  -2.855  0.00  0.00    +0.292 HD
ENDBRANCH  15  18
ENDBRANCH   1  12
TORSDOF 4
ENDMDL
