MODEL 1
REMARK VINA RESULT:      -8.2      0.000      0.000
REMARK  Name = 
REMARK                            x       y       z     vdW  Elec       q    Type
REMARK                         _______ _______ _______ _____ _____    ______ ____
ROOT
ATOM      1  C   LIG    1        2.894  31.952   4.196  0.00  0.00    +0.015 C 
ATOM      2  C   LIG    1        4.107  32.728   4.782  0.00  0.00    +0.021 C 
ATOM      3  C   LIG    1        2.995  32.184   2.662  0.00  0.00    +0.021 C 
ENDROOT
BRANCH   1   7
ATOM      4  C   LIG    1       -0.902  33.552   5.638  0.00  0.00    +0.117 A 
ATOM      5  C   LIG    1       -0.636  33.560   4.278  0.00  0.00    +0.046 A 
ATOM      6  C   LIG    1        0.567  33.033   3.793  0.00  0.00    +0.008 A 
ATOM      7  C   LIG    1        1.521  32.490   4.670  0.00  0.00    -0.037 A 
ATOM      8  C   LIG    1        1.213  32.490   6.048  0.00  0.00    +0.008 A 
ATOM      9  C   LIG    1        0.012  33.015   6.533  0.00  0.00    +0.046 A 
BRANCH   4  10
ATOM     10  O   LIG    1       -2.078  34.094   6.065  0.00  0.00    -0.507 OA
ATOM     11  H   LIG    1       -1.920  35.022   6.301  0.00  0.00    +0.292 HD
ENDBRANCH   4  10
ENDBRANCH   1   7
BRANCH   1  12
ATOM     12  C   LIG    1        3.015  30.461   4.602  0.00  0.00    -0.037 A 
ATOM     13  C   LIG    1        2.056  29.530   4.151  0.00  0.00    +0.008 A 
ATOM     14  C   LIG    1        2.178  28.167   4.429  0.00  0.00    +0.046 A 
ATOM     15  C   LIG    1        3.272  27.706   5.143  0.00  0.00    +0.117 A 
ATOM     16  C   LIG    1        4.237  28.592   5.604  0.00  0.00    +0.046 A 
ATOM     17  C   LIG    1        4.105  29.961   5.338  0.00  0.00    +0.008 A 
BRANCH  15  18
ATOM     18  O   LIG    1        3.374  26.365   5.361  0.00  0.00    -0.507 OA
ATOM     19  H   LIG    1        4.299  26.102   5.230  0.00  0.00    +0.292 HD
ENDBRANCH  15  18
ENDBRANCH   1  12
TORSDOF 4
ENDMDL
MODEL 2
REMARK VINA RESULT:      -8.2      0.154      5.591
REMARK  Name = 
REMARK                            x       y       z     vdW  Elec       q    Type
REMARK                         _______ _______ _______ _____ _____    ______ ____
ROOT
ATOM      1  C   LIG    1        2.858  32.025   4.166  0.00  0.00    +0.015 C 
ATOM      2  C   LIG    1        3.010  32.320   2.647  0.00  0.00    +0.021 C 
ATOM      3  C   LIG    1        4.053  32.771   4.823  0.00  0.00    +0.021 C 
ENDROOT
BRANCH   1   7
ATOM      4  C   LIG    1        3.226  27.832   5.321  0.00  0.00    +0.117 A 
ATOM      5  C   LIG    1        2.127  28.237   4.579  0.00  0.00    +0.046 A 
ATOM      6  C   LIG    1        2.001  29.573   4.181  0.00  0.00    +0.008 A 
ATOM      7  C   LIG    1        2.978  30.523   4.524  0.00  0.00    -0.037 A 
ATOM      8  C   LIG    1        4.088  30.074   5.273  0.00  0.00    +0.008 A 
ATOM      9  C   LIG    1        4.216  28.739   5.669  0.00  0.00    +0.046 A 
BRANCH   4  10
ATOM     10  O   LIG    1        3.297  26.525   5.702  0.00  0.00    -0.507 OA
ATOM     11  H   LIG    1        3.860  26.466   6.490  0.00  0.00    +0.292 HD
ENDBRANCH   4  10
ENDBRANCH   1   7
BRANCH   1  12
ATOM     12  C   LIG    1        1.475  32.543   4.637  0.00  0.00    -0.037 A 
ATOM     13  C   LIG    1        1.181  32.609   6.015  0.00  0.00    +0.008 A 
ATOM     14  C   LIG    1       -0.023  33.145   6.478  0.00  0.00    +0.046 A 
ATOM     15  C   LIG    1       -0.944  33.647   5.574  0.00  0.00    +0.117 A 
ATOM     16  C   LIG    1       -0.690  33.601   4.209  0.00  0.00    +0.046 A 
ATOM     17  C   LIG    1        0.509  33.048   3.745  0.00  0.00    +0.008 A 
BRANCH  15  18
ATOM     18  O   LIG    1       -2.089  34.197   6.068  0.00  0.00    -0.507 OA
ATOM     19  H   LIG    1       -1.849  34.948   6.635  0.00  0.00    +0.292 HD
ENDBRANCH  15  18
ENDBRANCH   1  12
TORSDOF 4
ENDMDL
MODEL 3
REMARK VINA RESULT:      -7.9      1.335      5.461
REMARK  Name = 
REMARK                            x       y       z     vdW  Elec       q    Type
REMARK                         _______ _______ _______ _____ _____    ______ ____
ROOT
ATOM      1  C   LIG    1        2.551  31.988   4.342  0.00  0.00    +0.015 C 
ATOM      2  C   LIG    1        3.148  32.121   2.912  0.00  0.00    +0.021 C 
ATOM      3  C   LIG    1        3.743  32.309   5.287  0.00  0.00    +0.021 C 
ENDROOT
BRANCH   1   7
ATOM      4  C   LIG    1        1.136  28.006   5.434  0.00  0.00    +0.117 A 
ATOM      5  C   LIG    1        0.478  28.710   4.436  0.00  0.00    +0.046 A 
ATOM      6  C   LIG    1        0.929  29.980   4.057  0.00  0.00    +0.008 A 
ATOM      7  C   LIG    1        2.048  30.562   4.676  0.00  0.00    -0.037 A 
ATOM      8  C   LIG    1        2.699  29.813   5.682  0.00  0.00    +0.008 A 
ATOM      9  C   LIG    1        2.250  28.545   6.059  0.00  0.00    +0.046 A 
BRANCH   4  10
ATOM     10  O   LIG    1        0.649  26.781   5.782  0.00  0.00    -0.507 OA
ATOM     11  H   LIG    1       -0.114  26.583   5.215  0.00  0.00    +0.292 HD
ENDBRANCH   4  10
ENDBRANCH   1   7
BRANCH   1  12
ATOM     12  C   LIG    1        1.369  32.982   4.481  0.00  0.00    -0.037 A 
ATOM     13  C   LIG    1        0.831  33.599   3.333  0.00  0.00    +0.008 A 
ATOM     14  C   LIG    1       -0.284  34.436   3.412  0.00  0.00    +0.046 A 
ATOM     15  C   LIG    1       -0.896  34.653   4.635  0.00  0.00    +0.117 A 
ATOM     16  C   LIG    1       -0.396  34.061   5.788  0.00  0.00    +0.046 A 
ATOM     17  C   LIG    1        0.732  33.236   5.711  0.00  0.00    +0.008 A 
BRANCH  15  18
ATOM     18  O   LIG    1       -2.005  35.445   4.664  0.00  0.00    -0.507 OA
ATOM     19  H   LIG    1       -1.750  36.318   5.004  0.00  0.00    +0.292 HD
ENDBRANCH  15  18
ENDBRANCH   1  12
TORSDOF 4
ENDMDL
MODEL 4
REMARK VINA RESULT:      -7.8      1.959      2.174
REMARK  Name = 
REMARK                            x       y       z     vdW  Elec       q    Type
REMARK                         _______ _______ _______ _____ _____    ______ ____
ROOT
ATOM      1  C   LIG    1        2.542  32.368   4.258  0.00  0.00    +0.015 C 
ATOM      2  C   LIG    1        3.743  32.653   5.204  0.00  0.00    +0.021 C 
ATOM      3  C   LIG    1        3.176  32.310   2.839  0.00  0.00    +0.021 C 
ENDROOT
BRANCH   1   7
ATOM      4  C   LIG    1       -0.376  35.613   4.190  0.00  0.00    +0.117 A 
ATOM      5  C   LIG    1       -0.741  34.362   3.715  0.00  0.00    +0.046 A 
ATOM      6  C   LIG    1        0.174  33.303   3.747  0.00  0.00    +0.008 A 
ATOM      7  C   LIG    1        1.471  33.485   4.257  0.00  0.00    -0.037 A 
ATOM      8  C   LIG    1        1.805  34.770   4.740  0.00  0.00    +0.008 A 
ATOM      9  C   LIG    1        0.892  35.827   4.710  0.00  0.00    +0.046 A 
BRANCH   4  10
ATOM     10  O   LIG    1       -1.294  36.618   4.120  0.00  0.00    -0.507 OA
ATOM     11  H   LIG    1       -1.311  37.076   4.976  0.00  0.00    +0.292 HD
ENDBRANCH   4  10
ENDBRANCH   1   7
BRANCH   1  12
ATOM     12  C   LIG    1        1.876  31.036   4.689  0.00  0.00    -0.037 A 
ATOM     13  C   LIG    1        1.779  29.969   3.771  0.00  0.00    +0.008 A 
ATOM     14  C   LIG    1        1.258  28.729   4.148  0.00  0.00    +0.046 A 
ATOM     15  C   LIG    1        0.848  28.525   5.455  0.00  0.00    +0.117 A 
ATOM     16  C   LIG    1        0.929  29.550   6.388  0.00  0.00    +0.046 A 
ATOM     17  C   LIG    1        1.435  30.798   6.005  0.00  0.00    +0.008 A 
BRANCH  15  18
ATOM     18  O   LIG    1        0.383  27.289   5.792  0.00  0.00    -0.507 OA
ATOM     19  H   LIG    1        0.945  26.622   5.366  0.00  0.00    +0.292 HD
ENDBRANCH  15  18
ENDBRANCH   1  12
TORSDOF 4
ENDMDL
MODEL 5
REMARK VINA RESULT:      -7.2      1.378      5.785
REMARK  Name = 
REMARK                            x       y       z     vdW  Elec       q    Type
REMARK                         _______ _______ _______ _____ _____    ______ ____
ROOT
ATOM      1  C   LIG    1        2.470  30.966   6.036  0.00  0.00    +0.015 C 
ATOM      2  C   LIG    1        3.747  31.848   6.124  0.00  0.00    +0.021 C 
ATOM      3  C   LIG    1        2.061  30.734   7.518  0.00  0.00    +0.021 C 
ENDROOT
BRANCH   1   7
ATOM      4  C   LIG    1        3.194  27.010   4.340  0.00  0.00    +0.117 A 
ATOM      5  C   LIG    1        2.003  27.661   4.058  0.00  0.00    +0.046 A 
ATOM      6  C   LIG    1        1.760  28.939   4.576  0.00  0.00    +0.008 A 
ATOM      7  C   LIG    1        2.712  29.582   5.386  0.00  0.00    -0.037 A 
ATOM      8  C   LIG    1        3.917  28.893   5.645  0.00  0.00    +0.008 A 
ATOM      9  C   LIG    1        4.161  27.618   5.127  0.00  0.00    +0.046 A 
BRANCH   4  10
ATOM     10  O   LIG    1        3.378  25.759   3.830  0.00  0.00    -0.507 OA
ATOM     11  H   LIG    1        4.231  25.422   4.147  0.00  0.00    +0.292 HD
ENDBRANCH   4  10
ENDBRANCH   1   7
BRANCH   1  12
ATOM     12  C   LIG    1        1.397  31.725   5.213  0.00  0.00    -0.037 A 
ATOM     13  C   LIG    1        0.050  31.709   5.630  0.00  0.00    +0.008 A 
ATOM     14  C   LIG    1       -0.928  32.447   4.960  0.00  0.00    +0.046 A 
ATOM     15  C   LIG    1       -0.574  33.233   3.876  0.00  0.00    +0.117 A 
ATOM     16  C   LIG    1        0.743  33.277   3.437  0.00  0.00    +0.046 A 
ATOM     17  C   LIG    1        1.720  32.523   4.099  0.00  0.00    +0.008 A 
BRANCH  15  18
ATOM     18  O   LIG    1       -1.551  33.968   3.274  0.00  0.00    -0.507 OA
ATOM     19  H   LIG    1       -1.139  34.539   2.606  0.00  0.00    +0.292 HD
ENDBRANCH  15  18
ENDBRANCH   1  12
TORSDOF 4
ENDMDL
MODEL 6
REMARK VINA RESULT:      -7.1      1.397      2.274
REMARK  Name = 
REMARK                            x       y       z     vdW  Elec       q    Type
REMARK                         _______ _______ _______ _____ _____    ______ ____
ROOT
ATOM      1  C   LIG    1        2.400  30.957   6.156  0.00  0.00    +0.015 C 
ATOM      2  C   LIG    1        1.981  30.695   7.631  0.00  0.00    +0.021 C 
ATOM      3  C   LIG    1        3.666  31.852   6.270  0.00  0.00    +0.021 C 
ENDROOT
BRANCH   1   7
ATOM      4  C   LIG    1       -0.634  33.209   3.971  0.00  0.00    +0.117 A 
ATOM      5  C   LIG    1        0.667  33.178   3.490  0.00  0.00    +0.046 A 
ATOM      6  C   LIG    1        1.649  32.445   4.165  0.00  0.00    +0.008 A 
ATOM      7  C   LIG    1        1.340  31.731   5.335  0.00  0.00    -0.037 A 
ATOM      8  C   LIG    1        0.004  31.777   5.792  0.00  0.00    +0.008 A 
ATOM      9  C   LIG    1       -0.978  32.508   5.117  0.00  0.00    +0.046 A 
BRANCH   4  10
ATOM     10  O   LIG    1       -1.552  33.952   3.291  0.00  0.00    -0.507 OA
ATOM     11  H   LIG    1       -2.022  34.514   3.927  0.00  0.00    +0.292 HD
ENDBRANCH   4  10
ENDBRANCH   1   7
BRANCH   1  12
ATOM     12  C   LIG    1        2.670  29.594   5.468  0.00  0.00    -0.037 A 
ATOM     13  C   LIG    1        3.956  29.018   5.530  0.00  0.00    +0.008 A 
ATOM     14  C   LIG    1        4.215  27.756   4.991  0.00  0.00    +0.046 A 
ATOM     15  C   LIG    1        3.188  27.037   4.401  0.00  0.00    +0.117 A 
ATOM     16  C   LIG    1        1.908  27.570   4.322  0.00  0.00    +0.046 A 
ATOM     17  C   LIG    1        1.654  28.843   4.847  0.00  0.00    +0.008 A 
BRANCH  15  18
ATOM     18  O   LIG    1        3.473  25.793   3.922  0.00  0.00    -0.507 OA
ATOM     19  H   LIG    1        4.250  25.857   3.343  0.00  0.00    +0.292 HD
ENDBRANCH  15  18
ENDBRANCH   1  12
TORSDOF 4
ENDMDL
MODEL 7
REMARK VINA RESULT:      -6.6      1.801      5.963
REMARK  Name = 
REMARK                            x       y       z     vdW  Elec       q    Type
REMARK                         _______ _______ _______ _____ _____    ______ ____
ROOT
ATOM      1  C   LIG    1        0.733  30.440   5.661  0.00  0.00    +0.015 C 
ATOM      2  C   LIG    1        0.161  30.077   7.061  0.00  0.00    +0.021 C 
ATOM      3  C   LIG    1        0.023  29.455   4.690  0.00  0.00    +0.021 C 
ENDROOT
BRANCH   1   7
ATOM      4  C   LIG    1        5.009  29.685   5.223  0.00  0.00    +0.117 A 
ATOM      5  C   LIG    1        4.511  30.949   4.942  0.00  0.00    +0.046 A 
ATOM      6  C   LIG    1        3.146  31.216   5.096  0.00  0.00    +0.008 A 
ATOM      7  C   LIG    1        2.260  30.217   5.534  0.00  0.00    -0.037 A 
ATOM      8  C   LIG    1        2.803  28.945   5.820  0.00  0.00    +0.008 A 
ATOM      9  C   LIG    1        4.166  28.678   5.668  0.00  0.00    +0.046 A 
BRANCH   4  10
ATOM     10  O   LIG    1        6.342  29.466   5.040  0.00  0.00    -0.507 OA
ATOM     11  H   LIG    1        6.822  30.269   5.301  0.00  0.00    +0.292 HD
ENDBRANCH   4  10
ENDBRANCH   1   7
BRANCH   1  12
ATOM     12  C   LIG    1        0.417  31.929   5.366  0.00  0.00    -0.037 A 
ATOM     13  C   LIG    1        0.111  32.335   4.051  0.00  0.00    +0.008 A 
ATOM     14  C   LIG    1       -0.256  33.651   3.762  0.00  0.00    +0.046 A 
ATOM     15  C   LIG    1       -0.348  34.579   4.787  0.00  0.00    +0.117 A 
ATOM     16  C   LIG    1       -0.057  34.217   6.095  0.00  0.00    +0.046 A 
ATOM     17  C   LIG    1        0.329  32.901   6.381  0.00  0.00    +0.008 A 
BRANCH  15  18
ATOM     18  O   LIG    1       -0.748  35.843   4.469  0.00  0.00    -0.507 OA
ATOM     19  H   LIG    1       -1.715  35.848   4.386  0.00  0.00    +0.292 HD
ENDBRANCH  15  18
ENDBRANCH   1  12
TORSDOF 4
ENDMDL
MODEL 8
REMARK VINA RESULT:      -6.5      1.805      2.975
REMARK  Name = 
REMARK                            x       y       z     vdW  Elec       q    Type
REMARK                         _______ _______ _______ _____ _____    ______ ____
ROOT
ATOM      1  C   LIG    1        0.726  30.443   5.661  0.00  0.00    +0.015 C 
ATOM      2  C   LIG    1        0.027  29.445   4.696  0.00  0.00    +0.021 C 
ATOM      3  C   LIG    1        0.150  30.091   7.061  0.00  0.00    +0.021 C 
ENDROOT
BRANCH   1   7
ATOM      4  C   LIG    1       -0.328  34.581   4.756  0.00  0.00    +0.117 A 
ATOM      5  C   LIG    1       -0.038  34.225   6.065  0.00  0.00    +0.046 A 
ATOM      6  C   LIG    1        0.322  32.908   6.372  0.00  0.00    +0.008 A 
ATOM      7  C   LIG    1        0.396  31.927   5.368  0.00  0.00    -0.037 A 
ATOM      8  C   LIG    1        0.103  32.327   4.046  0.00  0.00    +0.008 A 
ATOM      9  C   LIG    1       -0.256  33.642   3.738  0.00  0.00    +0.046 A 
BRANCH   4  10
ATOM     10  O   LIG    1       -0.693  35.871   4.508  0.00  0.00    -0.507 OA
ATOM     11  H   LIG    1       -0.666  36.362   5.344  0.00  0.00    +0.292 HD
ENDBRANCH   4  10
ENDBRANCH   1   7
BRANCH   1  12
ATOM     12  C   LIG    1        2.260  30.242   5.558  0.00  0.00    -0.037 A 
ATOM     13  C   LIG    1        2.825  28.984   5.852  0.00  0.00    +0.008 A 
ATOM     14  C   LIG    1        4.192  28.744   5.692  0.00  0.00    +0.046 A 
ATOM     15  C   LIG    1        5.014  29.751   5.213  0.00  0.00    +0.117 A 
ATOM     16  C   LIG    1        4.495  31.002   4.911  0.00  0.00    +0.046 A 
ATOM     17  C   LIG    1        3.127  31.247   5.088  0.00  0.00    +0.008 A 
BRANCH  15  18
ATOM     18  O   LIG    1        6.335  29.465   5.034  0.00  0.00    -0.507 OA
ATOM     19  H   LIG    1        6.512  28.585   5.406  0.00  0.00    +0.292 HD
ENDBRANCH  15  18
ENDBRANCH   1  12
TORSDOF 4
ENDMDL
MODEL 9
REMARK VINA RESULT:      -6.5      1.893      2.787
REMARK  Name = 
REMARK                            x       y       z     vdW  Elec       q    Type
REMARK                         _______ _______ _______ _____ _____    ______ ____
ROOT
ATOM      1  C   LIG    1        1.496  30.416   6.714  0.00  0.00    +0.015 C 
ATOM      2  C   LIG    1        0.158  29.985   7.379  0.00  0.00    +0.021 C 
ATOM      3  C   LIG    1        2.353  30.957   7.892  0.00  0.00    +0.021 C 
ENDROOT
BRANCH   1   7
ATOM      4  C   LIG    1        1.185  33.583   3.727  0.00  0.00    +0.117 A 
ATOM      5  C   LIG    1        0.099  32.748   3.946  0.00  0.00    +0.046 A 
ATOM      6  C   LIG    1        0.172  31.740   4.914  0.00  0.00    +0.008 A 
ATOM      7  C   LIG    1        1.338  31.554   5.676  0.00  0.00    -0.037 A 
ATOM      8  C   LIG    1        2.420  32.428   5.433  0.00  0.00    +0.008 A 
ATOM      9  C   LIG    1        2.348  33.437   4.468  0.00  0.00    +0.046 A 
BRANCH   4  10
ATOM     10  O   LIG    1        1.074  34.539   2.761  0.00  0.00    -0.507 OA
ATOM     11  H   LIG    1        1.770  34.388   2.101  0.00  0.00    +0.292 HD
ENDBRANCH   4  10
ENDBRANCH   1   7
BRANCH   1  12
ATOM     12  C   LIG    1        2.122  29.183   6.013  0.00  0.00    -0.037 A 
ATOM     13  C   LIG    1        1.288  28.225   5.399  0.00  0.00    +0.008 A 
ATOM     14  C   LIG    1        1.819  27.146   4.689  0.00  0.00    +0.046 A 
ATOM     15  C   LIG    1        3.193  27.017   4.561  0.00  0.00    +0.117 A 
ATOM     16  C   LIG    1        4.046  27.940   5.150  0.00  0.00    +0.046 A 
ATOM     17  C   LIG    1        3.513  29.012   5.876  0.00  0.00    +0.008 A 
BRANCH  15  18
ATOM     18  O   LIG    1        3.670  25.971   3.828  0.00  0.00    -0.507 OA
ATOM     19  H   LIG    1        3.867  25.237   4.432  0.00  0.00    +0.292 HD
ENDBRANCH  15  18
ENDBRANCH   1  12
TORSDOF 4
ENDMDL
