MODEL 1
REMARK VINA RESULT:      -7.5      0.000      0.000
REMARK  Name = 
REMARK                            x       y       z     vdW  Elec       q    Type
REMARK                         _______ _______ _______ _____ _____    ______ ____
ROOT
ATOM      1  C   LIG    1      -47.143   9.579 -42.743  0.00  0.00    +0.015 C 
ATOM      2  C   LIG    1      -47.673   8.218 -43.278  0.00  0.00    +0.021 C 
ATOM      3  C   LIG    1      -45.964   9.190 -41.807  0.00  0.00    +0.021 C 
ENDROOT
BRANCH   1   7
ATOM      4  C   LIG    1      -49.980  11.765 -40.250  0.00  0.00    +0.117 A 
ATOM      5  C   LIG    1      -49.530  12.340 -41.429  0.00  0.00    +0.046 A 
ATOM      6  C   LIG    1      -48.636  11.646 -42.252  0.00  0.00    +0.008 A 
ATOM      7  C   LIG    1      -48.180  10.364 -41.903  0.00  0.00    -0.037 A 
ATOM      8  C   LIG    1      -48.666   9.805 -40.700  0.00  0.00    +0.008 A 
ATOM      9  C   LIG    1      -49.560  10.497 -39.878  0.00  0.00    +0.046 A 
BRANCH   4  10
ATOM     10  O   LIG    1      -50.836  12.486 -39.470  0.00  0.00    -0.507 OA
ATOM     11  H   LIG    1      -51.479  12.926 -40.049  0.00  0.00    +0.292 HD
ENDBRANCH   4  10
ENDBRANCH   1   7
BRANCH   1  12
ATOM     12  C   LIG    1      -46.710  10.452 -43.948  0.00  0.00    -0.037 A 
ATOM     13  C   LIG    1      -47.366  10.312 -45.189  0.00  0.00    +0.008 A 
ATOM     14  C   LIG    1      -47.058  11.138 -46.273  0.00  0.00    +0.046 A 
ATOM     15  C   LIG    1      -46.106  12.133 -46.129  0.00  0.00    +0.117 A 
ATOM     16  C   LIG    1      -45.440  12.303 -44.923  0.00  0.00    +0.046 A 
ATOM     17  C   LIG    1      -45.737  11.464 -43.842  0.00  0.00    +0.008 A 
BRANCH  15  18
ATOM     18  O   LIG    1      -45.862  12.943 -47.199  0.00  0.00    -0.507 OA
ATOM     19  H   LIG    1      -45.639  12.385 -47.961  0.00  0.00    +0.292 HD
ENDBRANCH  15  18
ENDBRANCH   1  12
TORSDOF 4
ENDMDL
MODEL 2
REMARK VINA RESULT:      -7.4      0.267      5.562
REMARK  Name = 
REMARK                            x       y       z     vdW  Elec       q    Type
REMARK                         _______ _______ _______ _____ _____    ______ ____
ROOT
ATOM      1  C   LIG    1      -47.072   9.722 -42.812  0.00  0.00    +0.015 C 
ATOM      2  C   LIG    1      -45.808   9.535 -41.926  0.00  0.00    +0.021 C 
ATOM      3  C   LIG    1      -47.483   8.275 -43.206  0.00  0.00    +0.021 C 
ENDROOT
BRANCH   1   7
ATOM      4  C   LIG    1      -46.176  11.932 -46.467  0.00  0.00    +0.117 A 
ATOM      5  C   LIG    1      -47.151  10.946 -46.492  0.00  0.00    +0.046 A 
ATOM      6  C   LIG    1      -47.467  10.241 -45.326  0.00  0.00    +0.008 A 
ATOM      7  C   LIG    1      -46.808  10.515 -44.116  0.00  0.00    -0.037 A 
ATOM      8  C   LIG    1      -45.827  11.531 -44.125  0.00  0.00    +0.008 A 
ATOM      9  C   LIG    1      -45.511  12.237 -45.289  0.00  0.00    +0.046 A 
BRANCH   4  10
ATOM     10  O   LIG    1      -45.888  12.580 -47.632  0.00  0.00    -0.507 OA
ATOM     11  H   LIG    1      -45.251  13.286 -47.440  0.00  0.00    +0.292 HD
ENDBRANCH   4  10
ENDBRANCH   1   7
BRANCH   1  12
ATOM     12  C   LIG    1      -48.153  10.465 -41.985  0.00  0.00    -0.037 A 
ATOM     13  C   LIG    1      -48.640   9.895 -40.791  0.00  0.00    +0.008 A 
ATOM     14  C   LIG    1      -49.553  10.572 -39.980  0.00  0.00    +0.046 A 
ATOM     15  C   LIG    1      -49.978  11.842 -40.335  0.00  0.00    +0.117 A 
ATOM     16  C   LIG    1      -49.520  12.438 -41.502  0.00  0.00    +0.046 A 
ATOM     17  C   LIG    1      -48.617  11.750 -42.324  0.00  0.00    +0.008 A 
BRANCH  15  18
ATOM     18  O   LIG    1      -50.839  12.484 -39.496  0.00  0.00    -0.507 OA
ATOM     19  H   LIG    1      -51.746  12.308 -39.793  0.00  0.00    +0.292 HD
ENDBRANCH  15  18
ENDBRANCH   1  12
TORSDOF 4
ENDMDL
MODEL 3
REMARK VINA RESULT:      -7.4      1.537      5.654
REMARK  Name = 
REMARK                            x       y       z     vdW  Elec       q    Type
REMARK                         _______ _______ _______ _____ _____    ______ ____
ROOT
ATOM      1  C   LIG    1      -47.465  10.721 -43.787  0.00  0.00    +0.015 C 
ATOM      2  C   LIG    1      -47.307   9.175 -43.743  0.00  0.00    +0.021 C 
ATOM      3  C   LIG    1      -48.178  10.996 -45.141  0.00  0.00    +0.021 C 
ENDROOT
BRANCH   1   7
ATOM      4  C   LIG    1      -43.743  13.001 -43.851  0.00  0.00    +0.117 A 
ATOM      5  C   LIG    1      -44.048  12.231 -42.739  0.00  0.00    +0.046 A 
ATOM      6  C   LIG    1      -45.227  11.477 -42.708  0.00  0.00    +0.008 A 
ATOM      7  C   LIG    1      -46.118  11.485 -43.794  0.00  0.00    -0.037 A 
ATOM      8  C   LIG    1      -45.771  12.274 -44.913  0.00  0.00    +0.008 A 
ATOM      9  C   LIG    1      -44.594  13.027 -44.946  0.00  0.00    +0.046 A 
BRANCH   4  10
ATOM     10  O   LIG    1      -42.594  13.734 -43.828  0.00  0.00    -0.507 OA
ATOM     11  H   LIG    1      -42.759  14.546 -43.322  0.00  0.00    +0.292 HD
ENDBRANCH   4  10
ENDBRANCH   1   7
BRANCH   1  12
ATOM     12  C   LIG    1      -48.290  11.172 -42.554  0.00  0.00    -0.037 A 
ATOM     13  C   LIG    1      -48.940  12.424 -42.563  0.00  0.00    +0.008 A 
ATOM     14  C   LIG    1      -49.757  12.827 -41.505  0.00  0.00    +0.046 A 
ATOM     15  C   LIG    1      -49.959  11.977 -40.430  0.00  0.00    +0.117 A 
ATOM     16  C   LIG    1      -49.337  10.736 -40.385  0.00  0.00    +0.046 A 
ATOM     17  C   LIG    1      -48.504  10.340 -41.439  0.00  0.00    +0.008 A 
BRANCH  15  18
ATOM     18  O   LIG    1      -50.794  12.392 -39.436  0.00  0.00    -0.507 OA
ATOM     19  H   LIG    1      -51.593  12.765 -39.842  0.00  0.00    +0.292 HD
ENDBRANCH  15  18
ENDBRANCH   1  12
TORSDOF 4
ENDMDL
MODEL 4
REMARK VINA RESULT:      -7.4      1.565      2.668
REMARK  Name = 
REMARK                            x       y       z     vdW  Elec       q    Type
REMARK                         _______ _______ _______ _____ _____    ______ ____
ROOT
ATOM      1  C   LIG    1      -47.436  10.769 -43.788  0.00  0.00    +0.015 C 
ATOM      2  C   LIG    1      -48.151  10.947 -45.157  0.00  0.00    +0.021 C 
ATOM      3  C   LIG    1      -47.186   9.238 -43.682  0.00  0.00    +0.021 C 
ENDROOT
BRANCH   1   7
ATOM      4  C   LIG    1      -49.976  12.018 -40.465  0.00  0.00    +0.117 A 
ATOM      5  C   LIG    1      -49.359  10.777 -40.419  0.00  0.00    +0.046 A 
ATOM      6  C   LIG    1      -48.524  10.367 -41.465  0.00  0.00    +0.008 A 
ATOM      7  C   LIG    1      -48.297  11.198 -42.575  0.00  0.00    -0.037 A 
ATOM      8  C   LIG    1      -48.934  12.458 -42.585  0.00  0.00    +0.008 A 
ATOM      9  C   LIG    1      -49.767  12.869 -41.540  0.00  0.00    +0.046 A 
BRANCH   4  10
ATOM     10  O   LIG    1      -50.795  12.367 -39.433  0.00  0.00    -0.507 OA
ATOM     11  H   LIG    1      -50.243  12.663 -38.691  0.00  0.00    +0.292 HD
ENDBRANCH   4  10
ENDBRANCH   1   7
BRANCH   1  12
ATOM     12  C   LIG    1      -46.131  11.606 -43.796  0.00  0.00    -0.037 A 
ATOM     13  C   LIG    1      -45.250  11.546 -42.697  0.00  0.00    +0.008 A 
ATOM     14  C   LIG    1      -44.028  12.222 -42.704  0.00  0.00    +0.046 A 
ATOM     15  C   LIG    1      -43.654  12.953 -43.820  0.00  0.00    +0.117 A 
ATOM     16  C   LIG    1      -44.494  13.036 -44.923  0.00  0.00    +0.046 A 
ATOM     17  C   LIG    1      -45.727  12.371 -44.907  0.00  0.00    +0.008 A 
BRANCH  15  18
ATOM     18  O   LIG    1      -42.437  13.566 -43.803  0.00  0.00    -0.507 OA
ATOM     19  H   LIG    1      -41.815  13.001 -43.317  0.00  0.00    +0.292 HD
ENDBRANCH  15  18
ENDBRANCH   1  12
TORSDOF 4
ENDMDL
MODEL 5
REMARK VINA RESULT:      -7.3      2.327      3.727
REMARK  Name = 
REMARK                            x       y       z     vdW  Elec       q    Type
REMARK                         _______ _______ _______ _____ _____    ______ ____
ROOT
ATOM      1  C   LIG    1      -47.373  10.791 -43.618  0.00  0.00    +0.015 C 
ATOM      2  C   LIG    1      -46.009  11.536 -43.650  0.00  0.00    +0.021 C 
ATOM      3  C   LIG    1      -48.087  11.241 -44.924  0.00  0.00    +0.021 C 
ENDROOT
BRANCH   1   7
ATOM      4  C   LIG    1      -50.019  11.953 -40.346  0.00  0.00    +0.117 A 
ATOM      5  C   LIG    1      -49.367  10.730 -40.290  0.00  0.00    +0.046 A 
ATOM      6  C   LIG    1      -48.498  10.349 -41.319  0.00  0.00    +0.008 A 
ATOM      7  C   LIG    1      -48.273  11.190 -42.422  0.00  0.00    -0.037 A 
ATOM      8  C   LIG    1      -48.946  12.431 -42.442  0.00  0.00    +0.008 A 
ATOM      9  C   LIG    1      -49.813  12.814 -41.414  0.00  0.00    +0.046 A 
BRANCH   4  10
ATOM     10  O   LIG    1      -50.870  12.273 -39.330  0.00  0.00    -0.507 OA
ATOM     11  H   LIG    1      -51.001  11.484 -38.781  0.00  0.00    +0.292 HD
ENDBRANCH   4  10
ENDBRANCH   1   7
BRANCH   1  12
ATOM     12  C   LIG    1      -47.105   9.266 -43.556  0.00  0.00    -0.037 A 
ATOM     13  C   LIG    1      -47.951   8.375 -44.250  0.00  0.00    +0.008 A 
ATOM     14  C   LIG    1      -47.694   7.003 -44.283  0.00  0.00    +0.046 A 
ATOM     15  C   LIG    1      -46.573   6.499 -43.645  0.00  0.00    +0.117 A 
ATOM     16  C   LIG    1      -45.715   7.344 -42.953  0.00  0.00    +0.046 A 
ATOM     17  C   LIG    1      -45.984   8.717 -42.905  0.00  0.00    +0.008 A 
BRANCH  15  18
ATOM     18  O   LIG    1      -46.336   5.159 -43.734  0.00  0.00    -0.507 OA
ATOM     19  H   LIG    1      -46.947   4.782 -44.387  0.00  0.00    +0.292 HD
ENDBRANCH  15  18
ENDBRANCH   1  12
TORSDOF 4
ENDMDL
MODEL 6
REMARK VINA RESULT:      -7.3      2.086      5.477
REMARK  Name = 
REMARK                            x       y       z     vdW  Elec       q    Type
REMARK                         _______ _______ _______ _____ _____    ______ ____
ROOT
ATOM      1  C   LIG    1      -47.030   9.271 -42.585  0.00  0.00    +0.015 C 
ATOM      2  C   LIG    1      -45.725  10.107 -42.714  0.00  0.00    +0.021 C 
ATOM      3  C   LIG    1      -46.595   7.999 -41.805  0.00  0.00    +0.021 C 
ENDROOT
BRANCH   1   7
ATOM      4  C   LIG    1      -48.816   7.955 -46.344  0.00  0.00    +0.117 A 
ATOM      5  C   LIG    1      -48.229   9.209 -46.274  0.00  0.00    +0.046 A 
ATOM      6  C   LIG    1      -47.633   9.641 -45.084  0.00  0.00    +0.008 A 
ATOM      7  C   LIG    1      -47.618   8.820 -43.944  0.00  0.00    -0.037 A 
ATOM      8  C   LIG    1      -48.217   7.545 -44.054  0.00  0.00    +0.008 A 
ATOM      9  C   LIG    1      -48.811   7.112 -45.242  0.00  0.00    +0.046 A 
BRANCH   4  10
ATOM     10  O   LIG    1      -49.401   7.584 -47.518  0.00  0.00    -0.507 OA
ATOM     11  H   LIG    1      -48.872   6.872 -47.912  0.00  0.00    +0.292 HD
ENDBRANCH   4  10
ENDBRANCH   1   7
BRANCH   1  12
ATOM     12  C   LIG    1      -48.091  10.119 -41.837  0.00  0.00    -0.037 A 
ATOM     13  C   LIG    1      -48.645   9.646 -40.630  0.00  0.00    +0.008 A 
ATOM     14  C   LIG    1      -49.542  10.418 -39.888  0.00  0.00    +0.046 A 
ATOM     15  C   LIG    1      -49.883  11.687 -40.328  0.00  0.00    +0.117 A 
ATOM     16  C   LIG    1      -49.357  12.188 -41.511  0.00  0.00    +0.046 A 
ATOM     17  C   LIG    1      -48.471  11.406 -42.263  0.00  0.00    +0.008 A 
BRANCH  15  18
ATOM     18  O   LIG    1      -50.731  12.423 -39.556  0.00  0.00    -0.507 OA
ATOM     19  H   LIG    1      -50.233  13.163 -39.171  0.00  0.00    +0.292 HD
ENDBRANCH  15  18
ENDBRANCH   1  12
TORSDOF 4
ENDMDL
MODEL 7
REMARK VINA RESULT:      -7.3      2.325      5.531
REMARK  Name = 
REMARK                            x       y       z     vdW  Elec       q    Type
REMARK                         _______ _______ _______ _____ _____    ______ ____
ROOT
ATOM      1  C   LIG    1      -47.218  10.857 -43.434  0.00  0.00    +0.015 C 
ATOM      2  C   LIG    1      -47.658  11.445 -44.805  0.00  0.00    +0.021 C 
ATOM      3  C   LIG    1      -45.826  11.498 -43.171  0.00  0.00    +0.021 C 
ENDROOT
BRANCH   1   7
ATOM      4  C   LIG    1      -46.734   6.523 -43.614  0.00  0.00    +0.117 A 
ATOM      5  C   LIG    1      -45.835   7.276 -42.874  0.00  0.00    +0.046 A 
ATOM      6  C   LIG    1      -45.985   8.665 -42.788  0.00  0.00    +0.008 A 
ATOM      7  C   LIG    1      -47.041   9.319 -43.444  0.00  0.00    -0.037 A 
ATOM      8  C   LIG    1      -47.943   8.520 -44.181  0.00  0.00    +0.008 A 
ATOM      9  C   LIG    1      -47.795   7.133 -44.267  0.00  0.00    +0.046 A 
BRANCH   4  10
ATOM     10  O   LIG    1      -46.536   5.176 -43.686  0.00  0.00    -0.507 OA
ATOM     11  H   LIG    1      -45.592   5.013 -43.839  0.00  0.00    +0.292 HD
ENDBRANCH   4  10
ENDBRANCH   1   7
BRANCH   1  12
ATOM     12  C   LIG    1      -48.279  11.233 -42.369  0.00  0.00    -0.037 A 
ATOM     13  C   LIG    1      -48.492  10.387 -41.260  0.00  0.00    +0.008 A 
ATOM     14  C   LIG    1      -49.381  10.733 -40.240  0.00  0.00    +0.046 A 
ATOM     15  C   LIG    1      -50.056  11.941 -40.298  0.00  0.00    +0.117 A 
ATOM     16  C   LIG    1      -49.873  12.801 -41.373  0.00  0.00    +0.046 A 
ATOM     17  C   LIG    1      -48.994  12.445 -42.404  0.00  0.00    +0.008 A 
BRANCH  15  18
ATOM     18  O   LIG    1      -50.886  12.259 -39.265  0.00  0.00    -0.507 OA
ATOM     19  H   LIG    1      -50.345  12.575 -38.522  0.00  0.00    +0.292 HD
ENDBRANCH  15  18
ENDBRANCH   1  12
TORSDOF 4
ENDMDL
MODEL 8
REMARK VINA RESULT:      -7.2      2.073      2.753
REMARK  Name = 
REMARK                            x       y       z     vdW  Elec       q    Type
REMARK                         _______ _______ _______ _____ _____    ______ ____
ROOT
ATOM      1  C   LIG    1      -46.899   9.194 -42.653  0.00  0.00    +0.015 C 
ATOM      2  C   LIG    1      -46.457   7.920 -41.879  0.00  0.00    +0.021 C 
ATOM      3  C   LIG    1      -45.602  10.044 -42.765  0.00  0.00    +0.021 C 
ENDROOT
BRANCH   1   7
ATOM      4  C   LIG    1      -49.813  11.554 -40.419  0.00  0.00    +0.117 A 
ATOM      5  C   LIG    1      -49.280  12.067 -41.592  0.00  0.00    +0.046 A 
ATOM      6  C   LIG    1      -48.360  11.317 -42.333  0.00  0.00    +0.008 A 
ATOM      7  C   LIG    1      -47.960  10.040 -41.907  0.00  0.00    -0.037 A 
ATOM      8  C   LIG    1      -48.530   9.544 -40.713  0.00  0.00    +0.008 A 
ATOM      9  C   LIG    1      -49.450  10.292 -39.973  0.00  0.00    +0.046 A 
BRANCH   4  10
ATOM     10  O   LIG    1      -50.691  12.328 -39.721  0.00  0.00    -0.507 OA
ATOM     11  H   LIG    1      -50.594  12.125 -38.777  0.00  0.00    +0.292 HD
ENDBRANCH   4  10
ENDBRANCH   1   7
BRANCH   1  12
ATOM     12  C   LIG    1      -47.475   8.766 -44.027  0.00  0.00    -0.037 A 
ATOM     13  C   LIG    1      -48.257   7.596 -44.128  0.00  0.00    +0.008 A 
ATOM     14  C   LIG    1      -48.859   7.224 -45.332  0.00  0.00    +0.046 A 
ATOM     15  C   LIG    1      -48.710   8.027 -46.451  0.00  0.00    +0.117 A 
ATOM     16  C   LIG    1      -47.949   9.187 -46.391  0.00  0.00    +0.046 A 
ATOM     17  C   LIG    1      -47.332   9.550 -45.188  0.00  0.00    +0.008 A 
BRANCH  15  18
ATOM     18  O   LIG    1      -49.345   7.649 -47.596  0.00  0.00    -0.507 OA
ATOM     19  H   LIG    1      -50.208   8.093 -47.630  0.00  0.00    +0.292 HD
ENDBRANCH  15  18
ENDBRANCH   1  12
TORSDOF 4
ENDMDL
MODEL 9
REMARK VINA RESULT:      -7.2      1.870      2.144
REMARK  Name = 
REMARK                            x       y       z     vdW  Elec       q    Type
REMARK                         _______ _______ _______ _____ _____    ______ ____
ROOT
ATOM      1  C   LIG    1      -46.930   8.569 -42.220  0.00  0.00    +0.015 C 
ATOM      2  C   LIG    1      -47.782   8.013 -43.395  0.00  0.00    +0.021 C 
ATOM      3  C   LIG    1      -46.360   7.300 -41.525  0.00  0.00    +0.021 C 
ENDROOT
BRANCH   1   7
ATOM      4  C   LIG    1      -49.120  10.817 -39.187  0.00  0.00    +0.117 A 
ATOM      5  C   LIG    1      -49.341  11.094 -40.528  0.00  0.00    +0.046 A 
ATOM      6  C   LIG    1      -48.663  10.370 -41.516  0.00  0.00    +0.008 A 
ATOM      7  C   LIG    1      -47.753   9.357 -41.171  0.00  0.00    -0.037 A 
ATOM      8  C   LIG    1      -47.560   9.095 -39.797  0.00  0.00    +0.008 A 
ATOM      9  C   LIG    1      -48.238   9.817 -38.810  0.00  0.00    +0.046 A 
BRANCH   4  10
ATOM     10  O   LIG    1      -49.789  11.561 -38.261  0.00  0.00    -0.507 OA
ATOM     11  H   LIG    1      -50.254  12.278 -38.722  0.00  0.00    +0.292 HD
ENDBRANCH   4  10
ENDBRANCH   1   7
BRANCH   1  12
ATOM     12  C   LIG    1      -45.833   9.500 -42.798  0.00  0.00    -0.037 A 
ATOM     13  C   LIG    1      -45.545   9.474 -44.178  0.00  0.00    +0.008 A 
ATOM     14  C   LIG    1      -44.622  10.354 -44.746  0.00  0.00    +0.046 A 
ATOM     15  C   LIG    1      -43.987  11.292 -43.949  0.00  0.00    +0.117 A 
ATOM     16  C   LIG    1      -44.245  11.350 -42.585  0.00  0.00    +0.046 A 
ATOM     17  C   LIG    1      -45.158  10.455 -42.014  0.00  0.00    +0.008 A 
BRANCH  15  18
ATOM     18  O   LIG    1      -43.122  12.158 -44.548  0.00  0.00    -0.507 OA
ATOM     19  H   LIG    1      -42.275  11.703 -44.682  0.00  0.00    +0.292 HD
ENDBRANCH  15  18
ENDBRANCH   1  12
TORSDOF 4
ENDMDL
