MODEL 1
REMARK VINA RESULT:      -8.4      0.000      0.000
REMARK  Name = 
REMARK                            x       y       z     vdW  Elec       q    Type
REMARK                         _______ _______ _______ _____ _____    ______ ____
ROOT
ATOM      1  C   LIG    1       23.343 -27.576 -11.763  0.00  0.00    +0.015 C 
ATOM      2  C   LIG    1       22.278 -26.687 -11.061  0.00  0.00    +0.021 C 
ATOM      3  C   LIG    1       22.651 -28.042 -13.075  0.00  0.00    +0.021 C 
ENDROOT
BRANCH   1   7
ATOM      4  C   LIG    1       24.458 -31.209  -9.617  0.00  0.00    +0.117 A 
ATOM      5  C   LIG    1       25.063 -30.008  -9.278  0.00  0.00    +0.046 A 
ATOM      6  C   LIG    1       24.704 -28.829  -9.941  0.00  0.00    +0.008 A 
ATOM      7  C   LIG    1       23.732 -28.838 -10.955  0.00  0.00    -0.037 A 
ATOM      8  C   LIG    1       23.130 -30.077 -11.268  0.00  0.00    +0.008 A 
ATOM      9  C   LIG    1       23.487 -31.255 -10.606  0.00  0.00    +0.046 A 
BRANCH   4  10
ATOM     10  O   LIG    1       24.854 -32.335  -8.958  0.00  0.00    -0.507 OA
ATOM     11  H   LIG    1       25.821 -32.320  -8.881  0.00  0.00    +0.292 HD
ENDBRANCH   4  10
ENDBRANCH   1   7
BRANCH   1  12
ATOM     12  C   LIG    1       24.616 -26.725 -12.008  0.00  0.00    -0.037 A 
ATOM     13  C   LIG    1       25.679 -27.254 -12.769  0.00  0.00    +0.008 A 
ATOM     14  C   LIG    1       26.806 -26.489 -13.077  0.00  0.00    +0.046 A 
ATOM     15  C   LIG    1       26.880 -25.173 -12.650  0.00  0.00    +0.117 A 
ATOM     16  C   LIG    1       25.853 -24.616 -11.900  0.00  0.00    +0.046 A 
ATOM     17  C   LIG    1       24.731 -25.390 -11.577  0.00  0.00    +0.008 A 
BRANCH  15  18
ATOM     18  O   LIG    1       27.978 -24.448 -13.005  0.00  0.00    -0.507 OA
ATOM     19  H   LIG    1       27.919 -24.244 -13.952  0.00  0.00    +0.292 HD
ENDBRANCH  15  18
ENDBRANCH   1  12
TORSDOF 4
ENDMDL
MODEL 2
REMARK VINA RESULT:      -8.4      0.165      5.528
REMARK  Name = 
REMARK                            x       y       z     vdW  Elec       q    Type
REMARK                         _______ _______ _______ _____ _____    ______ ____
ROOT
ATOM      1  C   LIG    1       23.269 -27.586 -11.843  0.00  0.00    +0.015 C 
ATOM      2  C   LIG    1       22.453 -28.069 -13.076  0.00  0.00    +0.021 C 
ATOM      3  C   LIG    1       22.308 -26.613 -11.104  0.00  0.00    +0.021 C 
ENDROOT
BRANCH   1   7
ATOM      4  C   LIG    1       26.887 -25.318 -12.744  0.00  0.00    +0.117 A 
ATOM      5  C   LIG    1       26.828 -26.662 -13.081  0.00  0.00    +0.046 A 
ATOM      6  C   LIG    1       25.669 -27.402 -12.819  0.00  0.00    +0.008 A 
ATOM      7  C   LIG    1       24.551 -26.802 -12.213  0.00  0.00    -0.037 A 
ATOM      8  C   LIG    1       24.644 -25.429 -11.893  0.00  0.00    +0.008 A 
ATOM      9  C   LIG    1       25.800 -24.690 -12.155  0.00  0.00    +0.046 A 
BRANCH   4  10
ATOM     10  O   LIG    1       28.044 -24.643 -13.001  0.00  0.00    -0.507 OA
ATOM     11  H   LIG    1       28.579 -24.635 -12.191  0.00  0.00    +0.292 HD
ENDBRANCH   4  10
ENDBRANCH   1   7
BRANCH   1  12
ATOM     12  C   LIG    1       23.665 -28.822 -10.995  0.00  0.00    -0.037 A 
ATOM     13  C   LIG    1       23.124 -30.088 -11.302  0.00  0.00    +0.008 A 
ATOM     14  C   LIG    1       23.520 -31.236 -10.611  0.00  0.00    +0.046 A 
ATOM     15  C   LIG    1       24.480 -31.143  -9.618  0.00  0.00    +0.117 A 
ATOM     16  C   LIG    1       25.037 -29.914  -9.288  0.00  0.00    +0.046 A 
ATOM     17  C   LIG    1       24.627 -28.762  -9.969  0.00  0.00    +0.008 A 
BRANCH  15  18
ATOM     18  O   LIG    1       24.867 -32.292  -8.995  0.00  0.00    -0.507 OA
ATOM     19  H   LIG    1       24.901 -32.126  -8.039  0.00  0.00    +0.292 HD
ENDBRANCH  15  18
ENDBRANCH   1  12
TORSDOF 4
ENDMDL
MODEL 3
REMARK VINA RESULT:      -8.4      0.055      5.507
REMARK  Name = 
REMARK                            x       y       z     vdW  Elec       q    Type
REMARK                         _______ _______ _______ _____ _____    ______ ____
ROOT
ATOM      1  C   LIG    1       23.329 -27.590 -11.791  0.00  0.00    +0.015 C 
ATOM      2  C   LIG    1       22.617 -28.060 -13.092  0.00  0.00    +0.021 C 
ATOM      3  C   LIG    1       22.278 -26.690 -11.083  0.00  0.00    +0.021 C 
ENDROOT
BRANCH   1   7
ATOM      4  C   LIG    1       26.888 -25.218 -12.662  0.00  0.00    +0.117 A 
ATOM      5  C   LIG    1       25.857 -24.651 -11.927  0.00  0.00    +0.046 A 
ATOM      6  C   LIG    1       24.717 -25.401 -11.620  0.00  0.00    +0.008 A 
ATOM      7  C   LIG    1       24.594 -26.734 -12.048  0.00  0.00    -0.037 A 
ATOM      8  C   LIG    1       25.666 -27.283 -12.785  0.00  0.00    +0.008 A 
ATOM      9  C   LIG    1       26.806 -26.534 -13.091  0.00  0.00    +0.046 A 
BRANCH   4  10
ATOM     10  O   LIG    1       27.971 -24.442 -12.953  0.00  0.00    -0.507 OA
ATOM     11  H   LIG    1       27.835 -23.567 -12.556  0.00  0.00    +0.292 HD
ENDBRANCH   4  10
ENDBRANCH   1   7
BRANCH   1  12
ATOM     12  C   LIG    1       23.728 -28.838 -10.964  0.00  0.00    -0.037 A 
ATOM     13  C   LIG    1       23.138 -30.088 -11.248  0.00  0.00    +0.008 A 
ATOM     14  C   LIG    1       23.532 -31.248 -10.579  0.00  0.00    +0.046 A 
ATOM     15  C   LIG    1       24.539 -31.185  -9.629  0.00  0.00    +0.117 A 
ATOM     16  C   LIG    1       25.144 -29.974  -9.323  0.00  0.00    +0.046 A 
ATOM     17  C   LIG    1       24.737 -28.808  -9.982  0.00  0.00    +0.008 A 
BRANCH  15  18
ATOM     18  O   LIG    1       24.921 -32.346  -9.026  0.00  0.00    -0.507 OA
ATOM     19  H   LIG    1       25.568 -32.791  -9.597  0.00  0.00    +0.292 HD
ENDBRANCH  15  18
ENDBRANCH   1  12
TORSDOF 4
ENDMDL
MODEL 4
REMARK VINA RESULT:      -8.0      0.906      1.701
REMARK  Name = 
REMARK                            x       y       z     vdW  Elec       q    Type
REMARK                         _______ _______ _______ _____ _____    ______ ____
ROOT
ATOM      1  C   LIG    1       23.326 -27.789 -11.733  0.00  0.00    +0.015 C 
ATOM      2  C   LIG    1       22.211 -27.237 -10.801  0.00  0.00    +0.021 C 
ATOM      3  C   LIG    1       22.577 -28.181 -13.038  0.00  0.00    +0.021 C 
ENDROOT
BRANCH   1   7
ATOM      4  C   LIG    1       25.176 -31.386 -10.093  0.00  0.00    +0.117 A 
ATOM      5  C   LIG    1       25.094 -31.232 -11.469  0.00  0.00    +0.046 A 
ATOM      6  C   LIG    1       24.523 -30.077 -12.014  0.00  0.00    +0.008 A 
ATOM      7  C   LIG    1       24.024 -29.058 -11.185  0.00  0.00    -0.037 A 
ATOM      8  C   LIG    1       24.133 -29.244  -9.789  0.00  0.00    +0.008 A 
ATOM      9  C   LIG    1       24.704 -30.397  -9.244  0.00  0.00    +0.046 A 
BRANCH   4  10
ATOM     10  O   LIG    1       25.723 -32.537  -9.608  0.00  0.00    -0.507 OA
ATOM     11  H   LIG    1       26.605 -32.644  -9.998  0.00  0.00    +0.292 HD
ENDBRANCH   4  10
ENDBRANCH   1   7
BRANCH   1  12
ATOM     12  C   LIG    1       24.391 -26.682 -11.943  0.00  0.00    -0.037 A 
ATOM     13  C   LIG    1       24.047 -25.329 -11.749  0.00  0.00    +0.008 A 
ATOM     14  C   LIG    1       24.999 -24.313 -11.850  0.00  0.00    +0.046 A 
ATOM     15  C   LIG    1       26.319 -24.633 -12.125  0.00  0.00    +0.117 A 
ATOM     16  C   LIG    1       26.697 -25.954 -12.322  0.00  0.00    +0.046 A 
ATOM     17  C   LIG    1       25.738 -26.971 -12.237  0.00  0.00    +0.008 A 
BRANCH  15  18
ATOM     18  O   LIG    1       27.225 -23.616 -12.177  0.00  0.00    -0.507 OA
ATOM     19  H   LIG    1       28.061 -23.967 -12.524  0.00  0.00    +0.292 HD
ENDBRANCH  15  18
ENDBRANCH   1  12
TORSDOF 4
ENDMDL
MODEL 5
REMARK VINA RESULT:      -7.9      2.558      5.465
REMARK  Name = 
REMARK                            x       y       z     vdW  Elec       q    Type
REMARK                         _______ _______ _______ _____ _____    ______ ____
ROOT
ATOM      1  C   LIG    1       24.819 -27.419 -11.767  0.00  0.00    +0.015 C 
ATOM      2  C   LIG    1       24.600 -28.323 -13.012  0.00  0.00    +0.021 C 
ATOM      3  C   LIG    1       23.504 -27.565 -10.950  0.00  0.00    +0.021 C 
ENDROOT
BRANCH   1   7
ATOM      4  C   LIG    1       25.291 -23.159 -12.592  0.00  0.00    +0.117 A 
ATOM      5  C   LIG    1       26.327 -24.028 -12.898  0.00  0.00    +0.046 A 
ATOM      6  C   LIG    1       26.187 -25.400 -12.660  0.00  0.00    +0.008 A 
ATOM      7  C   LIG    1       25.004 -25.920 -12.109  0.00  0.00    -0.037 A 
ATOM      8  C   LIG    1       23.966 -25.008 -11.818  0.00  0.00    +0.008 A 
ATOM      9  C   LIG    1       24.104 -23.637 -12.057  0.00  0.00    +0.046 A 
BRANCH   4  10
ATOM     10  O   LIG    1       25.480 -21.829 -12.823  0.00  0.00    -0.507 OA
ATOM     11  H   LIG    1       25.105 -21.333 -12.078  0.00  0.00    +0.292 HD
ENDBRANCH   4  10
ENDBRANCH   1   7
BRANCH   1  12
ATOM     12  C   LIG    1       26.075 -27.917 -11.006  0.00  0.00    -0.037 A 
ATOM     13  C   LIG    1       26.956 -28.829 -11.624  0.00  0.00    +0.008 A 
ATOM     14  C   LIG    1       28.137 -29.236 -11.001  0.00  0.00    +0.046 A 
ATOM     15  C   LIG    1       28.472 -28.721  -9.759  0.00  0.00    +0.117 A 
ATOM     16  C   LIG    1       27.631 -27.820  -9.119  0.00  0.00    +0.046 A 
ATOM     17  C   LIG    1       26.438 -27.426  -9.737  0.00  0.00    +0.008 A 
BRANCH  15  18
ATOM     18  O   LIG    1       29.652 -29.114  -9.202  0.00  0.00    -0.507 OA
ATOM     19  H   LIG    1       29.980 -29.886  -9.691  0.00  0.00    +0.292 HD
ENDBRANCH  15  18
ENDBRANCH   1  12
TORSDOF 4
ENDMDL
MODEL 6
REMARK VINA RESULT:      -7.8      2.242      6.052
REMARK  Name = 
REMARK                            x       y       z     vdW  Elec       q    Type
REMARK                         _______ _______ _______ _____ _____    ______ ____
ROOT
ATOM      1  C   LIG    1       25.976 -27.076 -11.225  0.00  0.00    +0.015 C 
ATOM      2  C   LIG    1       26.260 -27.163  -9.698  0.00  0.00    +0.021 C 
ATOM      3  C   LIG    1       27.239 -27.698 -11.886  0.00  0.00    +0.021 C 
ENDROOT
BRANCH   1   7
ATOM      4  C   LIG    1       25.487 -22.954 -12.573  0.00  0.00    +0.117 A 
ATOM      5  C   LIG    1       26.731 -23.557 -12.672  0.00  0.00    +0.046 A 
ATOM      6  C   LIG    1       26.904 -24.884 -12.264  0.00  0.00    +0.008 A 
ATOM      7  C   LIG    1       25.828 -25.627 -11.749  0.00  0.00    -0.037 A 
ATOM      8  C   LIG    1       24.572 -24.984 -11.671  0.00  0.00    +0.008 A 
ATOM      9  C   LIG    1       24.399 -23.658 -12.079  0.00  0.00    +0.046 A 
BRANCH   4  10
ATOM     10  O   LIG    1       25.371 -21.653 -12.965  0.00  0.00    -0.507 OA
ATOM     11  H   LIG    1       24.674 -21.235 -12.434  0.00  0.00    +0.292 HD
ENDBRANCH   4  10
ENDBRANCH   1   7
BRANCH   1  12
ATOM     12  C   LIG    1       24.672 -27.856 -11.533  0.00  0.00    -0.037 A 
ATOM     13  C   LIG    1       24.404 -28.283 -12.850  0.00  0.00    +0.008 A 
ATOM     14  C   LIG    1       23.280 -29.056 -13.150  0.00  0.00    +0.046 A 
ATOM     15  C   LIG    1       22.418 -29.438 -12.136  0.00  0.00    +0.117 A 
ATOM     16  C   LIG    1       22.650 -29.039 -10.826  0.00  0.00    +0.046 A 
ATOM     17  C   LIG    1       23.767 -28.248 -10.529  0.00  0.00    +0.008 A 
BRANCH  15  18
ATOM     18  O   LIG    1       21.355 -30.225 -12.464  0.00  0.00    -0.507 OA
ATOM     19  H   LIG    1       20.993 -30.608 -11.648  0.00  0.00    +0.292 HD
ENDBRANCH  15  18
ENDBRANCH   1  12
TORSDOF 4
ENDMDL
MODEL 7
REMARK VINA RESULT:      -7.8      2.221      3.395
REMARK  Name = 
REMARK                            x       y       z     vdW  Elec       q    Type
REMARK                         _______ _______ _______ _____ _____    ______ ____
ROOT
ATOM      1  C   LIG    1       26.043 -27.164 -11.236  0.00  0.00    +0.015 C 
ATOM      2  C   LIG    1       27.377 -27.752 -11.778  0.00  0.00    +0.021 C 
ATOM      3  C   LIG    1       26.213 -27.189  -9.690  0.00  0.00    +0.021 C 
ENDROOT
BRANCH   1   7
ATOM      4  C   LIG    1       22.446 -29.457 -12.159  0.00  0.00    +0.117 A 
ATOM      5  C   LIG    1       23.294 -29.081 -13.190  0.00  0.00    +0.046 A 
ATOM      6  C   LIG    1       24.463 -28.363 -12.912  0.00  0.00    +0.008 A 
ATOM      7  C   LIG    1       24.798 -28.011 -11.593  0.00  0.00    -0.037 A 
ATOM      8  C   LIG    1       23.916 -28.418 -10.568  0.00  0.00    +0.008 A 
ATOM      9  C   LIG    1       22.750 -29.137 -10.844  0.00  0.00    +0.046 A 
BRANCH   4  10
ATOM     10  O   LIG    1       21.310 -30.138 -12.479  0.00  0.00    -0.507 OA
ATOM     11  H   LIG    1       21.060 -29.906 -13.388  0.00  0.00    +0.292 HD
ENDBRANCH   4  10
ENDBRANCH   1   7
BRANCH   1  12
ATOM     12  C   LIG    1       25.860 -25.736 -11.811  0.00  0.00    -0.037 A 
ATOM     13  C   LIG    1       24.665 -25.028 -11.568  0.00  0.00    +0.008 A 
ATOM     14  C   LIG    1       24.497 -23.711 -12.001  0.00  0.00    +0.046 A 
ATOM     15  C   LIG    1       25.530 -23.070 -12.665  0.00  0.00    +0.117 A 
ATOM     16  C   LIG    1       26.722 -23.733 -12.923  0.00  0.00    +0.046 A 
ATOM     17  C   LIG    1       26.883 -25.059 -12.503  0.00  0.00    +0.008 A 
BRANCH  15  18
ATOM     18  O   LIG    1       25.340 -21.772 -13.037  0.00  0.00    -0.507 OA
ATOM     19  H   LIG    1       24.894 -21.762 -13.899  0.00  0.00    +0.292 HD
ENDBRANCH  15  18
ENDBRANCH   1  12
TORSDOF 4
ENDMDL
MODEL 8
REMARK VINA RESULT:      -7.3      1.803      3.093
REMARK  Name = 
REMARK                            x       y       z     vdW  Elec       q    Type
REMARK                         _______ _______ _______ _____ _____    ______ ____
ROOT
ATOM      1  C   LIG    1       27.100 -28.229 -10.266  0.00  0.00    +0.015 C 
ATOM      2  C   LIG    1       28.419 -28.777 -10.879  0.00  0.00    +0.021 C 
ATOM      3  C   LIG    1       27.477 -27.873  -8.800  0.00  0.00    +0.021 C 
ENDROOT
BRANCH   1   7
ATOM      4  C   LIG    1       23.895 -31.191 -10.295  0.00  0.00    +0.117 A 
ATOM      5  C   LIG    1       24.830 -31.214  -9.272  0.00  0.00    +0.046 A 
ATOM      6  C   LIG    1       25.853 -30.260  -9.233  0.00  0.00    +0.008 A 
ATOM      7  C   LIG    1       25.953 -29.268 -10.224  0.00  0.00    -0.037 A 
ATOM      8  C   LIG    1       24.978 -29.269 -11.246  0.00  0.00    +0.008 A 
ATOM      9  C   LIG    1       23.955 -30.220 -11.284  0.00  0.00    +0.046 A 
BRANCH   4  10
ATOM     10  O   LIG    1       22.927 -32.152 -10.302  0.00  0.00    -0.507 OA
ATOM     11  H   LIG    1       22.441 -32.090 -11.140  0.00  0.00    +0.292 HD
ENDBRANCH   4  10
ENDBRANCH   1   7
BRANCH   1  12
ATOM     12  C   LIG    1       26.637 -27.005 -11.096  0.00  0.00    -0.037 A 
ATOM     13  C   LIG    1       25.801 -26.032 -10.509  0.00  0.00    +0.008 A 
ATOM     14  C   LIG    1       25.430 -24.877 -11.201  0.00  0.00    +0.046 A 
ATOM     15  C   LIG    1       25.907 -24.661 -12.483  0.00  0.00    +0.117 A 
ATOM     16  C   LIG    1       26.733 -25.595 -13.095  0.00  0.00    +0.046 A 
ATOM     17  C   LIG    1       27.090 -26.761 -12.407  0.00  0.00    +0.008 A 
BRANCH  15  18
ATOM     18  O   LIG    1       25.553 -23.504 -13.110  0.00  0.00    -0.507 OA
ATOM     19  H   LIG    1       24.660 -23.257 -12.818  0.00  0.00    +0.292 HD
ENDBRANCH  15  18
ENDBRANCH   1  12
TORSDOF 4
ENDMDL
MODEL 9
REMARK VINA RESULT:      -7.3      1.820      6.068
REMARK  Name = 
REMARK                            x       y       z     vdW  Elec       q    Type
REMARK                         _______ _______ _______ _____ _____    ______ ____
ROOT
ATOM      1  C   LIG    1       27.051 -28.128 -10.255  0.00  0.00    +0.015 C 
ATOM      2  C   LIG    1       27.557 -27.872  -8.807  0.00  0.00    +0.021 C 
ATOM      3  C   LIG    1       28.311 -28.629 -11.018  0.00  0.00    +0.021 C 
ENDROOT
BRANCH   1   7
ATOM      4  C   LIG    1       25.577 -24.624 -12.398  0.00  0.00    +0.117 A 
ATOM      5  C   LIG    1       25.052 -24.927 -11.151  0.00  0.00    +0.046 A 
ATOM      6  C   LIG    1       25.526 -26.035 -10.439  0.00  0.00    +0.008 A 
ATOM      7  C   LIG    1       26.535 -26.856 -10.970  0.00  0.00    -0.037 A 
ATOM      8  C   LIG    1       27.053 -26.512 -12.238  0.00  0.00    +0.008 A 
ATOM      9  C   LIG    1       26.582 -25.405 -12.949  0.00  0.00    +0.046 A 
BRANCH   4  10
ATOM     10  O   LIG    1       25.071 -23.546 -13.062  0.00  0.00    -0.507 OA
ATOM     11  H   LIG    1       24.423 -23.108 -12.486  0.00  0.00    +0.292 HD
ENDBRANCH   4  10
ENDBRANCH   1   7
BRANCH   1  12
ATOM     12  C   LIG    1       25.907 -29.173 -10.204  0.00  0.00    -0.037 A 
ATOM     13  C   LIG    1       25.047 -29.329 -11.311  0.00  0.00    +0.008 A 
ATOM     14  C   LIG    1       24.058 -30.314 -11.332  0.00  0.00    +0.046 A 
ATOM     15  C   LIG    1       23.925 -31.177 -10.257  0.00  0.00    +0.117 A 
ATOM     16  C   LIG    1       24.754 -31.057  -9.150  0.00  0.00    +0.046 A 
ATOM     17  C   LIG    1       25.734 -30.057  -9.122  0.00  0.00    +0.008 A 
BRANCH  15  18
ATOM     18  O   LIG    1       22.973 -32.150 -10.333  0.00  0.00    -0.507 OA
ATOM     19  H   LIG    1       23.112 -32.652 -11.153  0.00  0.00    +0.292 HD
ENDBRANCH  15  18
ENDBRANCH   1  12
TORSDOF 4
ENDMDL
