MODEL 1
REMARK VINA RESULT:      -8.2      0.000      0.000
REMARK  Name = 
REMARK                            x       y       z     vdW  Elec       q    Type
REMARK                         _______ _______ _______ _____ _____    ______ ____
ROOT
ATOM      1  C   LIG    1       17.987  48.002  15.418  0.00  0.00    +0.015 C 
ATOM      2  C   LIG    1       17.797  46.471  15.611  0.00  0.00    +0.021 C 
ATOM      3  C   LIG    1       16.854  48.409  14.435  0.00  0.00    +0.021 C 
ENDROOT
BRANCH   1   7
ATOM      4  C   LIG    1       21.778  48.974  13.486  0.00  0.00    +0.117 A 
ATOM      5  C   LIG    1       20.905  49.998  13.820  0.00  0.00    +0.046 A 
ATOM      6  C   LIG    1       19.694  49.709  14.459  0.00  0.00    +0.008 A 
ATOM      7  C   LIG    1       19.341  48.385  14.771  0.00  0.00    -0.037 A 
ATOM      8  C   LIG    1       20.258  47.368  14.424  0.00  0.00    +0.008 A 
ATOM      9  C   LIG    1       21.468  47.657  13.787  0.00  0.00    +0.046 A 
BRANCH   4  10
ATOM     10  O   LIG    1       22.937  49.303  12.848  0.00  0.00    -0.507 OA
ATOM     11  H   LIG    1       22.826  50.178  12.443  0.00  0.00    +0.292 HD
ENDBRANCH   4  10
ENDBRANCH   1   7
BRANCH   1  12
ATOM     12  C   LIG    1       17.880  48.694  16.801  0.00  0.00    -0.037 A 
ATOM     13  C   LIG    1       17.273  49.963  16.907  0.00  0.00    +0.008 A 
ATOM     14  C   LIG    1       17.086  50.580  18.146  0.00  0.00    +0.046 A 
ATOM     15  C   LIG    1       17.482  49.930  19.303  0.00  0.00    +0.117 A 
ATOM     16  C   LIG    1       18.082  48.680  19.240  0.00  0.00    +0.046 A 
ATOM     17  C   LIG    1       18.284  48.069  17.996  0.00  0.00    +0.008 A 
BRANCH  15  18
ATOM     18  O   LIG    1       17.247  50.549  20.495  0.00  0.00    -0.507 OA
ATOM     19  H   LIG    1       16.818  49.915  21.091  0.00  0.00    +0.292 HD
ENDBRANCH  15  18
ENDBRANCH   1  12
TORSDOF 4
ENDMDL
MODEL 2
REMARK VINA RESULT:      -8.2      0.040      5.766
REMARK  Name = 
REMARK                            x       y       z     vdW  Elec       q    Type
REMARK                         _______ _______ _______ _____ _____    ______ ____
ROOT
ATOM      1  C   LIG    1       17.979  48.010  15.402  0.00  0.00    +0.015 C 
ATOM      2  C   LIG    1       16.851  48.406  14.409  0.00  0.00    +0.021 C 
ATOM      3  C   LIG    1       17.804  46.476  15.591  0.00  0.00    +0.021 C 
ENDROOT
BRANCH   1   7
ATOM      4  C   LIG    1       17.468  49.933  19.287  0.00  0.00    +0.117 A 
ATOM      5  C   LIG    1       18.031  48.667  19.226  0.00  0.00    +0.046 A 
ATOM      6  C   LIG    1       18.222  48.042  17.988  0.00  0.00    +0.008 A 
ATOM      7  C   LIG    1       17.850  48.679  16.792  0.00  0.00    -0.037 A 
ATOM      8  C   LIG    1       17.288  49.972  16.892  0.00  0.00    +0.008 A 
ATOM      9  C   LIG    1       17.098  50.597  18.127  0.00  0.00    +0.046 A 
BRANCH   4  10
ATOM     10  O   LIG    1       17.284  50.494  20.516  0.00  0.00    -0.507 OA
ATOM     11  H   LIG    1       17.486  49.826  21.190  0.00  0.00    +0.292 HD
ENDBRANCH   4  10
ENDBRANCH   1   7
BRANCH   1  12
ATOM     12  C   LIG    1       19.346  48.401  14.783  0.00  0.00    -0.037 A 
ATOM     13  C   LIG    1       20.271  47.397  14.430  0.00  0.00    +0.008 A 
ATOM     14  C   LIG    1       21.476  47.707  13.797  0.00  0.00    +0.046 A 
ATOM     15  C   LIG    1       21.768  49.024  13.484  0.00  0.00    +0.117 A 
ATOM     16  C   LIG    1       20.882  50.041  13.814  0.00  0.00    +0.046 A 
ATOM     17  C   LIG    1       19.682  49.730  14.465  0.00  0.00    +0.008 A 
BRANCH  15  18
ATOM     18  O   LIG    1       22.937  49.281  12.831  0.00  0.00    -0.507 OA
ATOM     19  H   LIG    1       23.654  48.813  13.289  0.00  0.00    +0.292 HD
ENDBRANCH  15  18
ENDBRANCH   1  12
TORSDOF 4
ENDMDL
MODEL 3
REMARK VINA RESULT:      -8.0      0.240      1.186
REMARK  Name = 
REMARK                            x       y       z     vdW  Elec       q    Type
REMARK                         _______ _______ _______ _____ _____    ______ ____
ROOT
ATOM      1  C   LIG    1       17.792  47.960  15.442  0.00  0.00    +0.015 C 
ATOM      2  C   LIG    1       17.634  46.425  15.634  0.00  0.00    +0.021 C 
ATOM      3  C   LIG    1       16.711  48.328  14.387  0.00  0.00    +0.021 C 
ENDROOT
BRANCH   1   7
ATOM      4  C   LIG    1       21.665  49.033  13.739  0.00  0.00    +0.117 A 
ATOM      5  C   LIG    1       20.750  50.034  14.028  0.00  0.00    +0.046 A 
ATOM      6  C   LIG    1       19.510  49.712  14.593  0.00  0.00    +0.008 A 
ATOM      7  C   LIG    1       19.171  48.378  14.877  0.00  0.00    -0.037 A 
ATOM      8  C   LIG    1       20.131  47.386  14.579  0.00  0.00    +0.008 A 
ATOM      9  C   LIG    1       21.369  47.706  14.016  0.00  0.00    +0.046 A 
BRANCH   4  10
ATOM     10  O   LIG    1       22.851  49.392  13.172  0.00  0.00    -0.507 OA
ATOM     11  H   LIG    1       23.136  48.677  12.580  0.00  0.00    +0.292 HD
ENDBRANCH   4  10
ENDBRANCH   1   7
BRANCH   1  12
ATOM     12  C   LIG    1       17.579  48.656  16.811  0.00  0.00    -0.037 A 
ATOM     13  C   LIG    1       17.875  47.965  18.004  0.00  0.00    +0.008 A 
ATOM     14  C   LIG    1       17.772  48.587  19.250  0.00  0.00    +0.046 A 
ATOM     15  C   LIG    1       17.396  49.918  19.325  0.00  0.00    +0.117 A 
ATOM     16  C   LIG    1       17.098  50.633  18.172  0.00  0.00    +0.046 A 
ATOM     17  C   LIG    1       17.184  50.003  16.924  0.00  0.00    +0.008 A 
BRANCH  15  18
ATOM     18  O   LIG    1       17.345  50.499  20.556  0.00  0.00    -0.507 OA
ATOM     19  H   LIG    1       16.591  51.109  20.578  0.00  0.00    +0.292 HD
ENDBRANCH  15  18
ENDBRANCH   1  12
TORSDOF 4
ENDMDL
MODEL 4
REMARK VINA RESULT:      -7.7      2.498      3.826
REMARK  Name = 
REMARK                            x       y       z     vdW  Elec       q    Type
REMARK                         _______ _______ _______ _____ _____    ______ ____
ROOT
ATOM      1  C   LIG    1       18.343  48.546  16.119  0.00  0.00    +0.015 C 
ATOM      2  C   LIG    1       17.759  49.859  16.712  0.00  0.00    +0.021 C 
ATOM      3  C   LIG    1       18.868  47.766  17.356  0.00  0.00    +0.021 C 
ENDROOT
BRANCH   1   7
ATOM      4  C   LIG    1       21.647  49.078  13.317  0.00  0.00    +0.117 A 
ATOM      5  C   LIG    1       20.955  50.191  13.768  0.00  0.00    +0.046 A 
ATOM      6  C   LIG    1       19.906  50.044  14.683  0.00  0.00    +0.008 A 
ATOM      7  C   LIG    1       19.535  48.774  15.157  0.00  0.00    -0.037 A 
ATOM      8  C   LIG    1       20.268  47.663  14.683  0.00  0.00    +0.008 A 
ATOM      9  C   LIG    1       21.317  47.810  13.771  0.00  0.00    +0.046 A 
BRANCH   4  10
ATOM     10  O   LIG    1       22.649  49.269  12.412  0.00  0.00    -0.507 OA
ATOM     11  H   LIG    1       22.787  50.224  12.306  0.00  0.00    +0.292 HD
ENDBRANCH   4  10
ENDBRANCH   1   7
BRANCH   1  12
ATOM     12  C   LIG    1       17.218  47.803  15.354  0.00  0.00    -0.037 A 
ATOM     13  C   LIG    1       16.606  48.411  14.238  0.00  0.00    +0.008 A 
ATOM     14  C   LIG    1       15.646  47.739  13.478  0.00  0.00    +0.046 A 
ATOM     15  C   LIG    1       15.299  46.438  13.804  0.00  0.00    +0.117 A 
ATOM     16  C   LIG    1       15.881  45.805  14.894  0.00  0.00    +0.046 A 
ATOM     17  C   LIG    1       16.830  46.486  15.667  0.00  0.00    +0.008 A 
BRANCH  15  18
ATOM     18  O   LIG    1       14.388  45.803  13.014  0.00  0.00    -0.507 OA
ATOM     19  H   LIG    1       14.212  44.926  13.391  0.00  0.00    +0.292 HD
ENDBRANCH  15  18
ENDBRANCH   1  12
TORSDOF 4
ENDMDL
MODEL 5
REMARK VINA RESULT:      -7.7      2.491      5.663
REMARK  Name = 
REMARK                            x       y       z     vdW  Elec       q    Type
REMARK                         _______ _______ _______ _____ _____    ______ ____
ROOT
ATOM      1  C   LIG    1       18.430  48.557  16.105  0.00  0.00    +0.015 C 
ATOM      2  C   LIG    1       18.950  47.776  17.345  0.00  0.00    +0.021 C 
ATOM      3  C   LIG    1       17.830  49.863  16.698  0.00  0.00    +0.021 C 
ENDROOT
BRANCH   1   7
ATOM      4  C   LIG    1       15.330  46.530  13.796  0.00  0.00    +0.117 A 
ATOM      5  C   LIG    1       15.931  45.866  14.854  0.00  0.00    +0.046 A 
ATOM      6  C   LIG    1       16.913  46.506  15.619  0.00  0.00    +0.008 A 
ATOM      7  C   LIG    1       17.306  47.824  15.332  0.00  0.00    -0.037 A 
ATOM      8  C   LIG    1       16.666  48.473  14.253  0.00  0.00    +0.008 A 
ATOM      9  C   LIG    1       15.685  47.835  13.489  0.00  0.00    +0.046 A 
BRANCH   4  10
ATOM     10  O   LIG    1       14.393  45.859  13.067  0.00  0.00    -0.507 OA
ATOM     11  H   LIG    1       14.282  44.975  13.451  0.00  0.00    +0.292 HD
ENDBRANCH   4  10
ENDBRANCH   1   7
BRANCH   1  12
ATOM     12  C   LIG    1       19.618  48.808  15.141  0.00  0.00    -0.037 A 
ATOM     13  C   LIG    1       20.349  47.716  14.628  0.00  0.00    +0.008 A 
ATOM     14  C   LIG    1       21.373  47.899  13.696  0.00  0.00    +0.046 A 
ATOM     15  C   LIG    1       21.669  49.174  13.242  0.00  0.00    +0.117 A 
ATOM     16  C   LIG    1       20.971  50.274  13.722  0.00  0.00    +0.046 A 
ATOM     17  C   LIG    1       19.956  50.091  14.670  0.00  0.00    +0.008 A 
BRANCH  15  18
ATOM     18  O   LIG    1       22.649  49.306  12.304  0.00  0.00    -0.507 OA
ATOM     19  H   LIG    1       23.146  50.118  12.491  0.00  0.00    +0.292 HD
ENDBRANCH  15  18
ENDBRANCH   1  12
TORSDOF 4
ENDMDL
MODEL 6
REMARK VINA RESULT:      -7.7      2.514      3.955
REMARK  Name = 
REMARK                            x       y       z     vdW  Elec       q    Type
REMARK                         _______ _______ _______ _____ _____    ______ ____
ROOT
ATOM      1  C   LIG    1       18.549  48.538  15.975  0.00  0.00    +0.015 C 
ATOM      2  C   LIG    1       18.063  49.887  16.577  0.00  0.00    +0.021 C 
ATOM      3  C   LIG    1       19.103  47.750  17.195  0.00  0.00    +0.021 C 
ENDROOT
BRANCH   1   7
ATOM      4  C   LIG    1       21.846  49.081  13.166  0.00  0.00    +0.117 A 
ATOM      5  C   LIG    1       21.494  47.799  13.560  0.00  0.00    +0.046 A 
ATOM      6  C   LIG    1       20.427  47.602  14.444  0.00  0.00    +0.008 A 
ATOM      7  C   LIG    1       19.697  48.692  14.946  0.00  0.00    -0.037 A 
ATOM      8  C   LIG    1       20.076  49.983  14.517  0.00  0.00    +0.008 A 
ATOM      9  C   LIG    1       21.141  50.180  13.633  0.00  0.00    +0.046 A 
BRANCH   4  10
ATOM     10  O   LIG    1       22.904  49.224  12.319  0.00  0.00    -0.507 OA
ATOM     11  H   LIG    1       22.825  48.559  11.616  0.00  0.00    +0.292 HD
ENDBRANCH   4  10
ENDBRANCH   1   7
BRANCH   1  12
ATOM     12  C   LIG    1       17.349  47.841  15.285  0.00  0.00    -0.037 A 
ATOM     13  C   LIG    1       16.684  48.479  14.217  0.00  0.00    +0.008 A 
ATOM     14  C   LIG    1       15.652  47.847  13.520  0.00  0.00    +0.046 A 
ATOM     15  C   LIG    1       15.282  46.557  13.862  0.00  0.00    +0.117 A 
ATOM     16  C   LIG    1       15.913  45.895  14.906  0.00  0.00    +0.046 A 
ATOM     17  C   LIG    1       16.937  46.536  15.616  0.00  0.00    +0.008 A 
BRANCH  15  18
ATOM     18  O   LIG    1       14.297  45.961  13.132  0.00  0.00    -0.507 OA
ATOM     19  H   LIG    1       13.715  46.653  12.779  0.00  0.00    +0.292 HD
ENDBRANCH  15  18
ENDBRANCH   1  12
TORSDOF 4
ENDMDL
MODEL 7
REMARK VINA RESULT:      -7.6      2.615      5.528
REMARK  Name = 
REMARK                            x       y       z     vdW  Elec       q    Type
REMARK                         _______ _______ _______ _____ _____    ______ ____
ROOT
ATOM      1  C   LIG    1       18.502  48.427  15.619  0.00  0.00    +0.015 C 
ATOM      2  C   LIG    1       19.677  47.414  15.723  0.00  0.00    +0.021 C 
ATOM      3  C   LIG    1       19.067  49.583  14.746  0.00  0.00    +0.021 C 
ENDROOT
BRANCH   1   7
ATOM      4  C   LIG    1       17.432  50.086  19.511  0.00  0.00    +0.117 A 
ATOM      5  C   LIG    1       17.112  50.792  18.362  0.00  0.00    +0.046 A 
ATOM      6  C   LIG    1       17.428  50.268  17.103  0.00  0.00    +0.008 A 
ATOM      7  C   LIG    1       18.072  49.025  16.981  0.00  0.00    -0.037 A 
ATOM      8  C   LIG    1       18.375  48.329  18.172  0.00  0.00    +0.008 A 
ATOM      9  C   LIG    1       18.059  48.852  19.429  0.00  0.00    +0.046 A 
BRANCH   4  10
ATOM     10  O   LIG    1       17.122  50.646  20.715  0.00  0.00    -0.507 OA
ATOM     11  H   LIG    1       16.622  49.996  21.235  0.00  0.00    +0.292 HD
ENDBRANCH   4  10
ENDBRANCH   1   7
BRANCH   1  12
ATOM     12  C   LIG    1       17.284  47.712  14.979  0.00  0.00    -0.037 A 
ATOM     13  C   LIG    1       16.523  48.368  13.990  0.00  0.00    +0.008 A 
ATOM     14  C   LIG    1       15.470  47.725  13.335  0.00  0.00    +0.046 A 
ATOM     15  C   LIG    1       15.174  46.407  13.640  0.00  0.00    +0.117 A 
ATOM     16  C   LIG    1       15.901  45.726  14.608  0.00  0.00    +0.046 A 
ATOM     17  C   LIG    1       16.946  46.378  15.276  0.00  0.00    +0.008 A 
BRANCH  15  18
ATOM     18  O   LIG    1       14.164  45.804  12.952  0.00  0.00    -0.507 OA
ATOM     19  H   LIG    1       14.428  44.890  12.757  0.00  0.00    +0.292 HD
ENDBRANCH  15  18
ENDBRANCH   1  12
TORSDOF 4
ENDMDL
MODEL 8
REMARK VINA RESULT:      -7.6      2.617      4.236
REMARK  Name = 
REMARK                            x       y       z     vdW  Elec       q    Type
REMARK                         _______ _______ _______ _____ _____    ______ ____
ROOT
ATOM      1  C   LIG    1       18.496  48.448  15.623  0.00  0.00    +0.015 C 
ATOM      2  C   LIG    1       19.091  49.601  14.765  0.00  0.00    +0.021 C 
ATOM      3  C   LIG    1       19.659  47.424  15.747  0.00  0.00    +0.021 C 
ENDROOT
BRANCH   1   7
ATOM      4  C   LIG    1       15.168  46.470  13.608  0.00  0.00    +0.117 A 
ATOM      5  C   LIG    1       15.900  45.771  14.556  0.00  0.00    +0.046 A 
ATOM      6  C   LIG    1       16.958  46.394  15.228  0.00  0.00    +0.008 A 
ATOM      7  C   LIG    1       17.297  47.730  14.957  0.00  0.00    -0.037 A 
ATOM      8  C   LIG    1       16.526  48.415  13.992  0.00  0.00    +0.008 A 
ATOM      9  C   LIG    1       15.468  47.794  13.322  0.00  0.00    +0.046 A 
BRANCH   4  10
ATOM     10  O   LIG    1       14.159  45.816  12.965  0.00  0.00    -0.507 OA
ATOM     11  H   LIG    1       13.752  45.194  13.590  0.00  0.00    +0.292 HD
ENDBRANCH   4  10
ENDBRANCH   1   7
BRANCH   1  12
ATOM     12  C   LIG    1       18.039  49.028  16.986  0.00  0.00    -0.037 A 
ATOM     13  C   LIG    1       18.362  48.354  18.181  0.00  0.00    +0.008 A 
ATOM     14  C   LIG    1       18.037  48.888  19.430  0.00  0.00    +0.046 A 
ATOM     15  C   LIG    1       17.403  50.117  19.507  0.00  0.00    +0.117 A 
ATOM     16  C   LIG    1       17.069  50.812  18.353  0.00  0.00    +0.046 A 
ATOM     17  C   LIG    1       17.381  50.268  17.101  0.00  0.00    +0.008 A 
BRANCH  15  18
ATOM     18  O   LIG    1       17.138  50.621  20.745  0.00  0.00    -0.507 OA
ATOM     19  H   LIG    1       17.697  50.161  21.391  0.00  0.00    +0.292 HD
ENDBRANCH  15  18
ENDBRANCH   1  12
TORSDOF 4
ENDMDL
MODEL 9
REMARK VINA RESULT:      -7.5      2.951      3.996
REMARK  Name = 
REMARK                            x       y       z     vdW  Elec       q    Type
REMARK                         _______ _______ _______ _____ _____    ______ ____
ROOT
ATOM      1  C   LIG    1       18.113  48.435  16.431  0.00  0.00    +0.015 C 
ATOM      2  C   LIG    1       18.790  49.720  15.877  0.00  0.00    +0.021 C 
ATOM      3  C   LIG    1       19.302  47.509  16.812  0.00  0.00    +0.021 C 
ENDROOT
BRANCH   1   7
ATOM      4  C   LIG    1       15.586  46.268  13.608  0.00  0.00    +0.117 A 
ATOM      5  C   LIG    1       15.763  47.634  13.450  0.00  0.00    +0.046 A 
ATOM      6  C   LIG    1       16.585  48.344  14.332  0.00  0.00    +0.008 A 
ATOM      7  C   LIG    1       17.243  47.691  15.388  0.00  0.00    -0.037 A 
ATOM      8  C   LIG    1       17.048  46.297  15.514  0.00  0.00    +0.008 A 
ATOM      9  C   LIG    1       16.227  45.588  14.632  0.00  0.00    +0.046 A 
BRANCH   4  10
ATOM     10  O   LIG    1       14.760  45.623  12.735  0.00  0.00    -0.507 OA
ATOM     11  H   LIG    1       14.913  45.984  11.847  0.00  0.00    +0.292 HD
ENDBRANCH   4  10
ENDBRANCH   1   7
BRANCH   1  12
ATOM     12  C   LIG    1       17.223  48.824  17.639  0.00  0.00    -0.037 A 
ATOM     13  C   LIG    1       17.187  50.161  18.085  0.00  0.00    +0.008 A 
ATOM     14  C   LIG    1       16.337  50.563  19.117  0.00  0.00    +0.046 A 
ATOM     15  C   LIG    1       15.490  49.640  19.708  0.00  0.00    +0.117 A 
ATOM     16  C   LIG    1       15.495  48.314  19.296  0.00  0.00    +0.046 A 
ATOM     17  C   LIG    1       16.360  47.909  18.272  0.00  0.00    +0.008 A 
BRANCH  15  18
ATOM     18  O   LIG    1       14.648  50.080  20.685  0.00  0.00    -0.507 OA
ATOM     19  H   LIG    1       15.170  50.565  21.345  0.00  0.00    +0.292 HD
ENDBRANCH  15  18
ENDBRANCH   1  12
TORSDOF 4
ENDMDL
