REMARK  Name = 
REMARK                            x       y       z     vdW  Elec       q    Type
REMARK                         _______ _______ _______ _____ _____    ______ ____
ROOT
ATOM      1  C   LIG    1        6.458   0.204  -0.657  0.00  0.00    +0.015 C 
ATOM      2  C   LIG    1        7.187  -1.169  -0.688  0.00  0.00    +0.021 C 
ATOM      3  C   LIG    1        7.150   0.980   0.499  0.00  0.00    +0.021 C 
ENDROOT
BRANCH   1   7
ATOM      4  C   LIG    1        2.175   0.010   0.160  0.00  0.00    +0.117 A 
ATOM      5  C   LIG    1        2.903  -1.167   0.073  0.00  0.00    +0.046 A 
ATOM      6  C   LIG    1        4.281  -1.125  -0.168  0.00  0.00    +0.008 A 
ATOM      7  C   LIG    1        4.949   0.101  -0.326  0.00  0.00    -0.037 A 
ATOM      8  C   LIG    1        4.178   1.280  -0.222  0.00  0.00    +0.008 A 
ATOM      9  C   LIG    1        2.802   1.239   0.020  0.00  0.00    +0.046 A 
BRANCH   4  10
ATOM     10  O   LIG    1        0.832  -0.081   0.377  0.00  0.00    -0.507 OA
ATOM     11  H   LIG    1        0.457   0.814   0.351  0.00  0.00    +0.292 HD
ENDBRANCH   4  10
ENDBRANCH   1   7
BRANCH   1  12
ATOM     12  C   LIG    1        6.622   0.885  -2.040  0.00  0.00    -0.037 A 
ATOM     13  C   LIG    1        6.261   0.190  -3.213  0.00  0.00    +0.008 A 
ATOM     14  C   LIG    1        6.319   0.800  -4.468  0.00  0.00    +0.046 A 
ATOM     15  C   LIG    1        6.716   2.123  -4.571  0.00  0.00    +0.117 A 
ATOM     16  C   LIG    1        7.078   2.841  -3.439  0.00  0.00    +0.046 A 
ATOM     17  C   LIG    1        7.036   2.223  -2.183  0.00  0.00    +0.008 A 
BRANCH  15  18
ATOM     18  O   LIG    1        6.722   2.693  -5.809  0.00  0.00    -0.507 OA
ATOM     19  H   LIG    1        6.941   3.634  -5.713  0.00  0.00    +0.292 HD
ENDBRANCH  15  18
ENDBRANCH   1  12
TORSDOF 4
