MODEL 1
REMARK VINA RESULT:      -8.7      0.000      0.000
REMARK  Name = 
REMARK                            x       y       z     vdW  Elec       q    Type
REMARK                         _______ _______ _______ _____ _____    ______ ____
ROOT
ATOM      1  C   LIG    1       -6.997  -4.218  11.843  0.00  0.00    +0.100 C 
ENDROOT
BRANCH   1   6
ATOM      2 CL   LIG    1      -11.588  -0.373  13.025  0.00  0.00    -0.084 Cl
ATOM      3  C   LIG    1      -10.302  -1.449  12.649  0.00  0.00    +0.041 A 
ATOM      4  C   LIG    1       -9.173  -0.985  11.987  0.00  0.00    +0.020 A 
ATOM      5  C   LIG    1       -8.116  -1.859  11.684  0.00  0.00    +0.006 A 
ATOM      6  C   LIG    1       -8.159  -3.213  12.058  0.00  0.00    -0.036 A 
ATOM      7  C   LIG    1       -9.321  -3.647  12.733  0.00  0.00    +0.006 A 
ATOM      8  C   LIG    1      -10.385  -2.784  13.018  0.00  0.00    +0.020 A 
ENDBRANCH   1   6
BRANCH   1   9
ATOM      9  C   LIG    1       -6.061  -4.308  13.076  0.00  0.00    -0.036 A 
ATOM     10  C   LIG    1       -4.691  -4.604  13.001  0.00  0.00    +0.006 A 
ATOM     11  C   LIG    1       -3.890  -4.620  14.152  0.00  0.00    +0.020 A 
ATOM     12  C   LIG    1       -4.450  -4.386  15.401  0.00  0.00    +0.041 A 
ATOM     13 CL   LIG    1       -3.468  -4.428  16.811  0.00  0.00    -0.084 Cl
ATOM     14  C   LIG    1       -5.807  -4.113  15.511  0.00  0.00    +0.020 A 
ATOM     15  C   LIG    1       -6.595  -4.053  14.359  0.00  0.00    +0.006 A 
ENDBRANCH   1   9
BRANCH   1  16
ATOM     16  C   LIG    1       -7.298  -5.574  11.084  0.00  0.00    +0.201 C 
ATOM     17 CL   LIG    1       -8.620  -5.344   9.860  0.00  0.00    -0.082 Cl
ATOM     18 CL   LIG    1       -7.924  -6.827  12.238  0.00  0.00    -0.082 Cl
ATOM     19 CL   LIG    1       -5.909  -6.315  10.210  0.00  0.00    -0.082 Cl
ENDBRANCH   1  16
TORSDOF 3
ENDMDL
MODEL 2
REMARK VINA RESULT:      -8.5      0.943      5.422
REMARK  Name = 
REMARK                            x       y       z     vdW  Elec       q    Type
REMARK                         _______ _______ _______ _____ _____    ______ ____
ROOT
ATOM      1  C   LIG    1       -7.552  -4.985  12.882  0.00  0.00    +0.100 C 
ENDROOT
BRANCH   1   6
ATOM      2 CL   LIG    1       -3.142  -4.281  17.044  0.00  0.00    -0.084 Cl
ATOM      3  C   LIG    1       -4.372  -4.440  15.854  0.00  0.00    +0.041 A 
ATOM      4  C   LIG    1       -4.037  -4.542  14.510  0.00  0.00    +0.020 A 
ATOM      5  C   LIG    1       -5.038  -4.680  13.535  0.00  0.00    +0.006 A 
ATOM      6  C   LIG    1       -6.396  -4.741  13.887  0.00  0.00    -0.036 A 
ATOM      7  C   LIG    1       -6.699  -4.639  15.263  0.00  0.00    +0.006 A 
ATOM      8  C   LIG    1       -5.705  -4.480  16.236  0.00  0.00    +0.020 A 
ENDBRANCH   1   6
BRANCH   1   9
ATOM      9  C   LIG    1       -8.522  -3.779  12.797  0.00  0.00    -0.036 A 
ATOM     10  C   LIG    1       -9.917  -3.883  12.925  0.00  0.00    +0.006 A 
ATOM     11  C   LIG    1      -10.734  -2.744  12.889  0.00  0.00    +0.020 A 
ATOM     12  C   LIG    1      -10.179  -1.487  12.678  0.00  0.00    +0.041 A 
ATOM     13 CL   LIG    1      -11.187  -0.097  12.613  0.00  0.00    -0.084 Cl
ATOM     14  C   LIG    1       -8.806  -1.355  12.525  0.00  0.00    +0.020 A 
ATOM     15  C   LIG    1       -7.989  -2.485  12.606  0.00  0.00    +0.006 A 
ENDBRANCH   1   9
BRANCH   1  16
ATOM     16  C   LIG    1       -7.231  -5.731  11.524  0.00  0.00    +0.201 C 
ATOM     17 CL   LIG    1       -6.528  -4.578  10.309  0.00  0.00    -0.082 Cl
ATOM     18 CL   LIG    1       -8.754  -6.361  10.764  0.00  0.00    -0.082 Cl
ATOM     19 CL   LIG    1       -6.090  -7.120  11.636  0.00  0.00    -0.082 Cl
ENDBRANCH   1  16
TORSDOF 3
ENDMDL
MODEL 3
REMARK VINA RESULT:      -8.0      1.958      4.768
REMARK  Name = 
REMARK                            x       y       z     vdW  Elec       q    Type
REMARK                         _______ _______ _______ _____ _____    ______ ____
ROOT
ATOM      1  C   LIG    1       -7.711  -4.712  13.077  0.00  0.00    +0.100 C 
ENDROOT
BRANCH   1   6
ATOM      2 CL   LIG    1       -6.026  -9.214   9.314  0.00  0.00    -0.084 Cl
ATOM      3  C   LIG    1       -6.541  -7.946  10.354  0.00  0.00    +0.041 A 
ATOM      4  C   LIG    1       -7.570  -8.160  11.262  0.00  0.00    +0.020 A 
ATOM      5  C   LIG    1       -7.989  -7.130  12.120  0.00  0.00    +0.006 A 
ATOM      6  C   LIG    1       -7.370  -5.869  12.102  0.00  0.00    -0.036 A 
ATOM      7  C   LIG    1       -6.325  -5.690  11.169  0.00  0.00    +0.006 A 
ATOM      8  C   LIG    1       -5.920  -6.707  10.298  0.00  0.00    +0.020 A 
ENDBRANCH   1   6
BRANCH   1   9
ATOM      9  C   LIG    1       -6.614  -4.507  14.153  0.00  0.00    -0.036 A 
ATOM     10  C   LIG    1       -6.881  -4.260  15.509  0.00  0.00    +0.006 A 
ATOM     11  C   LIG    1       -5.840  -4.135  16.440  0.00  0.00    +0.020 A 
ATOM     12  C   LIG    1       -4.515  -4.206  16.028  0.00  0.00    +0.041 A 
ATOM     13 CL   LIG    1       -3.243  -4.030  17.170  0.00  0.00    -0.084 Cl
ATOM     14  C   LIG    1       -4.219  -4.426  14.690  0.00  0.00    +0.020 A 
ATOM     15  C   LIG    1       -5.257  -4.596  13.770  0.00  0.00    +0.006 A 
ENDBRANCH   1   9
BRANCH   1  16
ATOM     16  C   LIG    1       -8.384  -3.403  12.494  0.00  0.00    +0.201 C 
ATOM     17 CL   LIG    1      -10.040  -3.164  13.200  0.00  0.00    -0.082 Cl
ATOM     18 CL   LIG    1       -8.640  -3.559  10.704  0.00  0.00    -0.082 Cl
ATOM     19 CL   LIG    1       -7.483  -1.866  12.762  0.00  0.00    -0.082 Cl
ENDBRANCH   1  16
TORSDOF 3
ENDMDL
MODEL 4
REMARK VINA RESULT:      -7.8      2.042      5.346
REMARK  Name = 
REMARK                            x       y       z     vdW  Elec       q    Type
REMARK                         _______ _______ _______ _____ _____    ______ ____
ROOT
ATOM      1  C   LIG    1       -6.910  -4.133  12.586  0.00  0.00    +0.100 C 
ENDROOT
BRANCH   1   6
ATOM      2 CL   LIG    1       -5.194  -5.218  18.343  0.00  0.00    -0.084 Cl
ATOM      3  C   LIG    1       -5.653  -4.875  16.722  0.00  0.00    +0.041 A 
ATOM      4  C   LIG    1       -4.695  -4.836  15.717  0.00  0.00    +0.020 A 
ATOM      5  C   LIG    1       -5.067  -4.564  14.391  0.00  0.00    +0.006 A 
ATOM      6  C   LIG    1       -6.409  -4.347  14.038  0.00  0.00    -0.036 A 
ATOM      7  C   LIG    1       -7.355  -4.399  15.086  0.00  0.00    +0.006 A 
ATOM      8  C   LIG    1       -6.986  -4.648  16.412  0.00  0.00    +0.020 A 
ENDBRANCH   1   6
BRANCH   1   9
ATOM      9  C   LIG    1       -6.731  -5.398  11.709  0.00  0.00    -0.036 A 
ATOM     10  C   LIG    1       -5.878  -5.468  10.597  0.00  0.00    +0.006 A 
ATOM     11  C   LIG    1       -5.723  -6.660   9.876  0.00  0.00    +0.020 A 
ATOM     12  C   LIG    1       -6.452  -7.791  10.223  0.00  0.00    +0.041 A 
ATOM     13 CL   LIG    1       -6.276  -9.244   9.323  0.00  0.00    -0.084 Cl
ATOM     14  C   LIG    1       -7.322  -7.747  11.304  0.00  0.00    +0.020 A 
ATOM     15  C   LIG    1       -7.441  -6.571  12.049  0.00  0.00    +0.006 A 
ENDBRANCH   1   9
BRANCH   1  16
ATOM     16  C   LIG    1       -8.234  -3.295  12.357  0.00  0.00    +0.201 C 
ATOM     17 CL   LIG    1       -8.628  -3.188  10.587  0.00  0.00    -0.082 Cl
ATOM     18 CL   LIG    1       -8.008  -1.580  12.905  0.00  0.00    -0.082 Cl
ATOM     19 CL   LIG    1       -9.713  -3.915  13.177  0.00  0.00    -0.082 Cl
ENDBRANCH   1  16
TORSDOF 3
ENDMDL
MODEL 5
REMARK VINA RESULT:      -7.8      1.814      5.428
REMARK  Name = 
REMARK                            x       y       z     vdW  Elec       q    Type
REMARK                         _______ _______ _______ _____ _____    ______ ____
ROOT
ATOM      1  C   LIG    1       -7.633  -5.238  11.811  0.00  0.00    +0.100 C 
ENDROOT
BRANCH   1   6
ATOM      2 CL   LIG    1       -3.769  -4.346  16.452  0.00  0.00    -0.084 Cl
ATOM      3  C   LIG    1       -4.872  -4.635  15.165  0.00  0.00    +0.041 A 
ATOM      4  C   LIG    1       -6.240  -4.643  15.403  0.00  0.00    +0.020 A 
ATOM      5  C   LIG    1       -7.144  -4.871  14.354  0.00  0.00    +0.006 A 
ATOM      6  C   LIG    1       -6.698  -5.073  13.037  0.00  0.00    -0.036 A 
ATOM      7  C   LIG    1       -5.301  -5.053  12.832  0.00  0.00    +0.006 A 
ATOM      8  C   LIG    1       -4.395  -4.848  13.879  0.00  0.00    +0.020 A 
ENDBRANCH   1   6
BRANCH   1   9
ATOM      9  C   LIG    1       -7.794  -3.920  11.012  0.00  0.00    -0.036 A 
ATOM     10  C   LIG    1       -8.297  -2.728  11.557  0.00  0.00    +0.006 A 
ATOM     11  C   LIG    1       -8.370  -1.555  10.791  0.00  0.00    +0.020 A 
ATOM     12  C   LIG    1       -7.985  -1.563   9.456  0.00  0.00    +0.041 A 
ATOM     13 CL   LIG    1       -8.096  -0.129   8.516  0.00  0.00    -0.084 Cl
ATOM     14  C   LIG    1       -7.505  -2.732   8.882  0.00  0.00    +0.020 A 
ATOM     15  C   LIG    1       -7.392  -3.889   9.658  0.00  0.00    +0.006 A 
ENDBRANCH   1   9
BRANCH   1  16
ATOM     16  C   LIG    1       -7.543  -6.572  10.963  0.00  0.00    +0.201 C 
ATOM     17 CL   LIG    1       -8.837  -6.612   9.689  0.00  0.00    -0.082 Cl
ATOM     18 CL   LIG    1       -7.857  -8.019  12.014  0.00  0.00    -0.082 Cl
ATOM     19 CL   LIG    1       -5.979  -6.868  10.119  0.00  0.00    -0.082 Cl
ENDBRANCH   1  16
TORSDOF 3
ENDMDL
MODEL 6
REMARK VINA RESULT:      -7.6      2.082      5.489
REMARK  Name = 
REMARK                            x       y       z     vdW  Elec       q    Type
REMARK                         _______ _______ _______ _____ _____    ______ ____
ROOT
ATOM      1  C   LIG    1       -6.785  -4.223  12.691  0.00  0.00    +0.100 C 
ENDROOT
BRANCH   1   6
ATOM      2 CL   LIG    1       -5.153  -5.219  18.488  0.00  0.00    -0.084 Cl
ATOM      3  C   LIG    1       -5.589  -4.900  16.856  0.00  0.00    +0.041 A 
ATOM      4  C   LIG    1       -4.612  -4.823  15.873  0.00  0.00    +0.020 A 
ATOM      5  C   LIG    1       -4.965  -4.570  14.538  0.00  0.00    +0.006 A 
ATOM      6  C   LIG    1       -6.307  -4.412  14.155  0.00  0.00    -0.036 A 
ATOM      7  C   LIG    1       -7.273  -4.502  15.181  0.00  0.00    +0.006 A 
ATOM      8  C   LIG    1       -6.924  -4.732  16.516  0.00  0.00    +0.020 A 
ENDBRANCH   1   6
BRANCH   1   9
ATOM      9  C   LIG    1       -6.687  -5.532  11.867  0.00  0.00    -0.036 A 
ATOM     10  C   LIG    1       -7.541  -6.633  12.038  0.00  0.00    +0.006 A 
ATOM     11  C   LIG    1       -7.431  -7.769  11.223  0.00  0.00    +0.020 A 
ATOM     12  C   LIG    1       -6.438  -7.845  10.254  0.00  0.00    +0.041 A 
ATOM     13 CL   LIG    1       -6.293  -9.247   9.272  0.00  0.00    -0.084 Cl
ATOM     14  C   LIG    1       -5.564  -6.781  10.076  0.00  0.00    +0.020 A 
ATOM     15  C   LIG    1       -5.703  -5.632  10.858  0.00  0.00    +0.006 A 
ENDBRANCH   1   9
BRANCH   1  16
ATOM     16  C   LIG    1       -8.046  -3.307  12.417  0.00  0.00    +0.201 C 
ATOM     17 CL   LIG    1       -9.522  -3.989  13.227  0.00  0.00    -0.082 Cl
ATOM     18 CL   LIG    1       -8.441  -3.275  10.646  0.00  0.00    -0.082 Cl
ATOM     19 CL   LIG    1       -7.910  -1.593  12.953  0.00  0.00    -0.082 Cl
ENDBRANCH   1  16
TORSDOF 3
ENDMDL
MODEL 7
REMARK VINA RESULT:      -7.6      2.054      4.156
REMARK  Name = 
REMARK                            x       y       z     vdW  Elec       q    Type
REMARK                         _______ _______ _______ _____ _____    ______ ____
ROOT
ATOM      1  C   LIG    1       -8.284  -3.694  12.337  0.00  0.00    +0.100 C 
ENDROOT
BRANCH   1   6
ATOM      2 CL   LIG    1       -8.306  -7.244   7.371  0.00  0.00    -0.084 Cl
ATOM      3  C   LIG    1       -8.270  -6.271   8.788  0.00  0.00    +0.041 A 
ATOM      4  C   LIG    1       -7.100  -5.622   9.161  0.00  0.00    +0.020 A 
ATOM      5  C   LIG    1       -7.068  -4.820  10.314  0.00  0.00    +0.006 A 
ATOM      6  C   LIG    1       -8.213  -4.634  11.106  0.00  0.00    -0.036 A 
ATOM      7  C   LIG    1       -9.384  -5.307  10.693  0.00  0.00    +0.006 A 
ATOM      8  C   LIG    1       -9.415  -6.124   9.557  0.00  0.00    +0.020 A 
ENDBRANCH   1   6
BRANCH   1   9
ATOM      9  C   LIG    1       -7.256  -4.080  13.432  0.00  0.00    -0.036 A 
ATOM     10  C   LIG    1       -5.872  -4.163  13.214  0.00  0.00    +0.006 A 
ATOM     11  C   LIG    1       -4.991  -4.468  14.262  0.00  0.00    +0.020 A 
ATOM     12  C   LIG    1       -5.480  -4.741  15.534  0.00  0.00    +0.041 A 
ATOM     13 CL   LIG    1       -4.399  -5.135  16.810  0.00  0.00    -0.084 Cl
ATOM     14  C   LIG    1       -6.846  -4.689  15.775  0.00  0.00    +0.020 A 
ATOM     15  C   LIG    1       -7.719  -4.341  14.741  0.00  0.00    +0.006 A 
ENDBRANCH   1   9
BRANCH   1  16
ATOM     16  C   LIG    1       -8.514  -2.147  12.097  0.00  0.00    +0.201 C 
ATOM     17 CL   LIG    1       -7.338  -1.164  13.072  0.00  0.00    -0.082 Cl
ATOM     18 CL   LIG    1      -10.159  -1.647  12.680  0.00  0.00    -0.082 Cl
ATOM     19 CL   LIG    1       -8.369  -1.581  10.393  0.00  0.00    -0.082 Cl
ENDBRANCH   1  16
TORSDOF 3
ENDMDL
MODEL 8
REMARK VINA RESULT:      -7.5      1.995      5.838
REMARK  Name = 
REMARK                            x       y       z     vdW  Elec       q    Type
REMARK                         _______ _______ _______ _____ _____    ______ ____
ROOT
ATOM      1  C   LIG    1       -7.384  -3.256  12.132  0.00  0.00    +0.100 C 
ENDROOT
BRANCH   1   6
ATOM      2 CL   LIG    1       -4.884  -5.325  17.302  0.00  0.00    -0.084 Cl
ATOM      3  C   LIG    1       -5.610  -4.782  15.841  0.00  0.00    +0.041 A 
ATOM      4  C   LIG    1       -6.989  -4.643  15.754  0.00  0.00    +0.020 A 
ATOM      5  C   LIG    1       -7.585  -4.192  14.566  0.00  0.00    +0.006 A 
ATOM      6  C   LIG    1       -6.810  -3.848  13.445  0.00  0.00    -0.036 A 
ATOM      7  C   LIG    1       -5.412  -3.998  13.573  0.00  0.00    +0.006 A 
ATOM      8  C   LIG    1       -4.815  -4.467  14.748  0.00  0.00    +0.020 A 
ENDBRANCH   1   6
BRANCH   1   9
ATOM      9  C   LIG    1       -7.589  -4.336  11.039  0.00  0.00    -0.036 A 
ATOM     10  C   LIG    1       -8.416  -5.460  11.191  0.00  0.00    +0.006 A 
ATOM     11  C   LIG    1       -8.597  -6.374  10.143  0.00  0.00    +0.020 A 
ATOM     12  C   LIG    1       -7.919  -6.208   8.941  0.00  0.00    +0.041 A 
ATOM     13 CL   LIG    1       -8.127  -7.342   7.667  0.00  0.00    -0.084 Cl
ATOM     14  C   LIG    1       -7.076  -5.119   8.768  0.00  0.00    +0.020 A 
ATOM     15  C   LIG    1       -6.931  -4.185   9.798  0.00  0.00    +0.006 A 
ENDBRANCH   1   9
BRANCH   1  16
ATOM     16  C   LIG    1       -8.492  -2.130  12.228  0.00  0.00    +0.201 C 
ATOM     17 CL   LIG    1       -8.675  -1.271  10.639  0.00  0.00    -0.082 Cl
ATOM     18 CL   LIG    1       -7.999  -0.848  13.415  0.00  0.00    -0.082 Cl
ATOM     19 CL   LIG    1      -10.139  -2.680  12.709  0.00  0.00    -0.082 Cl
ENDBRANCH   1  16
TORSDOF 3
ENDMDL
MODEL 9
REMARK VINA RESULT:      -6.0      2.136      4.604
REMARK  Name = 
REMARK                            x       y       z     vdW  Elec       q    Type
REMARK                         _______ _______ _______ _____ _____    ______ ____
ROOT
ATOM      1  C   LIG    1       -8.352  -4.273  12.561  0.00  0.00    +0.100 C 
ENDROOT
BRANCH   1   6
ATOM      2 CL   LIG    1      -11.085   1.182  12.749  0.00  0.00    -0.084 Cl
ATOM      3  C   LIG    1      -10.320  -0.354  12.652  0.00  0.00    +0.041 A 
ATOM      4  C   LIG    1       -9.115  -0.494  11.975  0.00  0.00    +0.020 A 
ATOM      5  C   LIG    1       -8.483  -1.745  11.900  0.00  0.00    +0.006 A 
ATOM      6  C   LIG    1       -9.033  -2.880  12.519  0.00  0.00    -0.036 A 
ATOM      7  C   LIG    1      -10.256  -2.698  13.202  0.00  0.00    +0.006 A 
ATOM      8  C   LIG    1      -10.900  -1.457  13.261  0.00  0.00    +0.020 A 
ENDBRANCH   1   6
BRANCH   1   9
ATOM      9  C   LIG    1       -8.275  -4.932  11.160  0.00  0.00    -0.036 A 
ATOM     10  C   LIG    1       -7.241  -4.701  10.239  0.00  0.00    +0.006 A 
ATOM     11  C   LIG    1       -7.205  -5.371   9.007  0.00  0.00    +0.020 A 
ATOM     12  C   LIG    1       -8.225  -6.246   8.654  0.00  0.00    +0.041 A 
ATOM     13 CL   LIG    1       -8.188  -7.048   7.134  0.00  0.00    -0.084 Cl
ATOM     14  C   LIG    1       -9.273  -6.478   9.534  0.00  0.00    +0.020 A 
ATOM     15  C   LIG    1       -9.284  -5.845  10.779  0.00  0.00    +0.006 A 
ENDBRANCH   1   9
BRANCH   1  16
ATOM     16  C   LIG    1       -7.099  -4.476  13.507  0.00  0.00    +0.201 C 
ATOM     17 CL   LIG    1       -6.014  -3.021  13.459  0.00  0.00    -0.082 Cl
ATOM     18 CL   LIG    1       -6.077  -5.859  12.926  0.00  0.00    -0.082 Cl
ATOM     19 CL   LIG    1       -7.464  -4.790  15.243  0.00  0.00    -0.082 Cl
ENDBRANCH   1  16
TORSDOF 3
ENDMDL
