MODEL 1
REMARK VINA RESULT:      -8.7      0.000      0.000
REMARK  Name = 
REMARK                            x       y       z     vdW  Elec       q    Type
REMARK                         _______ _______ _______ _____ _____    ______ ____
ROOT
ATOM      1  C   LIG    1       60.963  47.042  29.755  0.00  0.00    +0.100 C 
ENDROOT
BRANCH   1   6
ATOM      2 CL   LIG    1       55.389  44.644  30.419  0.00  0.00    -0.084 Cl
ATOM      3  C   LIG    1       56.967  45.289  30.200  0.00  0.00    +0.041 A 
ATOM      4  C   LIG    1       57.320  45.879  28.993  0.00  0.00    +0.020 A 
ATOM      5  C   LIG    1       58.605  46.414  28.812  0.00  0.00    +0.006 A 
ATOM      6  C   LIG    1       59.558  46.391  29.844  0.00  0.00    -0.036 A 
ATOM      7  C   LIG    1       59.161  45.788  31.058  0.00  0.00    +0.006 A 
ATOM      8  C   LIG    1       57.888  45.234  31.235  0.00  0.00    +0.020 A 
ENDBRANCH   1   6
BRANCH   1   9
ATOM      9  C   LIG    1       61.861  46.670  30.962  0.00  0.00    -0.036 A 
ATOM     10  C   LIG    1       62.869  45.694  30.919  0.00  0.00    +0.006 A 
ATOM     11  C   LIG    1       63.682  45.441  32.034  0.00  0.00    +0.020 A 
ATOM     12  C   LIG    1       63.472  46.126  33.225  0.00  0.00    +0.041 A 
ATOM     13 CL   LIG    1       64.456  45.798  34.596  0.00  0.00    -0.084 Cl
ATOM     14  C   LIG    1       62.468  47.081  33.306  0.00  0.00    +0.020 A 
ATOM     15  C   LIG    1       61.689  47.363  32.181  0.00  0.00    +0.006 A 
ENDBRANCH   1   9
BRANCH   1  16
ATOM     16  C   LIG    1       61.673  47.121  28.343  0.00  0.00    +0.201 C 
ATOM     17 CL   LIG    1       63.292  47.934  28.483  0.00  0.00    -0.082 Cl
ATOM     18 CL   LIG    1       60.712  48.155  27.202  0.00  0.00    -0.082 Cl
ATOM     19 CL   LIG    1       61.957  45.549  27.512  0.00  0.00    -0.082 Cl
ENDBRANCH   1  16
TORSDOF 3
ENDMDL
MODEL 2
REMARK VINA RESULT:      -8.7      0.381      1.091
REMARK  Name = 
REMARK                            x       y       z     vdW  Elec       q    Type
REMARK                         _______ _______ _______ _____ _____    ______ ____
ROOT
ATOM      1  C   LIG    1       60.979  47.076  29.697  0.00  0.00    +0.100 C 
ENDROOT
BRANCH   1   6
ATOM      2 CL   LIG    1       55.401  44.597  29.674  0.00  0.00    -0.084 Cl
ATOM      3  C   LIG    1       56.967  45.304  29.724  0.00  0.00    +0.041 A 
ATOM      4  C   LIG    1       57.962  44.745  30.515  0.00  0.00    +0.020 A 
ATOM      5  C   LIG    1       59.245  45.314  30.553  0.00  0.00    +0.006 A 
ATOM      6  C   LIG    1       59.565  46.444  29.782  0.00  0.00    -0.036 A 
ATOM      7  C   LIG    1       58.529  46.982  28.987  0.00  0.00    +0.006 A 
ATOM      8  C   LIG    1       57.243  46.430  28.963  0.00  0.00    +0.020 A 
ENDBRANCH   1   6
BRANCH   1   9
ATOM      9  C   LIG    1       61.864  46.703  30.914  0.00  0.00    -0.036 A 
ATOM     10  C   LIG    1       62.901  45.758  30.871  0.00  0.00    +0.006 A 
ATOM     11  C   LIG    1       63.698  45.504  31.996  0.00  0.00    +0.020 A 
ATOM     12  C   LIG    1       63.444  46.155  33.197  0.00  0.00    +0.041 A 
ATOM     13 CL   LIG    1       64.410  45.826  34.580  0.00  0.00    -0.084 Cl
ATOM     14  C   LIG    1       62.411  47.079  33.278  0.00  0.00    +0.020 A 
ATOM     15  C   LIG    1       61.647  47.363  32.144  0.00  0.00    +0.006 A 
ENDBRANCH   1   9
BRANCH   1  16
ATOM     16  C   LIG    1       61.701  47.133  28.289  0.00  0.00    +0.201 C 
ATOM     17 CL   LIG    1       63.316  47.952  28.428  0.00  0.00    -0.082 Cl
ATOM     18 CL   LIG    1       60.746  48.144  27.123  0.00  0.00    -0.082 Cl
ATOM     19 CL   LIG    1       61.995  45.547  27.487  0.00  0.00    -0.082 Cl
ENDBRANCH   1  16
TORSDOF 3
ENDMDL
MODEL 3
REMARK VINA RESULT:      -8.6      1.524      2.326
REMARK  Name = 
REMARK                            x       y       z     vdW  Elec       q    Type
REMARK                         _______ _______ _______ _____ _____    ______ ____
ROOT
ATOM      1  C   LIG    1       62.213  46.229  29.952  0.00  0.00    +0.100 C 
ENDROOT
BRANCH   1   6
ATOM      2 CL   LIG    1       56.227  46.480  28.785  0.00  0.00    -0.084 Cl
ATOM      3  C   LIG    1       57.903  46.406  29.157  0.00  0.00    +0.041 A 
ATOM      4  C   LIG    1       58.438  45.273  29.756  0.00  0.00    +0.020 A 
ATOM      5  C   LIG    1       59.808  45.205  30.054  0.00  0.00    +0.006 A 
ATOM      6  C   LIG    1       60.677  46.263  29.740  0.00  0.00    -0.036 A 
ATOM      7  C   LIG    1       60.098  47.397  29.128  0.00  0.00    +0.006 A 
ATOM      8  C   LIG    1       58.729  47.477  28.848  0.00  0.00    +0.020 A 
ENDBRANCH   1   6
BRANCH   1   9
ATOM      9  C   LIG    1       62.601  46.260  31.452  0.00  0.00    -0.036 A 
ATOM     10  C   LIG    1       63.620  45.477  32.016  0.00  0.00    +0.006 A 
ATOM     11  C   LIG    1       63.955  45.592  33.373  0.00  0.00    +0.020 A 
ATOM     12  C   LIG    1       63.248  46.455  34.201  0.00  0.00    +0.041 A 
ATOM     13 CL   LIG    1       63.648  46.577  35.868  0.00  0.00    -0.084 Cl
ATOM     14  C   LIG    1       62.219  47.226  33.677  0.00  0.00    +0.020 A 
ATOM     15  C   LIG    1       61.916  47.144  32.316  0.00  0.00    +0.006 A 
ENDBRANCH   1   9
BRANCH   1  16
ATOM     16  C   LIG    1       63.087  45.298  29.015  0.00  0.00    +0.201 C 
ATOM     17 CL   LIG    1       62.596  45.493  27.278  0.00  0.00    -0.082 Cl
ATOM     18 CL   LIG    1       62.799  43.549  29.404  0.00  0.00    -0.082 Cl
ATOM     19 CL   LIG    1       64.867  45.562  29.080  0.00  0.00    -0.082 Cl
ENDBRANCH   1  16
TORSDOF 3
ENDMDL
MODEL 4
REMARK VINA RESULT:      -8.6      1.349      5.642
REMARK  Name = 
REMARK                            x       y       z     vdW  Elec       q    Type
REMARK                         _______ _______ _______ _____ _____    ______ ____
ROOT
ATOM      1  C   LIG    1       62.057  45.871  29.940  0.00  0.00    +0.100 C 
ENDROOT
BRANCH   1   6
ATOM      2 CL   LIG    1       63.386  47.506  35.669  0.00  0.00    -0.084 Cl
ATOM      3  C   LIG    1       63.053  47.058  34.043  0.00  0.00    +0.041 A 
ATOM      4  C   LIG    1       63.780  46.044  33.434  0.00  0.00    +0.020 A 
ATOM      5  C   LIG    1       63.506  45.670  32.109  0.00  0.00    +0.006 A 
ATOM      6  C   LIG    1       62.482  46.289  31.372  0.00  0.00    -0.036 A 
ATOM      7  C   LIG    1       61.762  47.312  32.026  0.00  0.00    +0.006 A 
ATOM      8  C   LIG    1       62.046  47.703  33.340  0.00  0.00    +0.020 A 
ENDBRANCH   1   6
BRANCH   1   9
ATOM      9  C   LIG    1       60.548  46.114  29.680  0.00  0.00    -0.036 A 
ATOM     10  C   LIG    1       60.031  47.276  29.087  0.00  0.00    +0.006 A 
ATOM     11  C   LIG    1       58.658  47.410  28.833  0.00  0.00    +0.020 A 
ATOM     12  C   LIG    1       57.773  46.407  29.208  0.00  0.00    +0.041 A 
ATOM     13 CL   LIG    1       56.089  46.586  28.914  0.00  0.00    -0.084 Cl
ATOM     14  C   LIG    1       58.251  45.256  29.817  0.00  0.00    +0.020 A 
ATOM     15  C   LIG    1       59.624  45.104  30.029  0.00  0.00    +0.006 A 
ENDBRANCH   1   9
BRANCH   1  16
ATOM     16  C   LIG    1       63.040  46.177  28.738  0.00  0.00    +0.201 C 
ATOM     17 CL   LIG    1       62.555  45.244  27.258  0.00  0.00    -0.082 Cl
ATOM     18 CL   LIG    1       64.722  45.618  29.130  0.00  0.00    -0.082 Cl
ATOM     19 CL   LIG    1       63.166  47.904  28.240  0.00  0.00    -0.082 Cl
ENDBRANCH   1  16
TORSDOF 3
ENDMDL
MODEL 5
REMARK VINA RESULT:      -8.5      1.503      2.339
REMARK  Name = 
REMARK                            x       y       z     vdW  Elec       q    Type
REMARK                         _______ _______ _______ _____ _____    ______ ____
ROOT
ATOM      1  C   LIG    1       62.488  46.514  29.598  0.00  0.00    +0.100 C 
ENDROOT
BRANCH   1   6
ATOM      2 CL   LIG    1       56.407  46.343  29.097  0.00  0.00    -0.084 Cl
ATOM      3  C   LIG    1       58.115  46.388  29.282  0.00  0.00    +0.041 A 
ATOM      4  C   LIG    1       58.791  45.293  29.805  0.00  0.00    +0.020 A 
ATOM      5  C   LIG    1       60.187  45.322  29.951  0.00  0.00    +0.006 A 
ATOM      6  C   LIG    1       60.939  46.440  29.556  0.00  0.00    -0.036 A 
ATOM      7  C   LIG    1       60.219  47.532  29.024  0.00  0.00    +0.006 A 
ATOM      8  C   LIG    1       58.825  47.516  28.897  0.00  0.00    +0.020 A 
ENDBRANCH   1   6
BRANCH   1   9
ATOM      9  C   LIG    1       63.078  45.805  30.843  0.00  0.00    -0.036 A 
ATOM     10  C   LIG    1       63.011  46.322  32.147  0.00  0.00    +0.006 A 
ATOM     11  C   LIG    1       63.521  45.604  33.238  0.00  0.00    +0.020 A 
ATOM     12  C   LIG    1       64.147  44.379  33.043  0.00  0.00    +0.041 A 
ATOM     13 CL   LIG    1       64.788  43.513  34.381  0.00  0.00    -0.084 Cl
ATOM     14  C   LIG    1       64.248  43.851  31.763  0.00  0.00    +0.020 A 
ATOM     15  C   LIG    1       63.700  44.547  30.682  0.00  0.00    +0.006 A 
ENDBRANCH   1   9
BRANCH   1  16
ATOM     16  C   LIG    1       63.292  46.350  28.244  0.00  0.00    +0.201 C 
ATOM     17 CL   LIG    1       65.049  46.031  28.575  0.00  0.00    -0.082 Cl
ATOM     18 CL   LIG    1       63.254  47.892  27.288  0.00  0.00    -0.082 Cl
ATOM     19 CL   LIG    1       62.729  45.039  27.145  0.00  0.00    -0.082 Cl
ENDBRANCH   1  16
TORSDOF 3
ENDMDL
MODEL 6
REMARK VINA RESULT:      -8.5      1.351      5.491
REMARK  Name = 
REMARK                            x       y       z     vdW  Elec       q    Type
REMARK                         _______ _______ _______ _____ _____    ______ ____
ROOT
ATOM      1  C   LIG    1       62.053  45.820  29.959  0.00  0.00    +0.100 C 
ENDROOT
BRANCH   1   6
ATOM      2 CL   LIG    1       63.327  47.593  35.659  0.00  0.00    -0.084 Cl
ATOM      3  C   LIG    1       63.009  47.108  34.041  0.00  0.00    +0.041 A 
ATOM      4  C   LIG    1       63.770  46.109  33.448  0.00  0.00    +0.020 A 
ATOM      5  C   LIG    1       63.508  45.704  32.129  0.00  0.00    +0.006 A 
ATOM      6  C   LIG    1       62.464  46.275  31.383  0.00  0.00    -0.036 A 
ATOM      7  C   LIG    1       61.709  47.284  32.021  0.00  0.00    +0.006 A 
ATOM      8  C   LIG    1       61.980  47.706  33.328  0.00  0.00    +0.020 A 
ENDBRANCH   1   6
BRANCH   1   9
ATOM      9  C   LIG    1       60.533  45.987  29.703  0.00  0.00    -0.036 A 
ATOM     10  C   LIG    1       59.569  45.027  30.047  0.00  0.00    +0.006 A 
ATOM     11  C   LIG    1       58.203  45.264  29.834  0.00  0.00    +0.020 A 
ATOM     12  C   LIG    1       57.780  46.441  29.230  0.00  0.00    +0.041 A 
ATOM     13 CL   LIG    1       56.107  46.717  28.951  0.00  0.00    -0.084 Cl
ATOM     14  C   LIG    1       58.711  47.400  28.857  0.00  0.00    +0.020 A 
ATOM     15  C   LIG    1       60.068  47.183  29.111  0.00  0.00    +0.006 A 
ENDBRANCH   1   9
BRANCH   1  16
ATOM     16  C   LIG    1       63.015  46.157  28.748  0.00  0.00    +0.201 C 
ATOM     17 CL   LIG    1       62.974  47.933  28.370  0.00  0.00    -0.082 Cl
ATOM     18 CL   LIG    1       62.451  45.329  27.234  0.00  0.00    -0.082 Cl
ATOM     19 CL   LIG    1       64.748  45.717  28.970  0.00  0.00    -0.082 Cl
ENDBRANCH   1  16
TORSDOF 3
ENDMDL
MODEL 7
REMARK VINA RESULT:      -8.2      3.589      6.095
REMARK  Name = 
REMARK                            x       y       z     vdW  Elec       q    Type
REMARK                         _______ _______ _______ _____ _____    ______ ____
ROOT
ATOM      1  C   LIG    1       63.273  45.318  32.782  0.00  0.00    +0.100 C 
ENDROOT
BRANCH   1   6
ATOM      2 CL   LIG    1       60.508  48.882  36.894  0.00  0.00    -0.084 Cl
ATOM      3  C   LIG    1       61.296  47.915  35.712  0.00  0.00    +0.041 A 
ATOM      4  C   LIG    1       62.652  48.081  35.462  0.00  0.00    +0.020 A 
ATOM      5  C   LIG    1       63.301  47.288  34.503  0.00  0.00    +0.006 A 
ATOM      6  C   LIG    1       62.610  46.295  33.788  0.00  0.00    -0.036 A 
ATOM      7  C   LIG    1       61.234  46.152  34.072  0.00  0.00    +0.006 A 
ATOM      8  C   LIG    1       60.579  46.955  35.012  0.00  0.00    +0.020 A 
ENDBRANCH   1   6
BRANCH   1   9
ATOM      9  C   LIG    1       63.356  45.911  31.353  0.00  0.00    -0.036 A 
ATOM     10  C   LIG    1       62.475  46.885  30.855  0.00  0.00    +0.006 A 
ATOM     11  C   LIG    1       62.637  47.417  29.567  0.00  0.00    +0.020 A 
ATOM     12  C   LIG    1       63.651  46.954  28.738  0.00  0.00    +0.041 A 
ATOM     13 CL   LIG    1       63.832  47.594  27.153  0.00  0.00    -0.084 Cl
ATOM     14  C   LIG    1       64.523  45.975  29.193  0.00  0.00    +0.020 A 
ATOM     15  C   LIG    1       64.388  45.478  30.492  0.00  0.00    +0.006 A 
ENDBRANCH   1   9
BRANCH   1  16
ATOM     16  C   LIG    1       64.513  44.459  33.264  0.00  0.00    +0.201 C 
ATOM     17 CL   LIG    1       64.502  42.821  32.481  0.00  0.00    -0.082 Cl
ATOM     18 CL   LIG    1       64.415  44.141  35.048  0.00  0.00    -0.082 Cl
ATOM     19 CL   LIG    1       66.137  45.171  32.948  0.00  0.00    -0.082 Cl
ENDBRANCH   1  16
TORSDOF 3
ENDMDL
MODEL 8
REMARK VINA RESULT:      -7.6      3.050      5.750
REMARK  Name = 
REMARK                            x       y       z     vdW  Elec       q    Type
REMARK                         _______ _______ _______ _____ _____    ______ ____
ROOT
ATOM      1  C   LIG    1       63.126  45.514  32.107  0.00  0.00    +0.100 C 
ENDROOT
BRANCH   1   6
ATOM      2 CL   LIG    1       61.139  48.778  36.868  0.00  0.00    -0.084 Cl
ATOM      3  C   LIG    1       61.688  47.821  35.549  0.00  0.00    +0.041 A 
ATOM      4  C   LIG    1       60.796  47.021  34.846  0.00  0.00    +0.020 A 
ATOM      5  C   LIG    1       61.238  46.244  33.764  0.00  0.00    +0.006 A 
ATOM      6  C   LIG    1       62.580  46.269  33.347  0.00  0.00    -0.036 A 
ATOM      7  C   LIG    1       63.456  47.097  34.082  0.00  0.00    +0.006 A 
ATOM      8  C   LIG    1       63.023  47.857  35.175  0.00  0.00    +0.020 A 
ENDBRANCH   1   6
BRANCH   1   9
ATOM      9  C   LIG    1       62.610  46.117  30.776  0.00  0.00    -0.036 A 
ATOM     10  C   LIG    1       62.582  45.421  29.557  0.00  0.00    +0.006 A 
ATOM     11  C   LIG    1       62.054  46.009  28.399  0.00  0.00    +0.020 A 
ATOM     12  C   LIG    1       61.589  47.318  28.425  0.00  0.00    +0.041 A 
ATOM     13 CL   LIG    1       60.963  48.043  26.998  0.00  0.00    -0.084 Cl
ATOM     14  C   LIG    1       61.625  48.041  29.610  0.00  0.00    +0.020 A 
ATOM     15  C   LIG    1       62.110  47.438  30.774  0.00  0.00    +0.006 A 
ENDBRANCH   1   9
BRANCH   1  16
ATOM     16  C   LIG    1       64.629  45.019  32.123  0.00  0.00    +0.201 C 
ATOM     17 CL   LIG    1       64.958  44.012  33.599  0.00  0.00    -0.082 Cl
ATOM     18 CL   LIG    1       65.766  46.429  32.239  0.00  0.00    -0.082 Cl
ATOM     19 CL   LIG    1       65.154  44.040  30.705  0.00  0.00    -0.082 Cl
ENDBRANCH   1  16
TORSDOF 3
ENDMDL
MODEL 9
REMARK VINA RESULT:      -7.5      1.969      6.107
REMARK  Name = 
REMARK                            x       y       z     vdW  Elec       q    Type
REMARK                         _______ _______ _______ _____ _____    ______ ____
ROOT
ATOM      1  C   LIG    1       60.987  47.057  31.011  0.00  0.00    +0.100 C 
ENDROOT
BRANCH   1   6
ATOM      2 CL   LIG    1       65.229  47.049  26.622  0.00  0.00    -0.084 Cl
ATOM      3  C   LIG    1       64.012  47.020  27.835  0.00  0.00    +0.041 A 
ATOM      4  C   LIG    1       63.803  45.872  28.589  0.00  0.00    +0.020 A 
ATOM      5  C   LIG    1       62.816  45.846  29.587  0.00  0.00    +0.006 A 
ATOM      6  C   LIG    1       62.031  46.977  29.867  0.00  0.00    -0.036 A 
ATOM      7  C   LIG    1       62.275  48.126  29.084  0.00  0.00    +0.006 A 
ATOM      8  C   LIG    1       63.243  48.150  28.074  0.00  0.00    +0.020 A 
ENDBRANCH   1   6
BRANCH   1   9
ATOM      9  C   LIG    1       59.643  46.386  30.630  0.00  0.00    -0.036 A 
ATOM     10  C   LIG    1       58.923  45.532  31.481  0.00  0.00    +0.006 A 
ATOM     11  C   LIG    1       57.686  44.997  31.094  0.00  0.00    +0.020 A 
ATOM     12  C   LIG    1       57.169  45.267  29.833  0.00  0.00    +0.041 A 
ATOM     13 CL   LIG    1       55.662  44.592  29.354  0.00  0.00    -0.084 Cl
ATOM     14  C   LIG    1       57.868  46.089  28.960  0.00  0.00    +0.020 A 
ATOM     15  C   LIG    1       59.079  46.657  29.364  0.00  0.00    +0.006 A 
ENDBRANCH   1   9
BRANCH   1  16
ATOM     16  C   LIG    1       61.480  46.858  32.502  0.00  0.00    +0.201 C 
ATOM     17 CL   LIG    1       62.790  45.602  32.583  0.00  0.00    -0.082 Cl
ATOM     18 CL   LIG    1       60.135  46.218  33.539  0.00  0.00    -0.082 Cl
ATOM     19 CL   LIG    1       62.122  48.326  33.325  0.00  0.00    -0.082 Cl
ENDBRANCH   1  16
TORSDOF 3
ENDMDL
