MODEL 1
REMARK VINA RESULT:      -8.8      0.000      0.000
REMARK  Name = 
REMARK                            x       y       z     vdW  Elec       q    Type
REMARK                         _______ _______ _______ _____ _____    ______ ____
ROOT
ATOM      1  C   LIG    1       39.152  -0.231  15.997  0.00  0.00    +0.100 C 
ENDROOT
BRANCH   1   6
ATOM      2 CL   LIG    1       44.483  -1.007  18.867  0.00  0.00    -0.084 Cl
ATOM      3  C   LIG    1       42.996  -0.748  18.045  0.00  0.00    +0.041 A 
ATOM      4  C   LIG    1       42.976  -0.593  16.665  0.00  0.00    +0.020 A 
ATOM      5  C   LIG    1       41.763  -0.389  15.989  0.00  0.00    +0.006 A 
ATOM      6  C   LIG    1       40.539  -0.358  16.679  0.00  0.00    -0.036 A 
ATOM      7  C   LIG    1       40.598  -0.523  18.080  0.00  0.00    +0.006 A 
ATOM      8  C   LIG    1       41.808  -0.705  18.760  0.00  0.00    +0.020 A 
ENDBRANCH   1   6
BRANCH   1   9
ATOM      9  C   LIG    1       38.562   1.197  16.125  0.00  0.00    -0.036 A 
ATOM     10  C   LIG    1       39.132   2.337  15.538  0.00  0.00    +0.006 A 
ATOM     11  C   LIG    1       38.519   3.593  15.650  0.00  0.00    +0.020 A 
ATOM     12  C   LIG    1       37.351   3.741  16.389  0.00  0.00    +0.041 A 
ATOM     13 CL   LIG    1       36.614   5.287  16.541  0.00  0.00    -0.084 Cl
ATOM     14  C   LIG    1       36.776   2.636  17.000  0.00  0.00    +0.020 A 
ATOM     15  C   LIG    1       37.364   1.378  16.851  0.00  0.00    +0.006 A 
ENDBRANCH   1   9
BRANCH   1  16
ATOM     16  C   LIG    1       38.913  -0.974  14.620  0.00  0.00    +0.201 C 
ATOM     17 CL   LIG    1       37.149  -0.980  14.191  0.00  0.00    -0.082 Cl
ATOM     18 CL   LIG    1       39.384  -2.722  14.747  0.00  0.00    -0.082 Cl
ATOM     19 CL   LIG    1       39.787  -0.299  13.197  0.00  0.00    -0.082 Cl
ENDBRANCH   1  16
TORSDOF 3
ENDMDL
MODEL 2
REMARK VINA RESULT:      -8.6      0.393      1.589
REMARK  Name = 
REMARK                            x       y       z     vdW  Elec       q    Type
REMARK                         _______ _______ _______ _____ _____    ______ ____
ROOT
ATOM      1  C   LIG    1       39.047  -0.405  16.096  0.00  0.00    +0.100 C 
ENDROOT
BRANCH   1   6
ATOM      2 CL   LIG    1       44.297  -1.155  19.117  0.00  0.00    -0.084 Cl
ATOM      3  C   LIG    1       42.802  -0.979  18.288  0.00  0.00    +0.041 A 
ATOM      4  C   LIG    1       41.642  -0.683  18.992  0.00  0.00    +0.020 A 
ATOM      5  C   LIG    1       40.420  -0.531  18.318  0.00  0.00    +0.006 A 
ATOM      6  C   LIG    1       40.337  -0.650  16.921  0.00  0.00    -0.036 A 
ATOM      7  C   LIG    1       41.537  -0.946  16.239  0.00  0.00    +0.006 A 
ATOM      8  C   LIG    1       42.753  -1.120  16.909  0.00  0.00    +0.020 A 
ENDBRANCH   1   6
BRANCH   1   9
ATOM      9  C   LIG    1       38.558   1.063  16.188  0.00  0.00    -0.036 A 
ATOM     10  C   LIG    1       37.340   1.449  16.769  0.00  0.00    +0.006 A 
ATOM     11  C   LIG    1       36.981   2.802  16.867  0.00  0.00    +0.020 A 
ATOM     12  C   LIG    1       37.808   3.788  16.344  0.00  0.00    +0.041 A 
ATOM     13 CL   LIG    1       37.354   5.442  16.447  0.00  0.00    -0.084 Cl
ATOM     14  C   LIG    1       39.009   3.435  15.743  0.00  0.00    +0.020 A 
ATOM     15  C   LIG    1       39.386   2.091  15.687  0.00  0.00    +0.006 A 
ENDBRANCH   1   9
BRANCH   1  16
ATOM     16  C   LIG    1       38.904  -1.110  14.686  0.00  0.00    +0.201 C 
ATOM     17 CL   LIG    1       37.179  -1.067  14.118  0.00  0.00    -0.082 Cl
ATOM     18 CL   LIG    1       39.328  -2.871  14.806  0.00  0.00    -0.082 Cl
ATOM     19 CL   LIG    1       39.902  -0.422  13.354  0.00  0.00    -0.082 Cl
ENDBRANCH   1  16
TORSDOF 3
ENDMDL
MODEL 3
REMARK VINA RESULT:      -8.6      0.672      5.704
REMARK  Name = 
REMARK                            x       y       z     vdW  Elec       q    Type
REMARK                         _______ _______ _______ _____ _____    ______ ____
ROOT
ATOM      1  C   LIG    1       39.978   0.237  15.349  0.00  0.00    +0.100 C 
ENDROOT
BRANCH   1   6
ATOM      2 CL   LIG    1       36.032   4.530  17.154  0.00  0.00    -0.084 Cl
ATOM      3  C   LIG    1       37.153   3.313  16.689  0.00  0.00    +0.041 A 
ATOM      4  C   LIG    1       36.936   1.989  17.047  0.00  0.00    +0.020 A 
ATOM      5  C   LIG    1       37.845   0.990  16.662  0.00  0.00    +0.006 A 
ATOM      6  C   LIG    1       38.979   1.293  15.891  0.00  0.00    -0.036 A 
ATOM      7  C   LIG    1       39.164   2.649  15.542  0.00  0.00    +0.006 A 
ATOM      8  C   LIG    1       38.272   3.650  15.942  0.00  0.00    +0.020 A 
ENDBRANCH   1   6
BRANCH   1   9
ATOM      9  C   LIG    1       41.079  -0.115  16.380  0.00  0.00    -0.036 A 
ATOM     10  C   LIG    1       40.850  -0.252  17.759  0.00  0.00    +0.006 A 
ATOM     11  C   LIG    1       41.882  -0.623  18.632  0.00  0.00    +0.020 A 
ATOM     12  C   LIG    1       43.172  -0.818  18.152  0.00  0.00    +0.041 A 
ATOM     13 CL   LIG    1       44.439  -1.252  19.229  0.00  0.00    -0.084 Cl
ATOM     14  C   LIG    1       43.436  -0.669  16.798  0.00  0.00    +0.020 A 
ATOM     15  C   LIG    1       42.396  -0.342  15.922  0.00  0.00    +0.006 A 
ENDBRANCH   1   9
BRANCH   1  16
ATOM     16  C   LIG    1       39.417  -0.959  14.477  0.00  0.00    +0.201 C 
ATOM     17 CL   LIG    1       39.440  -2.509  15.423  0.00  0.00    -0.082 Cl
ATOM     18 CL   LIG    1       40.484  -1.256  13.039  0.00  0.00    -0.082 Cl
ATOM     19 CL   LIG    1       37.740  -0.762  13.851  0.00  0.00    -0.082 Cl
ENDBRANCH   1  16
TORSDOF 3
ENDMDL
MODEL 4
REMARK VINA RESULT:      -8.4      1.194      5.542
REMARK  Name = 
REMARK                            x       y       z     vdW  Elec       q    Type
REMARK                         _______ _______ _______ _____ _____    ______ ____
ROOT
ATOM      1  C   LIG    1       39.966  -0.271  15.622  0.00  0.00    +0.100 C 
ENDROOT
BRANCH   1   6
ATOM      2 CL   LIG    1       38.038   5.451  16.521  0.00  0.00    -0.084 Cl
ATOM      3  C   LIG    1       38.544   3.831  16.244  0.00  0.00    +0.041 A 
ATOM      4  C   LIG    1       38.823   3.397  14.955  0.00  0.00    +0.020 A 
ATOM      5  C   LIG    1       39.244   2.077  14.724  0.00  0.00    +0.006 A 
ATOM      6  C   LIG    1       39.417   1.171  15.783  0.00  0.00    -0.036 A 
ATOM      7  C   LIG    1       39.128   1.650  17.080  0.00  0.00    +0.006 A 
ATOM      8  C   LIG    1       38.688   2.958  17.312  0.00  0.00    +0.020 A 
ENDBRANCH   1   6
BRANCH   1   9
ATOM      9  C   LIG    1       41.299  -0.482  16.384  0.00  0.00    -0.036 A 
ATOM     10  C   LIG    1       42.562  -0.481  15.772  0.00  0.00    +0.006 A 
ATOM     11  C   LIG    1       43.734  -0.627  16.528  0.00  0.00    +0.020 A 
ATOM     12  C   LIG    1       43.663  -0.823  17.902  0.00  0.00    +0.041 A 
ATOM     13 CL   LIG    1       45.101  -1.023  18.822  0.00  0.00    -0.084 Cl
ATOM     14  C   LIG    1       42.428  -0.852  18.534  0.00  0.00    +0.020 A 
ATOM     15  C   LIG    1       41.263  -0.662  17.785  0.00  0.00    +0.006 A 
ENDBRANCH   1   9
BRANCH   1  16
ATOM     16  C   LIG    1       38.942  -1.478  15.640  0.00  0.00    +0.201 C 
ATOM     17 CL   LIG    1       39.639  -2.924  14.789  0.00  0.00    -0.082 Cl
ATOM     18 CL   LIG    1       37.437  -1.055  14.718  0.00  0.00    -0.082 Cl
ATOM     19 CL   LIG    1       38.416  -2.043  17.268  0.00  0.00    -0.082 Cl
ENDBRANCH   1  16
TORSDOF 3
ENDMDL
MODEL 5
REMARK VINA RESULT:      -8.0      1.416      2.117
REMARK  Name = 
REMARK                            x       y       z     vdW  Elec       q    Type
REMARK                         _______ _______ _______ _____ _____    ______ ____
ROOT
ATOM      1  C   LIG    1       39.697  -0.770  15.593  0.00  0.00    +0.100 C 
ENDROOT
BRANCH   1   6
ATOM      2 CL   LIG    1       45.511  -2.039  16.952  0.00  0.00    -0.084 Cl
ATOM      3  C   LIG    1       43.866  -1.726  16.564  0.00  0.00    +0.041 A 
ATOM      4  C   LIG    1       42.851  -2.204  17.382  0.00  0.00    +0.020 A 
ATOM      5  C   LIG    1       41.506  -1.944  17.073  0.00  0.00    +0.006 A 
ATOM      6  C   LIG    1       41.150  -1.179  15.950  0.00  0.00    -0.036 A 
ATOM      7  C   LIG    1       42.209  -0.706  15.145  0.00  0.00    +0.006 A 
ATOM      8  C   LIG    1       43.549  -0.981  15.437  0.00  0.00    +0.020 A 
ENDBRANCH   1   6
BRANCH   1   9
ATOM      9  C   LIG    1       39.437   0.741  15.821  0.00  0.00    -0.036 A 
ATOM     10  C   LIG    1       39.641   1.728  14.845  0.00  0.00    +0.006 A 
ATOM     11  C   LIG    1       39.337   3.073  15.100  0.00  0.00    +0.020 A 
ATOM     12  C   LIG    1       38.871   3.463  16.350  0.00  0.00    +0.041 A 
ATOM     13 CL   LIG    1       38.521   5.116  16.665  0.00  0.00    -0.084 Cl
ATOM     14  C   LIG    1       38.681   2.513  17.344  0.00  0.00    +0.020 A 
ATOM     15  C   LIG    1       38.941   1.167  17.073  0.00  0.00    +0.006 A 
ENDBRANCH   1   9
BRANCH   1  16
ATOM     16  C   LIG    1       39.018  -1.420  14.319  0.00  0.00    +0.201 C 
ATOM     17 CL   LIG    1       39.228  -3.224  14.329  0.00  0.00    -0.082 Cl
ATOM     18 CL   LIG    1       39.831  -0.848  12.801  0.00  0.00    -0.082 Cl
ATOM     19 CL   LIG    1       37.255  -1.108  14.118  0.00  0.00    -0.082 Cl
ENDBRANCH   1  16
TORSDOF 3
ENDMDL
MODEL 6
REMARK VINA RESULT:      -6.6      1.936      5.874
REMARK  Name = 
REMARK                            x       y       z     vdW  Elec       q    Type
REMARK                         _______ _______ _______ _____ _____    ______ ____
ROOT
ATOM      1  C   LIG    1       38.778   0.758  16.142  0.00  0.00    +0.100 C 
ENDROOT
BRANCH   1   6
ATOM      2 CL   LIG    1       37.382  -2.272  11.030  0.00  0.00    -0.084 Cl
ATOM      3  C   LIG    1       37.815  -1.438  12.470  0.00  0.00    +0.041 A 
ATOM      4  C   LIG    1       38.867  -0.531  12.463  0.00  0.00    +0.020 A 
ATOM      5  C   LIG    1       39.219   0.158  13.635  0.00  0.00    +0.006 A 
ATOM      6  C   LIG    1       38.511  -0.031  14.833  0.00  0.00    -0.036 A 
ATOM      7  C   LIG    1       37.446  -0.957  14.800  0.00  0.00    +0.006 A 
ATOM      8  C   LIG    1       37.105  -1.662  13.640  0.00  0.00    +0.020 A 
ENDBRANCH   1   6
BRANCH   1   9
ATOM      9  C   LIG    1       40.056   0.272  16.872  0.00  0.00    -0.036 A 
ATOM     10  C   LIG    1       40.089  -0.125  18.218  0.00  0.00    +0.006 A 
ATOM     11  C   LIG    1       41.270  -0.603  18.804  0.00  0.00    +0.020 A 
ATOM     12  C   LIG    1       42.449  -0.649  18.071  0.00  0.00    +0.041 A 
ATOM     13 CL   LIG    1       43.899  -1.216  18.799  0.00  0.00    -0.084 Cl
ATOM     14  C   LIG    1       42.454  -0.243  16.744  0.00  0.00    +0.020 A 
ATOM     15  C   LIG    1       41.267   0.191  16.148  0.00  0.00    +0.006 A 
ENDBRANCH   1   9
BRANCH   1  16
ATOM     16  C   LIG    1       38.505   2.317  16.157  0.00  0.00    +0.201 C 
ATOM     17 CL   LIG    1       37.068   2.727  15.125  0.00  0.00    -0.082 Cl
ATOM     18 CL   LIG    1       39.899   3.217  15.421  0.00  0.00    -0.082 Cl
ATOM     19 CL   LIG    1       38.204   3.051  17.774  0.00  0.00    -0.082 Cl
ENDBRANCH   1  16
TORSDOF 3
ENDMDL
MODEL 7
REMARK VINA RESULT:      -6.5      1.961      5.793
REMARK  Name = 
REMARK                            x       y       z     vdW  Elec       q    Type
REMARK                         _______ _______ _______ _____ _____    ______ ____
ROOT
ATOM      1  C   LIG    1       38.844   0.722  16.098  0.00  0.00    +0.100 C 
ENDROOT
BRANCH   1   6
ATOM      2 CL   LIG    1       37.248  -2.271  11.022  0.00  0.00    -0.084 Cl
ATOM      3  C   LIG    1       37.737  -1.450  12.451  0.00  0.00    +0.041 A 
ATOM      4  C   LIG    1       38.830  -0.593  12.427  0.00  0.00    +0.020 A 
ATOM      5  C   LIG    1       39.228   0.086  13.590  0.00  0.00    +0.006 A 
ATOM      6  C   LIG    1       38.526  -0.062  14.797  0.00  0.00    -0.036 A 
ATOM      7  C   LIG    1       37.418  -0.937  14.783  0.00  0.00    +0.006 A 
ATOM      8  C   LIG    1       37.031  -1.632  13.631  0.00  0.00    +0.020 A 
ENDBRANCH   1   6
BRANCH   1   9
ATOM      9  C   LIG    1       40.142   0.223  16.783  0.00  0.00    -0.036 A 
ATOM     10  C   LIG    1       41.384   0.128  16.136  0.00  0.00    +0.006 A 
ATOM     11  C   LIG    1       42.532  -0.284  16.829  0.00  0.00    +0.020 A 
ATOM     12  C   LIG    1       42.451  -0.653  18.166  0.00  0.00    +0.041 A 
ATOM     13 CL   LIG    1       43.856  -1.177  19.005  0.00  0.00    -0.084 Cl
ATOM     14  C   LIG    1       41.232  -0.592  18.827  0.00  0.00    +0.020 A 
ATOM     15  C   LIG    1       40.098  -0.139  18.147  0.00  0.00    +0.006 A 
ENDBRANCH   1   9
BRANCH   1  16
ATOM     16  C   LIG    1       38.586   2.283  16.124  0.00  0.00    +0.201 C 
ATOM     17 CL   LIG    1       38.069   2.820  17.780  0.00  0.00    -0.082 Cl
ATOM     18 CL   LIG    1       37.211   2.723  15.024  0.00  0.00    -0.082 Cl
ATOM     19 CL   LIG    1       39.982   3.322  15.658  0.00  0.00    -0.082 Cl
ENDBRANCH   1  16
TORSDOF 3
ENDMDL
MODEL 8
REMARK VINA RESULT:      -6.4      1.974      5.517
REMARK  Name = 
REMARK                            x       y       z     vdW  Elec       q    Type
REMARK                         _______ _______ _______ _____ _____    ______ ____
ROOT
ATOM      1  C   LIG    1       39.243  -0.012  16.463  0.00  0.00    +0.100 C 
ENDROOT
BRANCH   1   6
ATOM      2 CL   LIG    1       38.077   5.977  16.622  0.00  0.00    -0.084 Cl
ATOM      3  C   LIG    1       38.424   4.293  16.618  0.00  0.00    +0.041 A 
ATOM      4  C   LIG    1       37.834   3.455  17.554  0.00  0.00    +0.020 A 
ATOM      5  C   LIG    1       38.108   2.078  17.550  0.00  0.00    +0.006 A 
ATOM      6  C   LIG    1       38.963   1.507  16.592  0.00  0.00    -0.036 A 
ATOM      7  C   LIG    1       39.541   2.390  15.654  0.00  0.00    +0.006 A 
ATOM      8  C   LIG    1       39.287   3.766  15.668  0.00  0.00    +0.020 A 
ENDBRANCH   1   6
BRANCH   1   9
ATOM      9  C   LIG    1       38.735  -0.593  15.119  0.00  0.00    -0.036 A 
ATOM     10  C   LIG    1       37.426  -1.057  14.909  0.00  0.00    +0.006 A 
ATOM     11  C   LIG    1       37.016  -1.523  13.652  0.00  0.00    +0.020 A 
ATOM     12  C   LIG    1       37.916  -1.578  12.595  0.00  0.00    +0.041 A 
ATOM     13 CL   LIG    1       37.414  -2.170  11.062  0.00  0.00    -0.084 Cl
ATOM     14  C   LIG    1       39.223  -1.148  12.777  0.00  0.00    +0.020 A 
ATOM     15  C   LIG    1       39.618  -0.642  14.018  0.00  0.00    +0.006 A 
ENDBRANCH   1   9
BRANCH   1  16
ATOM     16  C   LIG    1       40.621  -0.578  17.001  0.00  0.00    +0.201 C 
ATOM     17 CL   LIG    1       42.017   0.245  16.181  0.00  0.00    -0.082 Cl
ATOM     18 CL   LIG    1       40.792  -2.338  16.592  0.00  0.00    -0.082 Cl
ATOM     19 CL   LIG    1       40.900  -0.424  18.773  0.00  0.00    -0.082 Cl
ENDBRANCH   1  16
TORSDOF 3
ENDMDL
MODEL 9
REMARK VINA RESULT:      -6.3      2.013      5.426
REMARK  Name = 
REMARK                            x       y       z     vdW  Elec       q    Type
REMARK                         _______ _______ _______ _____ _____    ______ ____
ROOT
ATOM      1  C   LIG    1       39.211  -0.057  16.376  0.00  0.00    +0.100 C 
ENDROOT
BRANCH   1   6
ATOM      2 CL   LIG    1       38.055   5.925  16.746  0.00  0.00    -0.084 Cl
ATOM      3  C   LIG    1       38.398   4.242  16.683  0.00  0.00    +0.041 A 
ATOM      4  C   LIG    1       37.771   3.367  17.561  0.00  0.00    +0.020 A 
ATOM      5  C   LIG    1       38.041   1.990  17.508  0.00  0.00    +0.006 A 
ATOM      6  C   LIG    1       38.930   1.457  16.559  0.00  0.00    -0.036 A 
ATOM      7  C   LIG    1       39.544   2.376  15.681  0.00  0.00    +0.006 A 
ATOM      8  C   LIG    1       39.294   3.751  15.745  0.00  0.00    +0.020 A 
ENDBRANCH   1   6
BRANCH   1   9
ATOM      9  C   LIG    1       38.770  -0.573  14.983  0.00  0.00    -0.036 A 
ATOM     10  C   LIG    1       39.609  -0.609  13.857  0.00  0.00    +0.006 A 
ATOM     11  C   LIG    1       39.162  -1.136  12.637  0.00  0.00    +0.020 A 
ATOM     12  C   LIG    1       37.857  -1.594  12.506  0.00  0.00    +0.041 A 
ATOM     13 CL   LIG    1       37.307  -2.219  11.002  0.00  0.00    -0.084 Cl
ATOM     14  C   LIG    1       36.996  -1.551  13.594  0.00  0.00    +0.020 A 
ATOM     15  C   LIG    1       37.456  -1.066  14.821  0.00  0.00    +0.006 A 
ENDBRANCH   1   9
BRANCH   1  16
ATOM     16  C   LIG    1       40.556  -0.655  16.958  0.00  0.00    +0.201 C 
ATOM     17 CL   LIG    1       40.615  -0.465  18.763  0.00  0.00    -0.082 Cl
ATOM     18 CL   LIG    1       41.989   0.266  16.330  0.00  0.00    -0.082 Cl
ATOM     19 CL   LIG    1       40.862  -2.396  16.613  0.00  0.00    -0.082 Cl
ENDBRANCH   1  16
TORSDOF 3
ENDMDL
