MODEL 1
REMARK VINA RESULT:      -8.3      0.000      0.000
REMARK  Name = 
REMARK                            x       y       z     vdW  Elec       q    Type
REMARK                         _______ _______ _______ _____ _____    ______ ____
ROOT
ATOM      1  C   LIG    1       19.106  28.467  10.380  0.00  0.00    +0.100 C 
ENDROOT
BRANCH   1   6
ATOM      2 CL   LIG    1       14.368  31.968   8.782  0.00  0.00    -0.084 Cl
ATOM      3  C   LIG    1       15.674  30.949   9.241  0.00  0.00    +0.041 A 
ATOM      4  C   LIG    1       15.948  29.795   8.519  0.00  0.00    +0.020 A 
ATOM      5  C   LIG    1       17.018  28.963   8.885  0.00  0.00    +0.006 A 
ATOM      6  C   LIG    1       17.852  29.282   9.970  0.00  0.00    -0.036 A 
ATOM      7  C   LIG    1       17.546  30.465  10.677  0.00  0.00    +0.006 A 
ATOM      8  C   LIG    1       16.467  31.285  10.328  0.00  0.00    +0.020 A 
ENDBRANCH   1   6
BRANCH   1   9
ATOM      9  C   LIG    1       20.247  28.578   9.336  0.00  0.00    -0.036 A 
ATOM     10  C   LIG    1       20.880  27.473   8.745  0.00  0.00    +0.006 A 
ATOM     11  C   LIG    1       21.872  27.643   7.768  0.00  0.00    +0.020 A 
ATOM     12  C   LIG    1       22.282  28.918   7.398  0.00  0.00    +0.041 A 
ATOM     13 CL   LIG    1       23.512  29.121   6.216  0.00  0.00    -0.084 Cl
ATOM     14  C   LIG    1       21.691  30.030   7.981  0.00  0.00    +0.020 A 
ATOM     15  C   LIG    1       20.672  29.859   8.922  0.00  0.00    +0.006 A 
ENDBRANCH   1   9
BRANCH   1  16
ATOM     16  C   LIG    1       19.540  28.458  11.902  0.00  0.00    +0.201 C 
ATOM     17 CL   LIG    1       20.692  27.093  12.234  0.00  0.00    -0.082 Cl
ATOM     18 CL   LIG    1       18.107  28.149  12.973  0.00  0.00    -0.082 Cl
ATOM     19 CL   LIG    1       20.331  29.958  12.508  0.00  0.00    -0.082 Cl
ENDBRANCH   1  16
TORSDOF 3
ENDMDL
MODEL 2
REMARK VINA RESULT:      -8.2      0.925      5.459
REMARK  Name = 
REMARK                            x       y       z     vdW  Elec       q    Type
REMARK                         _______ _______ _______ _____ _____    ______ ____
ROOT
ATOM      1  C   LIG    1       19.361  29.631  10.992  0.00  0.00    +0.100 C 
ENDROOT
BRANCH   1   6
ATOM      2 CL   LIG    1       23.027  27.822   6.458  0.00  0.00    -0.084 Cl
ATOM      3  C   LIG    1       21.960  28.310   7.715  0.00  0.00    +0.041 A 
ATOM      4  C   LIG    1       21.342  27.360   8.517  0.00  0.00    +0.020 A 
ATOM      5  C   LIG    1       20.476  27.755   9.549  0.00  0.00    +0.006 A 
ATOM      6  C   LIG    1       20.229  29.112   9.815  0.00  0.00    -0.036 A 
ATOM      7  C   LIG    1       20.879  30.049   8.982  0.00  0.00    +0.006 A 
ATOM      8  C   LIG    1       21.725  29.659   7.939  0.00  0.00    +0.020 A 
ENDBRANCH   1   6
BRANCH   1   9
ATOM      9  C   LIG    1       18.037  30.274  10.508  0.00  0.00    -0.036 A 
ATOM     10  C   LIG    1       17.474  31.430  11.071  0.00  0.00    +0.006 A 
ATOM     11  C   LIG    1       16.298  31.990  10.552  0.00  0.00    +0.020 A 
ATOM     12  C   LIG    1       15.637  31.380   9.493  0.00  0.00    +0.041 A 
ATOM     13 CL   LIG    1       14.184  32.058   8.874  0.00  0.00    -0.084 Cl
ATOM     14  C   LIG    1       16.156  30.222   8.930  0.00  0.00    +0.020 A 
ATOM     15  C   LIG    1       17.352  29.691   9.419  0.00  0.00    +0.006 A 
ENDBRANCH   1   9
BRANCH   1  16
ATOM     16  C   LIG    1       19.286  28.766  12.316  0.00  0.00    +0.201 C 
ATOM     17 CL   LIG    1       18.200  27.329  12.083  0.00  0.00    -0.082 Cl
ATOM     18 CL   LIG    1       18.534  29.724  13.662  0.00  0.00    -0.082 Cl
ATOM     19 CL   LIG    1       20.853  28.133  12.937  0.00  0.00    -0.082 Cl
ENDBRANCH   1  16
TORSDOF 3
ENDMDL
MODEL 3
REMARK VINA RESULT:      -8.1      0.931      5.519
REMARK  Name = 
REMARK                            x       y       z     vdW  Elec       q    Type
REMARK                         _______ _______ _______ _____ _____    ______ ____
ROOT
ATOM      1  C   LIG    1       19.325  29.727  10.660  0.00  0.00    +0.100 C 
ENDROOT
BRANCH   1   6
ATOM      2 CL   LIG    1       23.160  27.850   6.298  0.00  0.00    -0.084 Cl
ATOM      3  C   LIG    1       22.046  28.361   7.504  0.00  0.00    +0.041 A 
ATOM      4  C   LIG    1       21.321  27.424   8.228  0.00  0.00    +0.020 A 
ATOM      5  C   LIG    1       20.416  27.836   9.219  0.00  0.00    +0.006 A 
ATOM      6  C   LIG    1       20.234  29.196   9.521  0.00  0.00    -0.036 A 
ATOM      7  C   LIG    1       20.992  30.119   8.767  0.00  0.00    +0.006 A 
ATOM      8  C   LIG    1       21.879  29.713   7.764  0.00  0.00    +0.020 A 
ENDBRANCH   1   6
BRANCH   1   9
ATOM      9  C   LIG    1       17.991  30.307  10.127  0.00  0.00    -0.036 A 
ATOM     10  C   LIG    1       17.300  29.795   9.017  0.00  0.00    +0.006 A 
ATOM     11  C   LIG    1       16.069  30.336   8.617  0.00  0.00    +0.020 A 
ATOM     12  C   LIG    1       15.529  31.426   9.289  0.00  0.00    +0.041 A 
ATOM     13 CL   LIG    1       14.031  32.098   8.783  0.00  0.00    -0.084 Cl
ATOM     14  C   LIG    1       16.199  31.969  10.377  0.00  0.00    +0.020 A 
ATOM     15  C   LIG    1       17.404  31.401  10.801  0.00  0.00    +0.006 A 
ENDBRANCH   1   9
BRANCH   1  16
ATOM     16  C   LIG    1       19.250  28.909  12.013  0.00  0.00    +0.201 C 
ATOM     17 CL   LIG    1       18.600  29.945  13.355  0.00  0.00    -0.082 Cl
ATOM     18 CL   LIG    1       20.910  28.410  12.551  0.00  0.00    -0.082 Cl
ATOM     19 CL   LIG    1       18.241  27.417  11.980  0.00  0.00    -0.082 Cl
ENDBRANCH   1  16
TORSDOF 3
ENDMDL
MODEL 4
REMARK VINA RESULT:      -8.1      0.401      2.019
REMARK  Name = 
REMARK                            x       y       z     vdW  Elec       q    Type
REMARK                         _______ _______ _______ _____ _____    ______ ____
ROOT
ATOM      1  C   LIG    1       19.146  28.566  10.252  0.00  0.00    +0.100 C 
ENDROOT
BRANCH   1   6
ATOM      2 CL   LIG    1       14.353  32.049   8.782  0.00  0.00    -0.084 Cl
ATOM      3  C   LIG    1       15.730  31.100   9.180  0.00  0.00    +0.041 A 
ATOM      4  C   LIG    1       16.658  31.564  10.103  0.00  0.00    +0.020 A 
ATOM      5  C   LIG    1       17.780  30.789  10.436  0.00  0.00    +0.006 A 
ATOM      6  C   LIG    1       17.985  29.521   9.868  0.00  0.00    -0.036 A 
ATOM      7  C   LIG    1       17.019  29.079   8.938  0.00  0.00    +0.006 A 
ATOM      8  C   LIG    1       15.911  29.859   8.587  0.00  0.00    +0.020 A 
ENDBRANCH   1   6
BRANCH   1   9
ATOM      9  C   LIG    1       20.318  28.628   9.240  0.00  0.00    -0.036 A 
ATOM     10  C   LIG    1       20.800  29.816   8.667  0.00  0.00    +0.006 A 
ATOM     11  C   LIG    1       21.899  29.807   7.796  0.00  0.00    +0.020 A 
ATOM     12  C   LIG    1       22.506  28.608   7.444  0.00  0.00    +0.041 A 
ATOM     13 CL   LIG    1       23.839  28.600   6.359  0.00  0.00    -0.084 Cl
ATOM     14  C   LIG    1       22.039  27.414   7.975  0.00  0.00    +0.020 A 
ATOM     15  C   LIG    1       20.972  27.429   8.878  0.00  0.00    +0.006 A 
ENDBRANCH   1   9
BRANCH   1  16
ATOM     16  C   LIG    1       19.538  28.425  11.779  0.00  0.00    +0.201 C 
ATOM     17 CL   LIG    1       18.140  28.881  12.846  0.00  0.00    -0.082 Cl
ATOM     18 CL   LIG    1       20.869  29.582  12.207  0.00  0.00    -0.082 Cl
ATOM     19 CL   LIG    1       20.077  26.790  12.308  0.00  0.00    -0.082 Cl
ENDBRANCH   1  16
TORSDOF 3
ENDMDL
MODEL 5
REMARK VINA RESULT:      -7.6      1.969      4.305
REMARK  Name = 
REMARK                            x       y       z     vdW  Elec       q    Type
REMARK                         _______ _______ _______ _____ _____    ______ ____
ROOT
ATOM      1  C   LIG    1       18.357  30.148   9.859  0.00  0.00    +0.100 C 
ENDROOT
BRANCH   1   6
ATOM      2 CL   LIG    1       19.067  28.942  15.801  0.00  0.00    -0.084 Cl
ATOM      3  C   LIG    1       18.829  29.303  14.137  0.00  0.00    +0.041 A 
ATOM      4  C   LIG    1       18.812  30.622  13.703  0.00  0.00    +0.020 A 
ATOM      5  C   LIG    1       18.626  30.921  12.344  0.00  0.00    +0.006 A 
ATOM      6  C   LIG    1       18.474  29.904  11.387  0.00  0.00    -0.036 A 
ATOM      7  C   LIG    1       18.501  28.575  11.865  0.00  0.00    +0.006 A 
ATOM      8  C   LIG    1       18.665  28.274  13.222  0.00  0.00    +0.020 A 
ENDBRANCH   1   6
BRANCH   1   9
ATOM      9  C   LIG    1       19.592  29.624   9.083  0.00  0.00    -0.036 A 
ATOM     10  C   LIG    1       20.616  30.449   8.589  0.00  0.00    +0.006 A 
ATOM     11  C   LIG    1       21.733  29.905   7.939  0.00  0.00    +0.020 A 
ATOM     12  C   LIG    1       21.826  28.535   7.729  0.00  0.00    +0.041 A 
ATOM     13 CL   LIG    1       23.187  27.875   6.913  0.00  0.00    -0.084 Cl
ATOM     14  C   LIG    1       20.819  27.696   8.186  0.00  0.00    +0.020 A 
ATOM     15  C   LIG    1       19.728  28.234   8.873  0.00  0.00    +0.006 A 
ENDBRANCH   1   9
BRANCH   1  16
ATOM     16  C   LIG    1       16.949  29.946   9.165  0.00  0.00    +0.201 C 
ATOM     17 CL   LIG    1       16.922  30.729   7.527  0.00  0.00    -0.082 Cl
ATOM     18 CL   LIG    1       15.643  30.775  10.116  0.00  0.00    -0.082 Cl
ATOM     19 CL   LIG    1       16.421  28.240   8.930  0.00  0.00    -0.082 Cl
ENDBRANCH   1  16
TORSDOF 3
ENDMDL
MODEL 6
REMARK VINA RESULT:      -7.2      1.959      5.919
REMARK  Name = 
REMARK                            x       y       z     vdW  Elec       q    Type
REMARK                         _______ _______ _______ _____ _____    ______ ____
ROOT
ATOM      1  C   LIG    1       18.658  28.706   9.791  0.00  0.00    +0.100 C 
ENDROOT
BRANCH   1   6
ATOM      2 CL   LIG    1       23.674  29.351   6.374  0.00  0.00    -0.084 Cl
ATOM      3  C   LIG    1       22.284  29.185   7.371  0.00  0.00    +0.041 A 
ATOM      4  C   LIG    1       21.695  30.305   7.943  0.00  0.00    +0.020 A 
ATOM      5  C   LIG    1       20.555  30.176   8.752  0.00  0.00    +0.006 A 
ATOM      6  C   LIG    1       19.967  28.922   8.988  0.00  0.00    -0.036 A 
ATOM      7  C   LIG    1       20.590  27.807   8.387  0.00  0.00    +0.006 A 
ATOM      8  C   LIG    1       21.739  27.930   7.597  0.00  0.00    +0.020 A 
ENDBRANCH   1   6
BRANCH   1   9
ATOM      9  C   LIG    1       18.887  28.784  11.322  0.00  0.00    -0.036 A 
ATOM     10  C   LIG    1       19.539  29.847  11.966  0.00  0.00    +0.006 A 
ATOM     11  C   LIG    1       19.668  29.880  13.362  0.00  0.00    +0.020 A 
ATOM     12  C   LIG    1       19.190  28.830  14.136  0.00  0.00    +0.041 A 
ATOM     13 CL   LIG    1       19.370  28.865  15.845  0.00  0.00    -0.084 Cl
ATOM     14  C   LIG    1       18.561  27.753  13.528  0.00  0.00    +0.020 A 
ATOM     15  C   LIG    1       18.393  27.743  12.140  0.00  0.00    +0.006 A 
ENDBRANCH   1   9
BRANCH   1  16
ATOM     16  C   LIG    1       17.318  29.346   9.244  0.00  0.00    +0.201 C 
ATOM     17 CL   LIG    1       16.160  28.054   8.709  0.00  0.00    -0.082 Cl
ATOM     18 CL   LIG    1       17.645  30.343   7.762  0.00  0.00    -0.082 Cl
ATOM     19 CL   LIG    1       16.418  30.400  10.394  0.00  0.00    -0.082 Cl
ENDBRANCH   1  16
TORSDOF 3
ENDMDL
MODEL 7
REMARK VINA RESULT:      -7.1      2.132      4.689
REMARK  Name = 
REMARK                            x       y       z     vdW  Elec       q    Type
REMARK                         _______ _______ _______ _____ _____    ______ ____
ROOT
ATOM      1  C   LIG    1       19.340  30.092  10.514  0.00  0.00    +0.100 C 
ENDROOT
BRANCH   1   6
ATOM      2 CL   LIG    1       13.930  32.272   8.714  0.00  0.00    -0.084 Cl
ATOM      3  C   LIG    1       15.437  31.617   9.221  0.00  0.00    +0.041 A 
ATOM      4  C   LIG    1       16.124  30.728   8.405  0.00  0.00    +0.020 A 
ATOM      5  C   LIG    1       17.358  30.197   8.811  0.00  0.00    +0.006 A 
ATOM      6  C   LIG    1       17.941  30.561  10.036  0.00  0.00    -0.036 A 
ATOM      7  C   LIG    1       17.216  31.470  10.837  0.00  0.00    +0.006 A 
ATOM      8  C   LIG    1       15.975  31.985  10.445  0.00  0.00    +0.020 A 
ENDBRANCH   1   6
BRANCH   1   9
ATOM      9  C   LIG    1       19.371  29.785  12.033  0.00  0.00    -0.036 A 
ATOM     10  C   LIG    1       20.153  30.490  12.961  0.00  0.00    +0.006 A 
ATOM     11  C   LIG    1       20.095  30.194  14.331  0.00  0.00    +0.020 A 
ATOM     12  C   LIG    1       19.292  29.158  14.792  0.00  0.00    +0.041 A 
ATOM     13 CL   LIG    1       19.241  28.785  16.469  0.00  0.00    -0.084 Cl
ATOM     14  C   LIG    1       18.524  28.427  13.897  0.00  0.00    +0.020 A 
ATOM     15  C   LIG    1       18.549  28.753  12.538  0.00  0.00    +0.006 A 
ENDBRANCH   1   9
BRANCH   1  16
ATOM     16  C   LIG    1       20.175  29.124   9.581  0.00  0.00    +0.201 C 
ATOM     17 CL   LIG    1       21.302  28.095  10.566  0.00  0.00    -0.082 Cl
ATOM     18 CL   LIG    1       21.245  30.077   8.466  0.00  0.00    -0.082 Cl
ATOM     19 CL   LIG    1       19.217  27.999   8.550  0.00  0.00    -0.082 Cl
ENDBRANCH   1  16
TORSDOF 3
ENDMDL
MODEL 8
REMARK VINA RESULT:      -7.0      1.895      5.406
REMARK  Name = 
REMARK                            x       y       z     vdW  Elec       q    Type
REMARK                         _______ _______ _______ _____ _____    ______ ____
ROOT
ATOM      1  C   LIG    1       19.022  28.476  10.103  0.00  0.00    +0.100 C 
ENDROOT
BRANCH   1   6
ATOM      2 CL   LIG    1       19.422  28.818  16.184  0.00  0.00    -0.084 Cl
ATOM      3  C   LIG    1       19.326  28.680  14.473  0.00  0.00    +0.041 A 
ATOM      4  C   LIG    1       18.497  27.729  13.893  0.00  0.00    +0.020 A 
ATOM      5  C   LIG    1       18.410  27.618  12.497  0.00  0.00    +0.006 A 
ATOM      6  C   LIG    1       19.134  28.473  11.650  0.00  0.00    -0.036 A 
ATOM      7  C   LIG    1       19.963  29.430  12.275  0.00  0.00    +0.006 A 
ATOM      8  C   LIG    1       20.069  29.530  13.667  0.00  0.00    +0.020 A 
ENDBRANCH   1   6
BRANCH   1   9
ATOM      9  C   LIG    1       17.879  29.393   9.598  0.00  0.00    -0.036 A 
ATOM     10  C   LIG    1       17.083  29.110   8.476  0.00  0.00    +0.006 A 
ATOM     11  C   LIG    1       16.030  29.958   8.102  0.00  0.00    +0.020 A 
ATOM     12  C   LIG    1       15.784  31.127   8.813  0.00  0.00    +0.041 A 
ATOM     13 CL   LIG    1       14.506  32.174   8.338  0.00  0.00    -0.084 Cl
ATOM     14  C   LIG    1       16.568  31.446   9.913  0.00  0.00    +0.020 A 
ATOM     15  C   LIG    1       17.588  30.577  10.311  0.00  0.00    +0.006 A 
ENDBRANCH   1   9
BRANCH   1  16
ATOM     16  C   LIG    1       20.353  28.468   9.246  0.00  0.00    +0.201 C 
ATOM     17 CL   LIG    1       21.625  27.448  10.046  0.00  0.00    -0.082 Cl
ATOM     18 CL   LIG    1       21.062  30.136   9.150  0.00  0.00    -0.082 Cl
ATOM     19 CL   LIG    1       20.199  27.867   7.555  0.00  0.00    -0.082 Cl
ENDBRANCH   1  16
TORSDOF 3
ENDMDL
MODEL 9
REMARK VINA RESULT:      -7.0      2.060      5.607
REMARK  Name = 
REMARK                            x       y       z     vdW  Elec       q    Type
REMARK                         _______ _______ _______ _____ _____    ______ ____
ROOT
ATOM      1  C   LIG    1       19.611  28.628  10.192  0.00  0.00    +0.100 C 
ENDROOT
BRANCH   1   6
ATOM      2 CL   LIG    1       23.644  29.142   5.639  0.00  0.00    -0.084 Cl
ATOM      3  C   LIG    1       22.538  29.017   6.949  0.00  0.00    +0.041 A 
ATOM      4  C   LIG    1       22.033  30.163   7.549  0.00  0.00    +0.020 A 
ATOM      5  C   LIG    1       21.123  30.066   8.614  0.00  0.00    +0.006 A 
ATOM      6  C   LIG    1       20.682  28.818   9.086  0.00  0.00    -0.036 A 
ATOM      7  C   LIG    1       21.213  27.676   8.448  0.00  0.00    +0.006 A 
ATOM      8  C   LIG    1       22.137  27.768   7.401  0.00  0.00    +0.020 A 
ENDBRANCH   1   6
BRANCH   1   9
ATOM      9  C   LIG    1       20.206  28.766  11.617  0.00  0.00    -0.036 A 
ATOM     10  C   LIG    1       20.481  27.679  12.461  0.00  0.00    +0.006 A 
ATOM     11  C   LIG    1       21.067  27.870  13.721  0.00  0.00    +0.020 A 
ATOM     12  C   LIG    1       21.346  29.152  14.178  0.00  0.00    +0.041 A 
ATOM     13 CL   LIG    1       22.046  29.382  15.731  0.00  0.00    -0.084 Cl
ATOM     14  C   LIG    1       21.065  30.249  13.376  0.00  0.00    +0.020 A 
ATOM     15  C   LIG    1       20.522  30.054  12.103  0.00  0.00    +0.006 A 
ENDBRANCH   1   9
BRANCH   1  16
ATOM     16  C   LIG    1       18.170  29.242   9.966  0.00  0.00    +0.201 C 
ATOM     17 CL   LIG    1       17.365  29.595  11.555  0.00  0.00    -0.082 Cl
ATOM     18 CL   LIG    1       17.089  28.044   9.134  0.00  0.00    -0.082 Cl
ATOM     19 CL   LIG    1       18.101  30.764   9.004  0.00  0.00    -0.082 Cl
ENDBRANCH   1  16
TORSDOF 3
ENDMDL
