MODEL 1
REMARK VINA RESULT:      -8.7      0.000      0.000
REMARK  Name = 
REMARK                            x       y       z     vdW  Elec       q    Type
REMARK                         _______ _______ _______ _____ _____    ______ ____
ROOT
ATOM      1  C   LIG    1       31.053  -0.659  26.161  0.00  0.00    +0.100 C 
ENDROOT
BRANCH   1   6
ATOM      2 CL   LIG    1       33.942  -3.936  21.897  0.00  0.00    -0.084 Cl
ATOM      3  C   LIG    1       33.110  -3.051  23.113  0.00  0.00    +0.041 A 
ATOM      4  C   LIG    1       33.372  -3.289  24.456  0.00  0.00    +0.020 A 
ATOM      5  C   LIG    1       32.700  -2.563  25.452  0.00  0.00    +0.006 A 
ATOM      6  C   LIG    1       31.767  -1.566  25.124  0.00  0.00    -0.036 A 
ATOM      7  C   LIG    1       31.529  -1.349  23.749  0.00  0.00    +0.006 A 
ATOM      8  C   LIG    1       32.181  -2.085  22.754  0.00  0.00    +0.020 A 
ENDBRANCH   1   6
BRANCH   1   9
ATOM      9  C   LIG    1       29.754  -1.302  26.710  0.00  0.00    -0.036 A 
ATOM     10  C   LIG    1       28.462  -0.847  26.403  0.00  0.00    +0.006 A 
ATOM     11  C   LIG    1       27.326  -1.507  26.894  0.00  0.00    +0.020 A 
ATOM     12  C   LIG    1       27.460  -2.603  27.738  0.00  0.00    +0.041 A 
ATOM     13 CL   LIG    1       26.065  -3.395  28.355  0.00  0.00    -0.084 Cl
ATOM     14  C   LIG    1       28.725  -3.063  28.079  0.00  0.00    +0.020 A 
ATOM     15  C   LIG    1       29.855  -2.432  27.553  0.00  0.00    +0.006 A 
ENDBRANCH   1   9
BRANCH   1  16
ATOM     16  C   LIG    1       31.936   0.148  27.197  0.00  0.00    +0.201 C 
ATOM     17 CL   LIG    1       30.904   1.271  28.183  0.00  0.00    -0.082 Cl
ATOM     18 CL   LIG    1       33.121   1.217  26.332  0.00  0.00    -0.082 Cl
ATOM     19 CL   LIG    1       32.883  -0.842  28.367  0.00  0.00    -0.082 Cl
ENDBRANCH   1  16
TORSDOF 3
ENDMDL
MODEL 2
REMARK VINA RESULT:      -8.7      0.117      1.562
REMARK  Name = 
REMARK                            x       y       z     vdW  Elec       q    Type
REMARK                         _______ _______ _______ _____ _____    ______ ____
ROOT
ATOM      1  C   LIG    1       31.022  -0.611  26.239  0.00  0.00    +0.100 C 
ENDROOT
BRANCH   1   6
ATOM      2 CL   LIG    1       33.849  -4.047  22.060  0.00  0.00    -0.084 Cl
ATOM      3  C   LIG    1       33.072  -3.043  23.220  0.00  0.00    +0.041 A 
ATOM      4  C   LIG    1       32.162  -2.077  22.811  0.00  0.00    +0.020 A 
ATOM      5  C   LIG    1       31.520  -1.260  23.755  0.00  0.00    +0.006 A 
ATOM      6  C   LIG    1       31.758  -1.408  25.131  0.00  0.00    -0.036 A 
ATOM      7  C   LIG    1       32.686  -2.404  25.509  0.00  0.00    +0.006 A 
ATOM      8  C   LIG    1       33.344  -3.206  24.570  0.00  0.00    +0.020 A 
ENDBRANCH   1   6
BRANCH   1   9
ATOM      9  C   LIG    1       29.786  -1.368  26.787  0.00  0.00    -0.036 A 
ATOM     10  C   LIG    1       29.861  -2.489  27.630  0.00  0.00    +0.006 A 
ATOM     11  C   LIG    1       28.702  -3.097  28.132  0.00  0.00    +0.020 A 
ATOM     12  C   LIG    1       27.447  -2.628  27.764  0.00  0.00    +0.041 A 
ATOM     13 CL   LIG    1       26.029  -3.390  28.365  0.00  0.00    -0.084 Cl
ATOM     14  C   LIG    1       27.339  -1.536  26.914  0.00  0.00    +0.020 A 
ATOM     15  C   LIG    1       28.495  -0.903  26.450  0.00  0.00    +0.006 A 
ENDBRANCH   1   9
BRANCH   1  16
ATOM     16  C   LIG    1       31.885   0.192  27.296  0.00  0.00    +0.201 C 
ATOM     17 CL   LIG    1       30.835   1.320  28.258  0.00  0.00    -0.082 Cl
ATOM     18 CL   LIG    1       33.094   1.255  26.458  0.00  0.00    -0.082 Cl
ATOM     19 CL   LIG    1       32.800  -0.802  28.487  0.00  0.00    -0.082 Cl
ENDBRANCH   1  16
TORSDOF 3
ENDMDL
MODEL 3
REMARK VINA RESULT:      -8.1      2.219      6.061
REMARK  Name = 
REMARK                            x       y       z     vdW  Elec       q    Type
REMARK                         _______ _______ _______ _____ _____    ______ ____
ROOT
ATOM      1  C   LIG    1       29.853  -0.803  27.023  0.00  0.00    +0.100 C 
ENDROOT
BRANCH   1   6
ATOM      2 CL   LIG    1       33.042   1.660  31.609  0.00  0.00    -0.084 Cl
ATOM      3  C   LIG    1       32.108   0.990  30.331  0.00  0.00    +0.041 A 
ATOM      4  C   LIG    1       31.583   1.811  29.342  0.00  0.00    +0.020 A 
ATOM      5  C   LIG    1       30.826   1.267  28.292  0.00  0.00    +0.006 A 
ATOM      6  C   LIG    1       30.598  -0.116  28.198  0.00  0.00    -0.036 A 
ATOM      7  C   LIG    1       31.151  -0.920  29.218  0.00  0.00    +0.006 A 
ATOM      8  C   LIG    1       31.887  -0.379  30.278  0.00  0.00    +0.020 A 
ENDBRANCH   1   6
BRANCH   1   9
ATOM      9  C   LIG    1       30.828  -1.463  26.015  0.00  0.00    -0.036 A 
ATOM     10  C   LIG    1       31.595  -2.604  26.296  0.00  0.00    +0.006 A 
ATOM     11  C   LIG    1       32.420  -3.182  25.320  0.00  0.00    +0.020 A 
ATOM     12  C   LIG    1       32.529  -2.604  24.062  0.00  0.00    +0.041 A 
ATOM     13 CL   LIG    1       33.558  -3.303  22.876  0.00  0.00    -0.084 Cl
ATOM     14  C   LIG    1       31.801  -1.462  23.760  0.00  0.00    +0.020 A 
ATOM     15  C   LIG    1       30.945  -0.913  24.719  0.00  0.00    +0.006 A 
ENDBRANCH   1   9
BRANCH   1  16
ATOM     16  C   LIG    1       28.514  -1.589  27.331  0.00  0.00    +0.201 C 
ATOM     17 CL   LIG    1       27.585  -1.898  25.801  0.00  0.00    -0.082 Cl
ATOM     18 CL   LIG    1       27.412  -0.591  28.371  0.00  0.00    -0.082 Cl
ATOM     19 CL   LIG    1       28.704  -3.183  28.149  0.00  0.00    -0.082 Cl
ENDBRANCH   1  16
TORSDOF 3
ENDMDL
MODEL 4
REMARK VINA RESULT:      -8.1      2.221      5.893
REMARK  Name = 
REMARK                            x       y       z     vdW  Elec       q    Type
REMARK                         _______ _______ _______ _____ _____    ______ ____
ROOT
ATOM      1  C   LIG    1       29.927  -0.801  27.006  0.00  0.00    +0.100 C 
ENDROOT
BRANCH   1   6
ATOM      2 CL   LIG    1       32.902   1.752  31.685  0.00  0.00    -0.084 Cl
ATOM      3  C   LIG    1       32.101   1.010  30.356  0.00  0.00    +0.041 A 
ATOM      4  C   LIG    1       31.922  -0.366  30.327  0.00  0.00    +0.020 A 
ATOM      5  C   LIG    1       31.262  -0.975  29.248  0.00  0.00    +0.006 A 
ATOM      6  C   LIG    1       30.747  -0.215  28.185  0.00  0.00    -0.036 A 
ATOM      7  C   LIG    1       30.945   1.181  28.251  0.00  0.00    +0.006 A 
ATOM      8  C   LIG    1       31.621   1.790  29.314  0.00  0.00    +0.020 A 
ENDBRANCH   1   6
BRANCH   1   9
ATOM      9  C   LIG    1       30.831  -1.427  25.913  0.00  0.00    -0.036 A 
ATOM     10  C   LIG    1       30.950  -0.922  24.609  0.00  0.00    +0.006 A 
ATOM     11  C   LIG    1       31.826  -1.506  23.683  0.00  0.00    +0.020 A 
ATOM     12  C   LIG    1       32.563  -2.632  24.027  0.00  0.00    +0.041 A 
ATOM     13 CL   LIG    1       33.620  -3.358  22.882  0.00  0.00    -0.084 Cl
ATOM     14  C   LIG    1       32.450  -3.169  25.302  0.00  0.00    +0.020 A 
ATOM     15  C   LIG    1       31.611  -2.559  26.238  0.00  0.00    +0.006 A 
ENDBRANCH   1   9
BRANCH   1  16
ATOM     16  C   LIG    1       28.576  -1.561  27.325  0.00  0.00    +0.201 C 
ATOM     17 CL   LIG    1       27.630  -1.858  25.804  0.00  0.00    -0.082 Cl
ATOM     18 CL   LIG    1       27.499  -0.539  28.370  0.00  0.00    -0.082 Cl
ATOM     19 CL   LIG    1       28.742  -3.155  28.148  0.00  0.00    -0.082 Cl
ENDBRANCH   1  16
TORSDOF 3
ENDMDL
MODEL 5
REMARK VINA RESULT:      -8.0      1.223      5.615
REMARK  Name = 
REMARK                            x       y       z     vdW  Elec       q    Type
REMARK                         _______ _______ _______ _____ _____    ______ ____
ROOT
ATOM      1  C   LIG    1       31.113  -1.299  27.219  0.00  0.00    +0.100 C 
ENDROOT
BRANCH   1   6
ATOM      2 CL   LIG    1       25.076  -0.597  26.652  0.00  0.00    -0.084 Cl
ATOM      3  C   LIG    1       26.769  -0.812  26.853  0.00  0.00    +0.041 A 
ATOM      4  C   LIG    1       27.299  -2.085  27.012  0.00  0.00    +0.020 A 
ATOM      5  C   LIG    1       28.683  -2.265  27.169  0.00  0.00    +0.006 A 
ATOM      6  C   LIG    1       29.568  -1.175  27.146  0.00  0.00    -0.036 A 
ATOM      7  C   LIG    1       28.993   0.104  26.977  0.00  0.00    +0.006 A 
ATOM      8  C   LIG    1       27.613   0.290  26.843  0.00  0.00    +0.020 A 
ENDBRANCH   1   6
BRANCH   1   9
ATOM      9  C   LIG    1       31.726  -1.803  25.888  0.00  0.00    -0.036 A 
ATOM     10  C   LIG    1       32.582  -2.911  25.788  0.00  0.00    +0.006 A 
ATOM     11  C   LIG    1       33.062  -3.346  24.544  0.00  0.00    +0.020 A 
ATOM     12  C   LIG    1       32.735  -2.655  23.384  0.00  0.00    +0.041 A 
ATOM     13 CL   LIG    1       33.343  -3.179  21.864  0.00  0.00    -0.084 Cl
ATOM     14  C   LIG    1       31.909  -1.541  23.453  0.00  0.00    +0.020 A 
ATOM     15  C   LIG    1       31.395  -1.136  24.687  0.00  0.00    +0.006 A 
ENDBRANCH   1   9
BRANCH   1  16
ATOM     16  C   LIG    1       31.927  -0.185  27.995  0.00  0.00    +0.201 C 
ATOM     17 CL   LIG    1       33.554  -0.813  28.499  0.00  0.00    -0.082 Cl
ATOM     18 CL   LIG    1       31.084   0.264  29.539  0.00  0.00    -0.082 Cl
ATOM     19 CL   LIG    1       32.222   1.348  27.097  0.00  0.00    -0.082 Cl
ENDBRANCH   1  16
TORSDOF 3
ENDMDL
MODEL 6
REMARK VINA RESULT:      -7.8      2.315      4.263
REMARK  Name = 
REMARK                            x       y       z     vdW  Elec       q    Type
REMARK                         _______ _______ _______ _____ _____    ______ ____
ROOT
ATOM      1  C   LIG    1       29.986  -1.062  27.289  0.00  0.00    +0.100 C 
ENDROOT
BRANCH   1   6
ATOM      2 CL   LIG    1       33.447  -3.153  22.716  0.00  0.00    -0.084 Cl
ATOM      3  C   LIG    1       32.497  -2.526  24.004  0.00  0.00    +0.041 A 
ATOM      4  C   LIG    1       31.729  -1.385  23.816  0.00  0.00    +0.020 A 
ATOM      5  C   LIG    1       30.945  -0.874  24.862  0.00  0.00    +0.006 A 
ATOM      6  C   LIG    1       30.895  -1.509  26.115  0.00  0.00    -0.036 A 
ATOM      7  C   LIG    1       31.685  -2.669  26.267  0.00  0.00    +0.006 A 
ATOM      8  C   LIG    1       32.485  -3.169  25.233  0.00  0.00    +0.020 A 
ENDBRANCH   1   6
BRANCH   1   9
ATOM      9  C   LIG    1       30.770  -0.290  28.380  0.00  0.00    -0.036 A 
ATOM     10  C   LIG    1       30.974   1.099  28.366  0.00  0.00    +0.006 A 
ATOM     11  C   LIG    1       31.649   1.743  29.413  0.00  0.00    +0.020 A 
ATOM     12  C   LIG    1       32.174   1.006  30.468  0.00  0.00    +0.041 A 
ATOM     13 CL   LIG    1       33.020   1.797  31.738  0.00  0.00    -0.084 Cl
ATOM     14  C   LIG    1       32.009  -0.371  30.499  0.00  0.00    +0.020 A 
ATOM     15  C   LIG    1       31.296  -1.006  29.478  0.00  0.00    +0.006 A 
ENDBRANCH   1   9
BRANCH   1  16
ATOM     16  C   LIG    1       28.528  -0.538  26.961  0.00  0.00    +0.201 C 
ATOM     17 CL   LIG    1       27.573  -0.302  28.488  0.00  0.00    -0.082 Cl
ATOM     18 CL   LIG    1       27.606  -1.773  26.002  0.00  0.00    -0.082 Cl
ATOM     19 CL   LIG    1       28.432   1.011  26.048  0.00  0.00    -0.082 Cl
ENDBRANCH   1  16
TORSDOF 3
ENDMDL
MODEL 7
REMARK VINA RESULT:      -7.6      2.211      5.742
REMARK  Name = 
REMARK                            x       y       z     vdW  Elec       q    Type
REMARK                         _______ _______ _______ _____ _____    ______ ____
ROOT
ATOM      1  C   LIG    1       30.396  -0.615  26.887  0.00  0.00    +0.100 C 
ENDROOT
BRANCH   1   6
ATOM      2 CL   LIG    1       25.479  -3.929  28.336  0.00  0.00    -0.084 Cl
ATOM      3  C   LIG    1       26.851  -2.997  27.885  0.00  0.00    +0.041 A 
ATOM      4  C   LIG    1       26.688  -1.738  27.321  0.00  0.00    +0.020 A 
ATOM      5  C   LIG    1       27.806  -0.971  26.959  0.00  0.00    +0.006 A 
ATOM      6  C   LIG    1       29.113  -1.438  27.174  0.00  0.00    -0.036 A 
ATOM      7  C   LIG    1       29.240  -2.720  27.753  0.00  0.00    +0.006 A 
ATOM      8  C   LIG    1       28.128  -3.497  28.095  0.00  0.00    +0.020 A 
ENDBRANCH   1   6
BRANCH   1   9
ATOM      9  C   LIG    1       31.034  -0.050  28.182  0.00  0.00    -0.036 A 
ATOM     10  C   LIG    1       31.628  -0.844  29.176  0.00  0.00    +0.006 A 
ATOM     11  C   LIG    1       32.233  -0.265  30.301  0.00  0.00    +0.020 A 
ATOM     12  C   LIG    1       32.215   1.114  30.476  0.00  0.00    +0.041 A 
ATOM     13 CL   LIG    1       32.940   1.818  31.866  0.00  0.00    -0.084 Cl
ATOM     14  C   LIG    1       31.616   1.924  29.522  0.00  0.00    +0.020 A 
ATOM     15  C   LIG    1       31.053   1.348  28.380  0.00  0.00    +0.006 A 
ENDBRANCH   1   9
BRANCH   1  16
ATOM     16  C   LIG    1       31.396  -1.132  25.774  0.00  0.00    +0.201 C 
ATOM     17 CL   LIG    1       32.912  -0.132  25.758  0.00  0.00    -0.082 Cl
ATOM     18 CL   LIG    1       30.671  -0.934  24.122  0.00  0.00    -0.082 Cl
ATOM     19 CL   LIG    1       31.914  -2.851  25.915  0.00  0.00    -0.082 Cl
ENDBRANCH   1  16
TORSDOF 3
ENDMDL
MODEL 8
REMARK VINA RESULT:      -7.3      2.018      5.595
REMARK  Name = 
REMARK                            x       y       z     vdW  Elec       q    Type
REMARK                         _______ _______ _______ _____ _____    ______ ____
ROOT
ATOM      1  C   LIG    1       30.811  -0.437  26.535  0.00  0.00    +0.100 C 
ENDROOT
BRANCH   1   6
ATOM      2 CL   LIG    1       35.186   1.633  30.254  0.00  0.00    -0.084 Cl
ATOM      3  C   LIG    1       33.931   1.089  29.213  0.00  0.00    +0.041 A 
ATOM      4  C   LIG    1       33.661   1.764  28.030  0.00  0.00    +0.020 A 
ATOM      5  C   LIG    1       32.642   1.319  27.173  0.00  0.00    +0.006 A 
ATOM      6  C   LIG    1       31.887   0.172  27.471  0.00  0.00    -0.036 A 
ATOM      7  C   LIG    1       32.194  -0.491  28.679  0.00  0.00    +0.006 A 
ATOM      8  C   LIG    1       33.194  -0.038  29.547  0.00  0.00    +0.020 A 
ENDBRANCH   1   6
BRANCH   1   9
ATOM      9  C   LIG    1       31.430  -1.320  25.422  0.00  0.00    -0.036 A 
ATOM     10  C   LIG    1       31.299  -1.059  24.048  0.00  0.00    +0.006 A 
ATOM     11  C   LIG    1       31.928  -1.871  23.093  0.00  0.00    +0.020 A 
ATOM     12  C   LIG    1       32.661  -2.983  23.490  0.00  0.00    +0.041 A 
ATOM     13 CL   LIG    1       33.413  -3.986  22.315  0.00  0.00    -0.084 Cl
ATOM     14  C   LIG    1       32.791  -3.280  24.840  0.00  0.00    +0.020 A 
ATOM     15  C   LIG    1       32.200  -2.445  25.792  0.00  0.00    +0.006 A 
ENDBRANCH   1   9
BRANCH   1  16
ATOM     16  C   LIG    1       29.455  -0.949  27.170  0.00  0.00    +0.201 C 
ATOM     17 CL   LIG    1       28.821   0.247  28.382  0.00  0.00    -0.082 Cl
ATOM     18 CL   LIG    1       29.725  -2.482  28.103  0.00  0.00    -0.082 Cl
ATOM     19 CL   LIG    1       28.112  -1.271  26.014  0.00  0.00    -0.082 Cl
ENDBRANCH   1  16
TORSDOF 3
ENDMDL
MODEL 9
REMARK VINA RESULT:      -6.5      6.984     10.815
REMARK  Name = 
REMARK                            x       y       z     vdW  Elec       q    Type
REMARK                         _______ _______ _______ _____ _____    ______ ____
ROOT
ATOM      1  C   LIG    1       34.208  -3.165  17.815  0.00  0.00    +0.100 C 
ENDROOT
BRANCH   1   6
ATOM      2 CL   LIG    1       28.440  -2.648  19.744  0.00  0.00    -0.084 Cl
ATOM      3  C   LIG    1       30.076  -2.763  19.231  0.00  0.00    +0.041 A 
ATOM      4  C   LIG    1       31.051  -3.232  20.102  0.00  0.00    +0.020 A 
ATOM      5  C   LIG    1       32.388  -3.335  19.686  0.00  0.00    +0.006 A 
ATOM      6  C   LIG    1       32.773  -2.992  18.379  0.00  0.00    -0.036 A 
ATOM      7  C   LIG    1       31.754  -2.524  17.521  0.00  0.00    +0.006 A 
ATOM      8  C   LIG    1       30.425  -2.399  17.939  0.00  0.00    +0.020 A 
ENDBRANCH   1   6
BRANCH   1   9
ATOM      9  C   LIG    1       34.252  -4.136  16.608  0.00  0.00    -0.036 A 
ATOM     10  C   LIG    1       34.404  -5.527  16.725  0.00  0.00    +0.006 A 
ATOM     11  C   LIG    1       34.386  -6.355  15.593  0.00  0.00    +0.020 A 
ATOM     12  C   LIG    1       34.262  -5.806  14.323  0.00  0.00    +0.041 A 
ATOM     13 CL   LIG    1       34.261  -6.824  12.938  0.00  0.00    -0.084 Cl
ATOM     14  C   LIG    1       34.133  -4.432  14.173  0.00  0.00    +0.020 A 
ATOM     15  C   LIG    1       34.107  -3.612  15.304  0.00  0.00    +0.006 A 
ENDBRANCH   1   9
BRANCH   1  16
ATOM     16  C   LIG    1       35.149  -1.895  17.735  0.00  0.00    +0.201 C 
ATOM     17 CL   LIG    1       36.797  -2.354  17.127  0.00  0.00    -0.082 Cl
ATOM     18 CL   LIG    1       35.423  -1.198  19.389  0.00  0.00    -0.082 Cl
ATOM     19 CL   LIG    1       34.571  -0.547  16.690  0.00  0.00    -0.082 Cl
ENDBRANCH   1  16
TORSDOF 3
ENDMDL
