MODEL 1
REMARK VINA RESULT:      -7.8      0.000      0.000
REMARK  Name = 
REMARK                            x       y       z     vdW  Elec       q    Type
REMARK                         _______ _______ _______ _____ _____    ______ ____
ROOT
ATOM      1  C   LIG    1       68.627  46.836  97.097  0.00  0.00    +0.100 C 
ENDROOT
BRANCH   1   6
ATOM      2 CL   LIG    1       68.903  49.199  91.475  0.00  0.00    -0.084 Cl
ATOM      3  C   LIG    1       68.815  48.574  93.074  0.00  0.00    +0.041 A 
ATOM      4  C   LIG    1       67.614  48.601  93.771  0.00  0.00    +0.020 A 
ATOM      5  C   LIG    1       67.536  48.084  95.074  0.00  0.00    +0.006 A 
ATOM      6  C   LIG    1       68.654  47.510  95.700  0.00  0.00    -0.036 A 
ATOM      7  C   LIG    1       69.857  47.496  94.959  0.00  0.00    +0.006 A 
ATOM      8  C   LIG    1       69.944  48.029  93.668  0.00  0.00    +0.020 A 
ENDBRANCH   1   6
BRANCH   1   9
ATOM      9  C   LIG    1       68.592  47.872  98.249  0.00  0.00    -0.036 A 
ATOM     10  C   LIG    1       67.458  48.136  99.033  0.00  0.00    +0.006 A 
ATOM     11  C   LIG    1       67.507  49.050 100.095  0.00  0.00    +0.020 A 
ATOM     12  C   LIG    1       68.676  49.752 100.363  0.00  0.00    +0.041 A 
ATOM     13 CL   LIG    1       68.727  50.887 101.653  0.00  0.00    -0.084 Cl
ATOM     14  C   LIG    1       69.808  49.530  99.592  0.00  0.00    +0.020 A 
ATOM     15  C   LIG    1       69.770  48.586  98.562  0.00  0.00    +0.006 A 
ENDBRANCH   1   9
BRANCH   1  16
ATOM     16  C   LIG    1       67.753  45.531  97.292  0.00  0.00    +0.201 C 
ATOM     17 CL   LIG    1       67.982  44.390  95.898  0.00  0.00    -0.082 Cl
ATOM     18 CL   LIG    1       65.985  45.941  97.294  0.00  0.00    -0.082 Cl
ATOM     19 CL   LIG    1       68.072  44.584  98.791  0.00  0.00    -0.082 Cl
ENDBRANCH   1  16
TORSDOF 3
ENDMDL
MODEL 2
REMARK VINA RESULT:      -7.6      0.971      5.774
REMARK  Name = 
REMARK                            x       y       z     vdW  Elec       q    Type
REMARK                         _______ _______ _______ _____ _____    ______ ____
ROOT
ATOM      1  C   LIG    1       67.453  47.599  97.198  0.00  0.00    +0.100 C 
ENDROOT
BRANCH   1   6
ATOM      2 CL   LIG    1       70.093  50.352 101.963  0.00  0.00    -0.084 Cl
ATOM      3  C   LIG    1       69.356  49.614 100.597  0.00  0.00    +0.041 A 
ATOM      4  C   LIG    1       70.089  49.397  99.438  0.00  0.00    +0.020 A 
ATOM      5  C   LIG    1       69.494  48.787  98.323  0.00  0.00    +0.006 A 
ATOM      6  C   LIG    1       68.155  48.361  98.352  0.00  0.00    -0.036 A 
ATOM      7  C   LIG    1       67.443  48.595  99.548  0.00  0.00    +0.006 A 
ATOM      8  C   LIG    1       68.027  49.221 100.655  0.00  0.00    +0.020 A 
ENDBRANCH   1   6
BRANCH   1   9
ATOM      9  C   LIG    1       68.126  47.858  95.826  0.00  0.00    -0.036 A 
ATOM     10  C   LIG    1       69.316  47.244  95.407  0.00  0.00    +0.006 A 
ATOM     11  C   LIG    1       69.845  47.484  94.130  0.00  0.00    +0.020 A 
ATOM     12  C   LIG    1       69.221  48.377  93.268  0.00  0.00    +0.041 A 
ATOM     13 CL   LIG    1       69.884  48.685  91.713  0.00  0.00    -0.084 Cl
ATOM     14  C   LIG    1       68.055  49.018  93.663  0.00  0.00    +0.020 A 
ATOM     15  C   LIG    1       67.505  48.744  94.917  0.00  0.00    +0.006 A 
ENDBRANCH   1   9
BRANCH   1  16
ATOM     16  C   LIG    1       66.938  46.126  97.466  0.00  0.00    +0.201 C 
ATOM     17 CL   LIG    1       65.633  46.122  98.729  0.00  0.00    -0.082 Cl
ATOM     18 CL   LIG    1       68.269  45.097  98.145  0.00  0.00    -0.082 Cl
ATOM     19 CL   LIG    1       66.276  45.249  96.038  0.00  0.00    -0.082 Cl
ENDBRANCH   1  16
TORSDOF 3
ENDMDL
MODEL 3
REMARK VINA RESULT:      -6.7      1.965      5.979
REMARK  Name = 
REMARK                            x       y       z     vdW  Elec       q    Type
REMARK                         _______ _______ _______ _____ _____    ______ ____
ROOT
ATOM      1  C   LIG    1       69.132  48.265  97.761  0.00  0.00    +0.100 C 
ENDROOT
BRANCH   1   6
ATOM      2 CL   LIG    1       65.593  43.794  99.940  0.00  0.00    -0.084 Cl
ATOM      3  C   LIG    1       66.582  45.038  99.285  0.00  0.00    +0.041 A 
ATOM      4  C   LIG    1       66.030  46.008  98.457  0.00  0.00    +0.020 A 
ATOM      5  C   LIG    1       66.832  47.030  97.926  0.00  0.00    +0.006 A 
ATOM      6  C   LIG    1       68.200  47.117  98.231  0.00  0.00    -0.036 A 
ATOM      7  C   LIG    1       68.725  46.117  99.079  0.00  0.00    +0.006 A 
ATOM      8  C   LIG    1       67.933  45.084  99.593  0.00  0.00    +0.020 A 
ENDBRANCH   1   6
BRANCH   1   9
ATOM      9  C   LIG    1       69.170  48.398  96.217  0.00  0.00    -0.036 A 
ATOM     10  C   LIG    1       68.280  49.190  95.475  0.00  0.00    +0.006 A 
ATOM     11  C   LIG    1       68.402  49.306  94.083  0.00  0.00    +0.020 A 
ATOM     12  C   LIG    1       69.384  48.597  93.402  0.00  0.00    +0.041 A 
ATOM     13 CL   LIG    1       69.516  48.726  91.693  0.00  0.00    -0.084 Cl
ATOM     14  C   LIG    1       70.265  47.787  94.105  0.00  0.00    +0.020 A 
ATOM     15  C   LIG    1       70.170  47.707  95.497  0.00  0.00    +0.006 A 
ENDBRANCH   1   9
BRANCH   1  16
ATOM     16  C   LIG    1       69.147  49.615  98.587  0.00  0.00    +0.201 C 
ATOM     17 CL   LIG    1       70.732  49.824  99.448  0.00  0.00    -0.082 Cl
ATOM     18 CL   LIG    1       67.889  49.578  99.896  0.00  0.00    -0.082 Cl
ATOM     19 CL   LIG    1       68.871  51.123  97.641  0.00  0.00    -0.082 Cl
ENDBRANCH   1  16
TORSDOF 3
ENDMDL
MODEL 4
REMARK VINA RESULT:      -6.1      1.892      4.137
REMARK  Name = 
REMARK                            x       y       z     vdW  Elec       q    Type
REMARK                         _______ _______ _______ _____ _____    ______ ____
ROOT
ATOM      1  C   LIG    1       67.828  48.838  97.701  0.00  0.00    +0.100 C 
ENDROOT
BRANCH   1   6
ATOM      2 CL   LIG    1       69.194  48.950  91.753  0.00  0.00    -0.084 Cl
ATOM      3  C   LIG    1       68.830  48.879  93.432  0.00  0.00    +0.041 A 
ATOM      4  C   LIG    1       69.854  48.873  94.370  0.00  0.00    +0.020 A 
ATOM      5  C   LIG    1       69.561  48.823  95.742  0.00  0.00    +0.006 A 
ATOM      6  C   LIG    1       68.234  48.800  96.205  0.00  0.00    -0.036 A 
ATOM      7  C   LIG    1       67.221  48.811  95.222  0.00  0.00    +0.006 A 
ATOM      8  C   LIG    1       67.509  48.839  93.853  0.00  0.00    +0.020 A 
ENDBRANCH   1   6
BRANCH   1   9
ATOM      9  C   LIG    1       67.340  47.459  98.214  0.00  0.00    -0.036 A 
ATOM     10  C   LIG    1       67.812  46.229  97.728  0.00  0.00    +0.006 A 
ATOM     11  C   LIG    1       67.366  45.016  98.272  0.00  0.00    +0.020 A 
ATOM     12  C   LIG    1       66.407  45.007  99.277  0.00  0.00    +0.041 A 
ATOM     13 CL   LIG    1       65.847  43.517  99.926  0.00  0.00    -0.084 Cl
ATOM     14  C   LIG    1       65.904  46.206  99.763  0.00  0.00    +0.020 A 
ATOM     15  C   LIG    1       66.383  47.415  99.252  0.00  0.00    +0.006 A 
ENDBRANCH   1   9
BRANCH   1  16
ATOM     16  C   LIG    1       68.703  49.695  98.703  0.00  0.00    +0.201 C 
ATOM     17 CL   LIG    1       70.290  48.877  99.032  0.00  0.00    -0.082 Cl
ATOM     18 CL   LIG    1       67.884  49.823 100.318  0.00  0.00    -0.082 Cl
ATOM     19 CL   LIG    1       69.088  51.375  98.178  0.00  0.00    -0.082 Cl
ENDBRANCH   1  16
TORSDOF 3
ENDMDL
