MODEL 1
REMARK VINA RESULT:      -8.4      0.000      0.000
REMARK  Name = 
REMARK                            x       y       z     vdW  Elec       q    Type
REMARK                         _______ _______ _______ _____ _____    ______ ____
ROOT
ATOM      1  C   LIG    1       38.114  30.403   9.523  0.00  0.00    +0.100 C 
ENDROOT
BRANCH   1   6
ATOM      2 CL   LIG    1       43.127  29.164  12.778  0.00  0.00    -0.084 Cl
ATOM      3  C   LIG    1       41.723  29.557  11.867  0.00  0.00    +0.041 A 
ATOM      4  C   LIG    1       41.835  30.268  10.680  0.00  0.00    +0.020 A 
ATOM      5  C   LIG    1       40.692  30.584   9.929  0.00  0.00    +0.006 A 
ATOM      6  C   LIG    1       39.412  30.175  10.341  0.00  0.00    -0.036 A 
ATOM      7  C   LIG    1       39.338  29.450  11.550  0.00  0.00    +0.006 A 
ATOM      8  C   LIG    1       40.473  29.151  12.312  0.00  0.00    +0.020 A 
ENDBRANCH   1   6
BRANCH   1   9
ATOM      9  C   LIG    1       38.105  31.777   8.806  0.00  0.00    -0.036 A 
ATOM     10  C   LIG    1       38.824  32.056   7.633  0.00  0.00    +0.006 A 
ATOM     11  C   LIG    1       38.731  33.307   7.006  0.00  0.00    +0.020 A 
ATOM     12  C   LIG    1       37.955  34.316   7.563  0.00  0.00    +0.041 A 
ATOM     13 CL   LIG    1       37.861  35.854   6.802  0.00  0.00    -0.084 Cl
ATOM     14  C   LIG    1       37.250  34.079   8.735  0.00  0.00    +0.020 A 
ATOM     15  C   LIG    1       37.308  32.818   9.334  0.00  0.00    +0.006 A 
ENDBRANCH   1   9
BRANCH   1  16
ATOM     16  C   LIG    1       37.498  29.184   8.723  0.00  0.00    +0.201 C 
ATOM     17 CL   LIG    1       37.234  27.763   9.823  0.00  0.00    -0.082 Cl
ATOM     18 CL   LIG    1       38.655  28.602   7.452  0.00  0.00    -0.082 Cl
ATOM     19 CL   LIG    1       35.927  29.495   7.897  0.00  0.00    -0.082 Cl
ENDBRANCH   1  16
TORSDOF 3
ENDMDL
MODEL 2
REMARK VINA RESULT:      -7.6      0.885      5.609
REMARK  Name = 
REMARK                            x       y       z     vdW  Elec       q    Type
REMARK                         _______ _______ _______ _____ _____    ______ ____
ROOT
ATOM      1  C   LIG    1       38.926  29.807   9.170  0.00  0.00    +0.100 C 
ENDROOT
BRANCH   1   6
ATOM      2 CL   LIG    1       37.772  35.462   7.182  0.00  0.00    -0.084 Cl
ATOM      3  C   LIG    1       38.116  33.887   7.779  0.00  0.00    +0.041 A 
ATOM      4  C   LIG    1       37.529  33.441   8.956  0.00  0.00    +0.020 A 
ATOM      5  C   LIG    1       37.801  32.152   9.443  0.00  0.00    +0.006 A 
ATOM      6  C   LIG    1       38.649  31.274   8.748  0.00  0.00    -0.036 A 
ATOM      7  C   LIG    1       39.223  31.760   7.553  0.00  0.00    +0.006 A 
ATOM      8  C   LIG    1       38.971  33.051   7.076  0.00  0.00    +0.020 A 
ENDBRANCH   1   6
BRANCH   1   9
ATOM      9  C   LIG    1       40.021  29.704  10.262  0.00  0.00    -0.036 A 
ATOM     10  C   LIG    1       41.350  30.121  10.082  0.00  0.00    +0.006 A 
ATOM     11  C   LIG    1       42.279  30.048  11.130  0.00  0.00    +0.020 A 
ATOM     12  C   LIG    1       41.912  29.514  12.359  0.00  0.00    +0.041 A 
ATOM     13 CL   LIG    1       43.061  29.406  13.633  0.00  0.00    -0.084 Cl
ATOM     14  C   LIG    1       40.612  29.072  12.560  0.00  0.00    +0.020 A 
ATOM     15  C   LIG    1       39.675  29.187  11.530  0.00  0.00    +0.006 A 
ENDBRANCH   1   9
BRANCH   1  16
ATOM     16  C   LIG    1       37.702  28.812   9.301  0.00  0.00    +0.201 C 
ATOM     17 CL   LIG    1       38.252  27.090   9.128  0.00  0.00    -0.082 Cl
ATOM     18 CL   LIG    1       36.516  29.076   7.952  0.00  0.00    -0.082 Cl
ATOM     19 CL   LIG    1       36.771  28.903  10.840  0.00  0.00    -0.082 Cl
ENDBRANCH   1  16
TORSDOF 3
ENDMDL
MODEL 3
REMARK VINA RESULT:      -7.4      2.076      2.604
REMARK  Name = 
REMARK                            x       y       z     vdW  Elec       q    Type
REMARK                         _______ _______ _______ _____ _____    ______ ____
ROOT
ATOM      1  C   LIG    1       39.192  29.263   9.675  0.00  0.00    +0.100 C 
ENDROOT
BRANCH   1   6
ATOM      2 CL   LIG    1       44.643  26.522   9.881  0.00  0.00    -0.084 Cl
ATOM      3  C   LIG    1       43.123  27.321   9.791  0.00  0.00    +0.041 A 
ATOM      4  C   LIG    1       42.374  27.269   8.623  0.00  0.00    +0.020 A 
ATOM      5  C   LIG    1       41.129  27.914   8.548  0.00  0.00    +0.006 A 
ATOM      6  C   LIG    1       40.597  28.605   9.649  0.00  0.00    -0.036 A 
ATOM      7  C   LIG    1       41.385  28.632  10.820  0.00  0.00    +0.006 A 
ATOM      8  C   LIG    1       42.636  28.009  10.892  0.00  0.00    +0.020 A 
ENDBRANCH   1   6
BRANCH   1   9
ATOM      9  C   LIG    1       39.141  30.575   8.853  0.00  0.00    -0.036 A 
ATOM     10  C   LIG    1       39.949  30.833   7.735  0.00  0.00    +0.006 A 
ATOM     11  C   LIG    1       39.816  32.023   7.003  0.00  0.00    +0.020 A 
ATOM     12  C   LIG    1       38.908  32.995   7.403  0.00  0.00    +0.041 A 
ATOM     13 CL   LIG    1       38.763  34.460   6.516  0.00  0.00    -0.084 Cl
ATOM     14  C   LIG    1       38.110  32.779   8.518  0.00  0.00    +0.020 A 
ATOM     15  C   LIG    1       38.212  31.575   9.219  0.00  0.00    +0.006 A 
ENDBRANCH   1   9
BRANCH   1  16
ATOM     16  C   LIG    1       37.917  28.328   9.596  0.00  0.00    +0.201 C 
ATOM     17 CL   LIG    1       37.044  28.565   8.021  0.00  0.00    -0.082 Cl
ATOM     18 CL   LIG    1       36.717  28.775  10.883  0.00  0.00    -0.082 Cl
ATOM     19 CL   LIG    1       38.221  26.560   9.757  0.00  0.00    -0.082 Cl
ENDBRANCH   1  16
TORSDOF 3
ENDMDL
MODEL 4
REMARK VINA RESULT:      -7.1      2.023      3.088
REMARK  Name = 
REMARK                            x       y       z     vdW  Elec       q    Type
REMARK                         _______ _______ _______ _____ _____    ______ ____
ROOT
ATOM      1  C   LIG    1       40.041  28.533  10.820  0.00  0.00    +0.100 C 
ENDROOT
BRANCH   1   6
ATOM      2 CL   LIG    1       44.835  30.171  14.225  0.00  0.00    -0.084 Cl
ATOM      3  C   LIG    1       43.488  29.668  13.282  0.00  0.00    +0.041 A 
ATOM      4  C   LIG    1       42.325  29.229  13.902  0.00  0.00    +0.020 A 
ATOM      5  C   LIG    1       41.220  28.825  13.136  0.00  0.00    +0.006 A 
ATOM      6  C   LIG    1       41.248  28.873  11.732  0.00  0.00    -0.036 A 
ATOM      7  C   LIG    1       42.445  29.329  11.138  0.00  0.00    +0.006 A 
ATOM      8  C   LIG    1       43.556  29.712  11.898  0.00  0.00    +0.020 A 
ENDBRANCH   1   6
BRANCH   1   9
ATOM      9  C   LIG    1       39.659  29.709   9.886  0.00  0.00    -0.036 A 
ATOM     10  C   LIG    1       39.950  29.748   8.513  0.00  0.00    +0.006 A 
ATOM     11  C   LIG    1       39.530  30.821   7.714  0.00  0.00    +0.020 A 
ATOM     12  C   LIG    1       38.855  31.896   8.279  0.00  0.00    +0.041 A 
ATOM     13 CL   LIG    1       38.362  33.219   7.300  0.00  0.00    -0.084 Cl
ATOM     14  C   LIG    1       38.573  31.898   9.638  0.00  0.00    +0.020 A 
ATOM     15  C   LIG    1       38.952  30.807  10.425  0.00  0.00    +0.006 A 
ENDBRANCH   1   9
BRANCH   1  16
ATOM     16  C   LIG    1       39.944  27.079  10.201  0.00  0.00    +0.201 C 
ATOM     17 CL   LIG    1       40.161  25.817  11.489  0.00  0.00    -0.082 Cl
ATOM     18 CL   LIG    1       41.292  26.797   9.018  0.00  0.00    -0.082 Cl
ATOM     19 CL   LIG    1       38.408  26.684   9.347  0.00  0.00    -0.082 Cl
ENDBRANCH   1  16
TORSDOF 3
ENDMDL
MODEL 5
REMARK VINA RESULT:      -7.1      1.952      5.715
REMARK  Name = 
REMARK                            x       y       z     vdW  Elec       q    Type
REMARK                         _______ _______ _______ _____ _____    ______ ____
ROOT
ATOM      1  C   LIG    1       38.844  28.851   8.566  0.00  0.00    +0.100 C 
ENDROOT
BRANCH   1   6
ATOM      2 CL   LIG    1       38.907  34.676   6.742  0.00  0.00    -0.084 Cl
ATOM      3  C   LIG    1       38.882  33.023   7.213  0.00  0.00    +0.041 A 
ATOM      4  C   LIG    1       39.848  32.146   6.739  0.00  0.00    +0.020 A 
ATOM      5  C   LIG    1       39.837  30.797   7.127  0.00  0.00    +0.006 A 
ATOM      6  C   LIG    1       38.870  30.302   8.017  0.00  0.00    -0.036 A 
ATOM      7  C   LIG    1       37.906  31.224   8.482  0.00  0.00    +0.006 A 
ATOM      8  C   LIG    1       37.902  32.565   8.081  0.00  0.00    +0.020 A 
ENDBRANCH   1   6
BRANCH   1   9
ATOM      9  C   LIG    1       40.227  28.400   9.101  0.00  0.00    -0.036 A 
ATOM     10  C   LIG    1       41.110  27.570   8.393  0.00  0.00    +0.006 A 
ATOM     11  C   LIG    1       42.370  27.241   8.914  0.00  0.00    +0.020 A 
ATOM     12  C   LIG    1       42.751  27.694  10.171  0.00  0.00    +0.041 A 
ATOM     13 CL   LIG    1       44.287  27.270  10.814  0.00  0.00    -0.084 Cl
ATOM     14  C   LIG    1       41.890  28.498  10.906  0.00  0.00    +0.020 A 
ATOM     15  C   LIG    1       40.653  28.862  10.366  0.00  0.00    +0.006 A 
ENDBRANCH   1   9
BRANCH   1  16
ATOM     16  C   LIG    1       37.578  28.373   9.387  0.00  0.00    +0.201 C 
ATOM     17 CL   LIG    1       37.435  29.298  10.943  0.00  0.00    -0.082 Cl
ATOM     18 CL   LIG    1       37.752  26.633   9.874  0.00  0.00    -0.082 Cl
ATOM     19 CL   LIG    1       35.990  28.525   8.550  0.00  0.00    -0.082 Cl
ENDBRANCH   1  16
TORSDOF 3
ENDMDL
MODEL 6
REMARK VINA RESULT:      -6.8      2.968      6.187
REMARK  Name = 
REMARK                            x       y       z     vdW  Elec       q    Type
REMARK                         _______ _______ _______ _____ _____    ______ ____
ROOT
ATOM      1  C   LIG    1       38.906  28.312   9.085  0.00  0.00    +0.100 C 
ENDROOT
BRANCH   1   6
ATOM      2 CL   LIG    1       42.649  30.954   5.052  0.00  0.00    -0.084 Cl
ATOM      3  C   LIG    1       41.600  30.171   6.167  0.00  0.00    +0.041 A 
ATOM      4  C   LIG    1       42.083  29.164   6.992  0.00  0.00    +0.020 A 
ATOM      5  C   LIG    1       41.232  28.527   7.909  0.00  0.00    +0.006 A 
ATOM      6  C   LIG    1       39.884  28.901   8.035  0.00  0.00    -0.036 A 
ATOM      7  C   LIG    1       39.430  29.932   7.183  0.00  0.00    +0.006 A 
ATOM      8  C   LIG    1       40.270  30.554   6.253  0.00  0.00    +0.020 A 
ENDBRANCH   1   6
BRANCH   1   9
ATOM      9  C   LIG    1       39.646  27.583  10.235  0.00  0.00    -0.036 A 
ATOM     10  C   LIG    1       39.710  26.186  10.366  0.00  0.00    +0.006 A 
ATOM     11  C   LIG    1       40.440  25.589  11.403  0.00  0.00    +0.020 A 
ATOM     12  C   LIG    1       41.080  26.374  12.355  0.00  0.00    +0.041 A 
ATOM     13 CL   LIG    1       41.956  25.637  13.637  0.00  0.00    -0.084 Cl
ATOM     14  C   LIG    1       41.016  27.757  12.266  0.00  0.00    +0.020 A 
ATOM     15  C   LIG    1       40.325  28.351  11.206  0.00  0.00    +0.006 A 
ENDBRANCH   1   9
BRANCH   1  16
ATOM     16  C   LIG    1       37.629  29.157   9.490  0.00  0.00    +0.201 C 
ATOM     17 CL   LIG    1       36.447  29.234   8.113  0.00  0.00    -0.082 Cl
ATOM     18 CL   LIG    1       38.085  30.881   9.830  0.00  0.00    -0.082 Cl
ATOM     19 CL   LIG    1       36.713  28.566  10.923  0.00  0.00    -0.082 Cl
ENDBRANCH   1  16
TORSDOF 3
ENDMDL
MODEL 7
REMARK VINA RESULT:      -6.6      2.685      3.445
REMARK  Name = 
REMARK                            x       y       z     vdW  Elec       q    Type
REMARK                         _______ _______ _______ _____ _____    ______ ____
ROOT
ATOM      1  C   LIG    1       39.140  29.059  10.003  0.00  0.00    +0.100 C 
ENDROOT
BRANCH   1   6
ATOM      2 CL   LIG    1       42.321  26.321  14.434  0.00  0.00    -0.084 Cl
ATOM      3  C   LIG    1       41.461  27.088  13.159  0.00  0.00    +0.041 A 
ATOM      4  C   LIG    1       41.176  26.393  11.991  0.00  0.00    +0.020 A 
ATOM      5  C   LIG    1       40.466  27.013  10.950  0.00  0.00    +0.006 A 
ATOM      6  C   LIG    1       40.008  28.336  11.066  0.00  0.00    -0.036 A 
ATOM      7  C   LIG    1       40.312  29.009  12.270  0.00  0.00    +0.006 A 
ATOM      8  C   LIG    1       41.038  28.401  13.301  0.00  0.00    +0.020 A 
ENDBRANCH   1   6
BRANCH   1   9
ATOM      9  C   LIG    1       39.981  29.566   8.803  0.00  0.00    -0.036 A 
ATOM     10  C   LIG    1       40.901  28.773   8.098  0.00  0.00    +0.006 A 
ATOM     11  C   LIG    1       41.592  29.280   6.988  0.00  0.00    +0.020 A 
ATOM     12  C   LIG    1       41.413  30.599   6.591  0.00  0.00    +0.041 A 
ATOM     13 CL   LIG    1       42.278  31.221   5.243  0.00  0.00    -0.084 Cl
ATOM     14  C   LIG    1       40.527  31.414   7.281  0.00  0.00    +0.020 A 
ATOM     15  C   LIG    1       39.805  30.895   8.359  0.00  0.00    +0.006 A 
ENDBRANCH   1   9
BRANCH   1  16
ATOM     16  C   LIG    1       37.709  28.473   9.666  0.00  0.00    +0.201 C 
ATOM     17 CL   LIG    1       36.519  28.892  10.972  0.00  0.00    -0.082 Cl
ATOM     18 CL   LIG    1       37.756  26.659   9.621  0.00  0.00    -0.082 Cl
ATOM     19 CL   LIG    1       36.979  29.015   8.111  0.00  0.00    -0.082 Cl
ENDBRANCH   1  16
TORSDOF 3
ENDMDL
MODEL 8
REMARK VINA RESULT:      -6.5      2.683      3.395
REMARK  Name = 
REMARK                            x       y       z     vdW  Elec       q    Type
REMARK                         _______ _______ _______ _____ _____    ______ ____
ROOT
ATOM      1  C   LIG    1       39.802  29.412   8.148  0.00  0.00    +0.100 C 
ENDROOT
BRANCH   1   6
ATOM      2 CL   LIG    1       40.624  25.129  12.419  0.00  0.00    -0.084 Cl
ATOM      3  C   LIG    1       40.381  26.364  11.248  0.00  0.00    +0.041 A 
ATOM      4  C   LIG    1       41.161  27.513  11.270  0.00  0.00    +0.020 A 
ATOM      5  C   LIG    1       40.971  28.520  10.312  0.00  0.00    +0.006 A 
ATOM      6  C   LIG    1       40.009  28.389   9.296  0.00  0.00    -0.036 A 
ATOM      7  C   LIG    1       39.239  27.206   9.303  0.00  0.00    +0.006 A 
ATOM      8  C   LIG    1       39.410  26.209  10.269  0.00  0.00    +0.020 A 
ENDBRANCH   1   6
BRANCH   1   9
ATOM      9  C   LIG    1       39.024  30.669   8.614  0.00  0.00    -0.036 A 
ATOM     10  C   LIG    1       39.107  31.210   9.906  0.00  0.00    +0.006 A 
ATOM     11  C   LIG    1       38.416  32.381  10.248  0.00  0.00    +0.020 A 
ATOM     12  C   LIG    1       37.592  33.007   9.319  0.00  0.00    +0.041 A 
ATOM     13 CL   LIG    1       36.730  34.430   9.749  0.00  0.00    -0.084 Cl
ATOM     14  C   LIG    1       37.471  32.483   8.040  0.00  0.00    +0.020 A 
ATOM     15  C   LIG    1       38.196  31.342   7.687  0.00  0.00    +0.006 A 
ENDBRANCH   1   9
BRANCH   1  16
ATOM     16  C   LIG    1       40.984  29.652   7.123  0.00  0.00    +0.201 C 
ATOM     17 CL   LIG    1       42.289  28.408   7.346  0.00  0.00    -0.082 Cl
ATOM     18 CL   LIG    1       41.785  31.251   7.433  0.00  0.00    -0.082 Cl
ATOM     19 CL   LIG    1       40.536  29.621   5.379  0.00  0.00    -0.082 Cl
ENDBRANCH   1  16
TORSDOF 3
ENDMDL
MODEL 9
REMARK VINA RESULT:      -6.3      3.201      7.251
REMARK  Name = 
REMARK                            x       y       z     vdW  Elec       q    Type
REMARK                         _______ _______ _______ _____ _____    ______ ____
ROOT
ATOM      1  C   LIG    1       41.213  27.942  10.096  0.00  0.00    +0.100 C 
ENDROOT
BRANCH   1   6
ATOM      2 CL   LIG    1       35.580  29.086   8.041  0.00  0.00    -0.084 Cl
ATOM      3  C   LIG    1       37.152  28.771   8.662  0.00  0.00    +0.041 A 
ATOM      4  C   LIG    1       37.365  27.697   9.516  0.00  0.00    +0.020 A 
ATOM      5  C   LIG    1       38.649  27.432  10.019  0.00  0.00    +0.006 A 
ATOM      6  C   LIG    1       39.752  28.224   9.659  0.00  0.00    -0.036 A 
ATOM      7  C   LIG    1       39.497  29.304   8.785  0.00  0.00    +0.006 A 
ATOM      8  C   LIG    1       38.215  29.584   8.299  0.00  0.00    +0.020 A 
ENDBRANCH   1   6
BRANCH   1   9
ATOM      9  C   LIG    1       41.299  27.397  11.544  0.00  0.00    -0.036 A 
ATOM     10  C   LIG    1       41.399  28.211  12.684  0.00  0.00    +0.006 A 
ATOM     11  C   LIG    1       41.422  27.654  13.972  0.00  0.00    +0.020 A 
ATOM     12  C   LIG    1       41.394  26.276  14.141  0.00  0.00    +0.041 A 
ATOM     13 CL   LIG    1       41.444  25.598  15.720  0.00  0.00    -0.084 Cl
ATOM     14  C   LIG    1       41.318  25.444  13.033  0.00  0.00    +0.020 A 
ATOM     15  C   LIG    1       41.250  26.001  11.753  0.00  0.00    +0.006 A 
ENDBRANCH   1   9
BRANCH   1  16
ATOM     16  C   LIG    1       42.211  27.310   9.042  0.00  0.00    +0.201 C 
ATOM     17 CL   LIG    1       41.715  25.613   8.625  0.00  0.00    -0.082 Cl
ATOM     18 CL   LIG    1       43.877  27.165   9.748  0.00  0.00    -0.082 Cl
ATOM     19 CL   LIG    1       42.379  28.196   7.483  0.00  0.00    -0.082 Cl
ENDBRANCH   1  16
TORSDOF 3
ENDMDL
