MODEL 1
REMARK VINA RESULT:      -7.9      0.000      0.000
REMARK  Name = 
REMARK                            x       y       z     vdW  Elec       q    Type
REMARK                         _______ _______ _______ _____ _____    ______ ____
ROOT
ATOM      1  C   LIG    1        2.226   0.060  21.694  0.00  0.00    +0.100 C 
ENDROOT
BRANCH   1   6
ATOM      2 CL   LIG    1        6.910  -2.353  18.613  0.00  0.00    -0.084 Cl
ATOM      3  C   LIG    1        5.587  -1.643  19.449  0.00  0.00    +0.041 A 
ATOM      4  C   LIG    1        4.323  -1.629  18.874  0.00  0.00    +0.020 A 
ATOM      5  C   LIG    1        3.237  -1.057  19.556  0.00  0.00    +0.006 A 
ATOM      6  C   LIG    1        3.390  -0.506  20.839  0.00  0.00    -0.036 A 
ATOM      7  C   LIG    1        4.688  -0.542  21.393  0.00  0.00    +0.006 A 
ATOM      8  C   LIG    1        5.777  -1.092  20.707  0.00  0.00    +0.020 A 
ENDBRANCH   1   6
BRANCH   1   9
ATOM      9  C   LIG    1        1.692  -0.974  22.719  0.00  0.00    -0.036 A 
ATOM     10  C   LIG    1        1.110  -0.631  23.949  0.00  0.00    +0.006 A 
ATOM     11  C   LIG    1        0.600  -1.614  24.809  0.00  0.00    +0.020 A 
ATOM     12  C   LIG    1        0.705  -2.960  24.477  0.00  0.00    +0.041 A 
ATOM     13 CL   LIG    1        0.098  -4.163  25.544  0.00  0.00    -0.084 Cl
ATOM     14  C   LIG    1        1.296  -3.332  23.278  0.00  0.00    +0.020 A 
ATOM     15  C   LIG    1        1.763  -2.348  22.402  0.00  0.00    +0.006 A 
ENDBRANCH   1   9
BRANCH   1  16
ATOM     16  C   LIG    1        2.305   1.563  22.183  0.00  0.00    +0.201 C 
ATOM     17 CL   LIG    1        0.640   2.253  22.409  0.00  0.00    -0.082 Cl
ATOM     18 CL   LIG    1        3.091   2.605  20.921  0.00  0.00    -0.082 Cl
ATOM     19 CL   LIG    1        3.194   1.848  23.723  0.00  0.00    -0.082 Cl
ENDBRANCH   1  16
TORSDOF 3
ENDMDL
MODEL 2
REMARK VINA RESULT:      -7.5      2.133      4.341
REMARK  Name = 
REMARK                            x       y       z     vdW  Elec       q    Type
REMARK                         _______ _______ _______ _____ _____    ______ ____
ROOT
ATOM      1  C   LIG    1        2.609  -0.742  22.075  0.00  0.00    +0.100 C 
ENDROOT
BRANCH   1   6
ATOM      2 CL   LIG    1        2.306   5.337  22.525  0.00  0.00    -0.084 Cl
ATOM      3  C   LIG    1        2.371   3.622  22.438  0.00  0.00    +0.041 A 
ATOM      4  C   LIG    1        1.199   2.878  22.405  0.00  0.00    +0.020 A 
ATOM      5  C   LIG    1        1.248   1.477  22.326  0.00  0.00    +0.006 A 
ATOM      6  C   LIG    1        2.472   0.792  22.256  0.00  0.00    -0.036 A 
ATOM      7  C   LIG    1        3.642   1.582  22.289  0.00  0.00    +0.006 A 
ATOM      8  C   LIG    1        3.599   2.977  22.389  0.00  0.00    +0.020 A 
ENDBRANCH   1   6
BRANCH   1   9
ATOM      9  C   LIG    1        1.779  -1.535  23.117  0.00  0.00    -0.036 A 
ATOM     10  C   LIG    1        1.637  -2.931  23.109  0.00  0.00    +0.006 A 
ATOM     11  C   LIG    1        0.913  -3.591  24.113  0.00  0.00    +0.020 A 
ATOM     12  C   LIG    1        0.279  -2.866  25.114  0.00  0.00    +0.041 A 
ATOM     13 CL   LIG    1       -0.625  -3.678  26.330  0.00  0.00    -0.084 Cl
ATOM     14  C   LIG    1        0.382  -1.482  25.136  0.00  0.00    +0.020 A 
ATOM     15  C   LIG    1        1.141  -0.829  24.161  0.00  0.00    +0.006 A 
ENDBRANCH   1   9
BRANCH   1  16
ATOM     16  C   LIG    1        2.647  -1.331  20.606  0.00  0.00    +0.201 C 
ATOM     17 CL   LIG    1        4.013  -2.515  20.424  0.00  0.00    -0.082 Cl
ATOM     18 CL   LIG    1        2.984  -0.018  19.399  0.00  0.00    -0.082 Cl
ATOM     19 CL   LIG    1        1.156  -2.178  20.055  0.00  0.00    -0.082 Cl
ENDBRANCH   1  16
TORSDOF 3
ENDMDL
MODEL 3
REMARK VINA RESULT:      -7.0      4.940      7.359
REMARK  Name = 
REMARK                            x       y       z     vdW  Elec       q    Type
REMARK                         _______ _______ _______ _____ _____    ______ ____
ROOT
ATOM      1  C   LIG    1        8.816  -3.606  22.301  0.00  0.00    +0.100 C 
ENDROOT
BRANCH   1   6
ATOM      2 CL   LIG    1        4.057  -1.203  19.328  0.00  0.00    -0.084 Cl
ATOM      3  C   LIG    1        5.369  -1.896  20.196  0.00  0.00    +0.041 A 
ATOM      4  C   LIG    1        5.445  -3.271  20.370  0.00  0.00    +0.020 A 
ATOM      5  C   LIG    1        6.519  -3.842  21.072  0.00  0.00    +0.006 A 
ATOM      6  C   LIG    1        7.552  -3.047  21.596  0.00  0.00    -0.036 A 
ATOM      7  C   LIG    1        7.443  -1.654  21.397  0.00  0.00    +0.006 A 
ATOM      8  C   LIG    1        6.363  -1.080  20.716  0.00  0.00    +0.020 A 
ENDBRANCH   1   6
BRANCH   1   9
ATOM      9  C   LIG    1        8.562  -3.928  23.796  0.00  0.00    -0.036 A 
ATOM     10  C   LIG    1        7.491  -4.707  24.261  0.00  0.00    +0.006 A 
ATOM     11  C   LIG    1        7.348  -5.003  25.624  0.00  0.00    +0.020 A 
ATOM     12  C   LIG    1        8.244  -4.488  26.552  0.00  0.00    +0.041 A 
ATOM     13 CL   LIG    1        8.053  -4.835  28.225  0.00  0.00    -0.084 Cl
ATOM     14  C   LIG    1        9.301  -3.695  26.126  0.00  0.00    +0.020 A 
ATOM     15  C   LIG    1        9.468  -3.438  24.763  0.00  0.00    +0.006 A 
ENDBRANCH   1   9
BRANCH   1  16
ATOM     16  C   LIG    1        9.742  -4.616  21.508  0.00  0.00    +0.201 C 
ATOM     17 CL   LIG    1       10.008  -4.042  19.806  0.00  0.00    -0.082 Cl
ATOM     18 CL   LIG    1        8.935  -6.234  21.350  0.00  0.00    -0.082 Cl
ATOM     19 CL   LIG    1       11.373  -4.911  22.213  0.00  0.00    -0.082 Cl
ENDBRANCH   1  16
TORSDOF 3
ENDMDL
MODEL 4
REMARK VINA RESULT:      -6.7      9.804     11.436
REMARK  Name = 
REMARK                            x       y       z     vdW  Elec       q    Type
REMARK                         _______ _______ _______ _____ _____    ______ ____
ROOT
ATOM      1  C   LIG    1       10.354  -3.679  29.237  0.00  0.00    +0.100 C 
ENDROOT
BRANCH   1   6
ATOM      2 CL   LIG    1        8.983  -3.957  23.295  0.00  0.00    -0.084 Cl
ATOM      3  C   LIG    1        9.341  -3.844  24.973  0.00  0.00    +0.041 A 
ATOM      4  C   LIG    1        8.346  -4.061  25.917  0.00  0.00    +0.020 A 
ATOM      5  C   LIG    1        8.636  -3.978  27.288  0.00  0.00    +0.006 A 
ATOM      6  C   LIG    1        9.934  -3.697  27.744  0.00  0.00    -0.036 A 
ATOM      7  C   LIG    1       10.920  -3.486  26.755  0.00  0.00    +0.006 A 
ATOM      8  C   LIG    1       10.631  -3.547  25.388  0.00  0.00    +0.020 A 
ENDBRANCH   1   6
BRANCH   1   9
ATOM      9  C   LIG    1       11.242  -2.457  29.584  0.00  0.00    -0.036 A 
ATOM     10  C   LIG    1       10.764  -1.141  29.680  0.00  0.00    +0.006 A 
ATOM     11  C   LIG    1       11.612  -0.086  30.049  0.00  0.00    +0.020 A 
ATOM     12  C   LIG    1       12.962  -0.320  30.282  0.00  0.00    +0.041 A 
ATOM     13 CL   LIG    1       14.002   0.979  30.713  0.00  0.00    -0.084 Cl
ATOM     14  C   LIG    1       13.470  -1.607  30.174  0.00  0.00    +0.020 A 
ATOM     15  C   LIG    1       12.614  -2.663  29.850  0.00  0.00    +0.006 A 
ENDBRANCH   1   9
BRANCH   1  16
ATOM     16  C   LIG    1        9.293  -4.114  30.328  0.00  0.00    +0.201 C 
ATOM     17 CL   LIG    1       10.065  -4.216  31.969  0.00  0.00    -0.082 Cl
ATOM     18 CL   LIG    1        8.672  -5.785  29.984  0.00  0.00    -0.082 Cl
ATOM     19 CL   LIG    1        7.854  -3.046  30.501  0.00  0.00    -0.082 Cl
ENDBRANCH   1  16
TORSDOF 3
ENDMDL
MODEL 5
REMARK VINA RESULT:      -6.6     11.041     13.197
REMARK  Name = 
REMARK                            x       y       z     vdW  Elec       q    Type
REMARK                         _______ _______ _______ _____ _____    ______ ____
ROOT
ATOM      1  C   LIG    1       11.254  -1.430  29.397  0.00  0.00    +0.100 C 
ENDROOT
BRANCH   1   6
ATOM      2 CL   LIG    1       12.097   3.811  32.409  0.00  0.00    -0.084 Cl
ATOM      3  C   LIG    1       11.884   2.351  31.527  0.00  0.00    +0.041 A 
ATOM      4  C   LIG    1       12.978   1.551  31.224  0.00  0.00    +0.020 A 
ATOM      5  C   LIG    1       12.808   0.354  30.511  0.00  0.00    +0.006 A 
ATOM      6  C   LIG    1       11.535  -0.079  30.105  0.00  0.00    -0.036 A 
ATOM      7  C   LIG    1       10.447   0.758  30.435  0.00  0.00    +0.006 A 
ATOM      8  C   LIG    1       10.614   1.962  31.127  0.00  0.00    +0.020 A 
ENDBRANCH   1   6
BRANCH   1   9
ATOM      9  C   LIG    1       12.221  -1.687  28.213  0.00  0.00    -0.036 A 
ATOM     10  C   LIG    1       13.599  -1.912  28.359  0.00  0.00    +0.006 A 
ATOM     11  C   LIG    1       14.410  -2.189  27.249  0.00  0.00    +0.020 A 
ATOM     12  C   LIG    1       13.868  -2.201  25.970  0.00  0.00    +0.041 A 
ATOM     13 CL   LIG    1       14.870  -2.520  24.610  0.00  0.00    -0.084 Cl
ATOM     14  C   LIG    1       12.513  -1.960  25.790  0.00  0.00    +0.020 A 
ATOM     15  C   LIG    1       11.698  -1.728  26.901  0.00  0.00    +0.006 A 
ENDBRANCH   1   9
BRANCH   1  16
ATOM     16  C   LIG    1       10.872  -2.685  30.283  0.00  0.00    +0.201 C 
ATOM     17 CL   LIG    1        9.170  -2.543  30.899  0.00  0.00    -0.082 Cl
ATOM     18 CL   LIG    1       11.916  -2.762  31.766  0.00  0.00    -0.082 Cl
ATOM     19 CL   LIG    1       10.995  -4.290  29.474  0.00  0.00    -0.082 Cl
ENDBRANCH   1  16
TORSDOF 3
ENDMDL
MODEL 6
REMARK VINA RESULT:      -6.5      9.296     11.392
REMARK  Name = 
REMARK                            x       y       z     vdW  Elec       q    Type
REMARK                         _______ _______ _______ _____ _____    ______ ____
ROOT
ATOM      1  C   LIG    1       11.099  -3.459  28.430  0.00  0.00    +0.100 C 
ENDROOT
BRANCH   1   6
ATOM      2 CL   LIG    1        6.870  -4.064  32.790  0.00  0.00    -0.084 Cl
ATOM      3  C   LIG    1        8.088  -3.921  31.585  0.00  0.00    +0.041 A 
ATOM      4  C   LIG    1        8.485  -5.034  30.856  0.00  0.00    +0.020 A 
ATOM      5  C   LIG    1        9.473  -4.921  29.865  0.00  0.00    +0.006 A 
ATOM      6  C   LIG    1       10.070  -3.684  29.568  0.00  0.00    -0.036 A 
ATOM      7  C   LIG    1        9.638  -2.574  30.327  0.00  0.00    +0.006 A 
ATOM      8  C   LIG    1        8.668  -2.687  31.329  0.00  0.00    +0.020 A 
ENDBRANCH   1   6
BRANCH   1   9
ATOM      9  C   LIG    1       10.469  -3.634  27.024  0.00  0.00    -0.036 A 
ATOM     10  C   LIG    1        9.088  -3.721  26.788  0.00  0.00    +0.006 A 
ATOM     11  C   LIG    1        8.581  -3.829  25.485  0.00  0.00    +0.020 A 
ATOM     12  C   LIG    1        9.445  -3.898  24.399  0.00  0.00    +0.041 A 
ATOM     13 CL   LIG    1        8.820  -4.051  22.805  0.00  0.00    -0.084 Cl
ATOM     14  C   LIG    1       10.817  -3.838  24.602  0.00  0.00    +0.020 A 
ATOM     15  C   LIG    1       11.319  -3.686  25.897  0.00  0.00    +0.006 A 
ENDBRANCH   1   9
BRANCH   1  16
ATOM     16  C   LIG    1       12.162  -2.296  28.588  0.00  0.00    +0.201 C 
ATOM     17 CL   LIG    1       12.889  -2.313  30.252  0.00  0.00    -0.082 Cl
ATOM     18 CL   LIG    1       11.364  -0.674  28.427  0.00  0.00    -0.082 Cl
ATOM     19 CL   LIG    1       13.537  -2.320  27.424  0.00  0.00    -0.082 Cl
ENDBRANCH   1  16
TORSDOF 3
ENDMDL
MODEL 7
REMARK VINA RESULT:      -6.5      4.166      6.984
REMARK  Name = 
REMARK                            x       y       z     vdW  Elec       q    Type
REMARK                         _______ _______ _______ _____ _____    ______ ____
ROOT
ATOM      1  C   LIG    1        8.281  -2.660  20.589  0.00  0.00    +0.100 C 
ENDROOT
BRANCH   1   6
ATOM      2 CL   LIG    1       12.281  -2.723  15.978  0.00  0.00    -0.084 Cl
ATOM      3  C   LIG    1       11.125  -2.727  17.251  0.00  0.00    +0.041 A 
ATOM      4  C   LIG    1       10.696  -3.927  17.802  0.00  0.00    +0.020 A 
ATOM      5  C   LIG    1        9.758  -3.935  18.847  0.00  0.00    +0.006 A 
ATOM      6  C   LIG    1        9.246  -2.739  19.377  0.00  0.00    -0.036 A 
ATOM      7  C   LIG    1        9.709  -1.539  18.794  0.00  0.00    +0.006 A 
ATOM      8  C   LIG    1       10.628  -1.528  17.738  0.00  0.00    +0.020 A 
ENDBRANCH   1   6
BRANCH   1   9
ATOM      9  C   LIG    1        6.898  -2.076  20.202  0.00  0.00    -0.036 A 
ATOM     10  C   LIG    1        6.115  -1.283  21.056  0.00  0.00    +0.006 A 
ATOM     11  C   LIG    1        4.894  -0.743  20.625  0.00  0.00    +0.020 A 
ATOM     12  C   LIG    1        4.412  -1.024  19.352  0.00  0.00    +0.041 A 
ATOM     13 CL   LIG    1        2.905  -0.378  18.837  0.00  0.00    -0.084 Cl
ATOM     14  C   LIG    1        5.153  -1.823  18.493  0.00  0.00    +0.020 A 
ATOM     15  C   LIG    1        6.390  -2.324  18.908  0.00  0.00    +0.006 A 
ENDBRANCH   1   9
BRANCH   1  16
ATOM     16  C   LIG    1        8.280  -3.847  21.636  0.00  0.00    +0.201 C 
ATOM     17 CL   LIG    1        6.800  -4.880  21.433  0.00  0.00    -0.082 Cl
ATOM     18 CL   LIG    1        8.189  -3.204  23.331  0.00  0.00    -0.082 Cl
ATOM     19 CL   LIG    1        9.696  -4.957  21.573  0.00  0.00    -0.082 Cl
ENDBRANCH   1  16
TORSDOF 3
ENDMDL
MODEL 8
REMARK VINA RESULT:      -6.3      2.301      5.854
REMARK  Name = 
REMARK                            x       y       z     vdW  Elec       q    Type
REMARK                         _______ _______ _______ _____ _____    ______ ____
ROOT
ATOM      1  C   LIG    1        4.584  -0.620  20.332  0.00  0.00    +0.100 C 
ENDROOT
BRANCH   1   6
ATOM      2 CL   LIG    1        0.157  -1.148  24.501  0.00  0.00    -0.084 Cl
ATOM      3  C   LIG    1        1.378  -0.971  23.304  0.00  0.00    +0.041 A 
ATOM      4  C   LIG    1        1.970   0.266  23.086  0.00  0.00    +0.020 A 
ATOM      5  C   LIG    1        2.973   0.413  22.115  0.00  0.00    +0.006 A 
ATOM      6  C   LIG    1        3.420  -0.681  21.355  0.00  0.00    -0.036 A 
ATOM      7  C   LIG    1        2.798  -1.923  21.608  0.00  0.00    +0.006 A 
ATOM      8  C   LIG    1        1.783  -2.069  22.560  0.00  0.00    +0.020 A 
ENDBRANCH   1   6
BRANCH   1   9
ATOM      9  C   LIG    1        5.707  -1.638  20.656  0.00  0.00    -0.036 A 
ATOM     10  C   LIG    1        5.475  -2.977  21.010  0.00  0.00    +0.006 A 
ATOM     11  C   LIG    1        6.539  -3.860  21.241  0.00  0.00    +0.020 A 
ATOM     12  C   LIG    1        7.852  -3.412  21.170  0.00  0.00    +0.041 A 
ATOM     13 CL   LIG    1        9.153  -4.493  21.475  0.00  0.00    -0.084 Cl
ATOM     14  C   LIG    1        8.114  -2.088  20.844  0.00  0.00    +0.020 A 
ATOM     15  C   LIG    1        7.054  -1.220  20.570  0.00  0.00    +0.006 A 
ENDBRANCH   1   9
BRANCH   1  16
ATOM     16  C   LIG    1        4.238  -0.413  18.801  0.00  0.00    +0.201 C 
ATOM     17 CL   LIG    1        2.440  -0.403  18.545  0.00  0.00    -0.082 Cl
ATOM     18 CL   LIG    1        4.857  -1.804  17.813  0.00  0.00    -0.082 Cl
ATOM     19 CL   LIG    1        4.875   1.092  18.044  0.00  0.00    -0.082 Cl
ENDBRANCH   1  16
TORSDOF 3
ENDMDL
MODEL 9
REMARK VINA RESULT:      -6.2      2.146      4.598
REMARK  Name = 
REMARK                            x       y       z     vdW  Elec       q    Type
REMARK                         _______ _______ _______ _____ _____    ______ ____
ROOT
ATOM      1  C   LIG    1        3.212  -0.387  21.730  0.00  0.00    +0.100 C 
ENDROOT
BRANCH   1   6
ATOM      2 CL   LIG    1        7.693  -2.562  18.201  0.00  0.00    -0.084 Cl
ATOM      3  C   LIG    1        6.425  -1.916  19.166  0.00  0.00    +0.041 A 
ATOM      4  C   LIG    1        5.131  -1.846  18.666  0.00  0.00    +0.020 A 
ATOM      5  C   LIG    1        4.091  -1.327  19.453  0.00  0.00    +0.006 A 
ATOM      6  C   LIG    1        4.321  -0.886  20.767  0.00  0.00    -0.036 A 
ATOM      7  C   LIG    1        5.648  -0.976  21.242  0.00  0.00    +0.006 A 
ATOM      8  C   LIG    1        6.691  -1.473  20.453  0.00  0.00    +0.020 A 
ENDBRANCH   1   6
BRANCH   1   9
ATOM      9  C   LIG    1        3.018   1.150  21.659  0.00  0.00    -0.036 A 
ATOM     10  C   LIG    1        3.410   1.941  20.568  0.00  0.00    +0.006 A 
ATOM     11  C   LIG    1        3.159   3.320  20.545  0.00  0.00    +0.020 A 
ATOM     12  C   LIG    1        2.555   3.942  21.632  0.00  0.00    +0.041 A 
ATOM     13 CL   LIG    1        2.268   5.636  21.609  0.00  0.00    -0.084 Cl
ATOM     14  C   LIG    1        2.176   3.190  22.735  0.00  0.00    +0.020 A 
ATOM     15  C   LIG    1        2.387   1.809  22.737  0.00  0.00    +0.006 A 
ENDBRANCH   1   9
BRANCH   1  16
ATOM     16  C   LIG    1        1.901  -1.258  21.892  0.00  0.00    +0.201 C 
ATOM     17 CL   LIG    1        0.783  -0.514  23.115  0.00  0.00    -0.082 Cl
ATOM     18 CL   LIG    1        2.303  -2.903  22.546  0.00  0.00    -0.082 Cl
ATOM     19 CL   LIG    1        0.931  -1.513  20.396  0.00  0.00    -0.082 Cl
ENDBRANCH   1  16
TORSDOF 3
ENDMDL
