MODEL 1
REMARK VINA RESULT:      -7.5      0.000      0.000
REMARK  Name = 
REMARK                            x       y       z     vdW  Elec       q    Type
REMARK                         _______ _______ _______ _____ _____    ______ ____
ROOT
ATOM      1  C   LIG    1        9.438   1.344  27.836  0.00  0.00    +0.100 C 
ENDROOT
BRANCH   1   6
ATOM      2 CL   LIG    1        7.155   6.642  25.843  0.00  0.00    -0.084 Cl
ATOM      3  C   LIG    1        7.837   5.161  26.385  0.00  0.00    +0.041 A 
ATOM      4  C   LIG    1        8.888   5.166  27.293  0.00  0.00    +0.020 A 
ATOM      5  C   LIG    1        9.443   3.958  27.745  0.00  0.00    +0.006 A 
ATOM      6  C   LIG    1        8.943   2.718  27.314  0.00  0.00    -0.036 A 
ATOM      7  C   LIG    1        7.871   2.753  26.395  0.00  0.00    +0.006 A 
ATOM      8  C   LIG    1        7.329   3.955  25.926  0.00  0.00    +0.020 A 
ENDBRANCH   1   6
BRANCH   1   9
ATOM      9  C   LIG    1        9.706   1.356  29.362  0.00  0.00    -0.036 A 
ATOM     10  C   LIG    1       10.977   1.514  29.936  0.00  0.00    +0.006 A 
ATOM     11  C   LIG    1       11.143   1.567  31.327  0.00  0.00    +0.020 A 
ATOM     12  C   LIG    1       10.050   1.414  32.171  0.00  0.00    +0.041 A 
ATOM     13 CL   LIG    1       10.262   1.458  33.876  0.00  0.00    -0.084 Cl
ATOM     14  C   LIG    1        8.783   1.233  31.635  0.00  0.00    +0.020 A 
ATOM     15  C   LIG    1        8.613   1.226  30.248  0.00  0.00    +0.006 A 
ENDBRANCH   1   9
BRANCH   1  16
ATOM     16  C   LIG    1        8.788   0.029  27.242  0.00  0.00    +0.201 C 
ATOM     17 CL   LIG    1        6.995   0.233  27.041  0.00  0.00    -0.082 Cl
ATOM     18 CL   LIG    1        8.989  -1.360  28.394  0.00  0.00    -0.082 Cl
ATOM     19 CL   LIG    1        9.427  -0.518  25.649  0.00  0.00    -0.082 Cl
ENDBRANCH   1  16
TORSDOF 3
ENDMDL
MODEL 2
REMARK VINA RESULT:      -7.5      3.417      5.090
REMARK  Name = 
REMARK                            x       y       z     vdW  Elec       q    Type
REMARK                         _______ _______ _______ _____ _____    ______ ____
ROOT
ATOM      1  C   LIG    1       11.329   1.664  29.863  0.00  0.00    +0.100 C 
ENDROOT
BRANCH   1   6
ATOM      2 CL   LIG    1       17.052   3.109  28.307  0.00  0.00    -0.084 Cl
ATOM      3  C   LIG    1       15.426   2.716  28.705  0.00  0.00    +0.041 A 
ATOM      4  C   LIG    1       14.748   1.737  27.990  0.00  0.00    +0.020 A 
ATOM      5  C   LIG    1       13.423   1.408  28.317  0.00  0.00    +0.006 A 
ATOM      6  C   LIG    1       12.756   2.036  29.381  0.00  0.00    -0.036 A 
ATOM      7  C   LIG    1       13.478   3.023  30.087  0.00  0.00    +0.006 A 
ATOM      8  C   LIG    1       14.792   3.369  29.751  0.00  0.00    +0.020 A 
ENDBRANCH   1   6
BRANCH   1   9
ATOM      9  C   LIG    1       11.100   2.018  31.354  0.00  0.00    -0.036 A 
ATOM     10  C   LIG    1       11.148   3.323  31.868  0.00  0.00    +0.006 A 
ATOM     11  C   LIG    1       10.881   3.580  33.221  0.00  0.00    +0.020 A 
ATOM     12  C   LIG    1       10.608   2.534  34.093  0.00  0.00    +0.041 A 
ATOM     13 CL   LIG    1       10.302   2.851  35.755  0.00  0.00    -0.084 Cl
ATOM     14  C   LIG    1       10.575   1.229  33.620  0.00  0.00    +0.020 A 
ATOM     15  C   LIG    1       10.798   0.980  32.263  0.00  0.00    +0.006 A 
ENDBRANCH   1   9
BRANCH   1  16
ATOM     16  C   LIG    1       10.110   1.910  28.883  0.00  0.00    +0.201 C 
ATOM     17 CL   LIG    1       10.031   3.653  28.381  0.00  0.00    -0.082 Cl
ATOM     18 CL   LIG    1        8.537   1.580  29.725  0.00  0.00    -0.082 Cl
ATOM     19 CL   LIG    1       10.106   0.937  27.367  0.00  0.00    -0.082 Cl
ENDBRANCH   1  16
TORSDOF 3
ENDMDL
MODEL 3
REMARK VINA RESULT:      -7.3      2.263      2.664
REMARK  Name = 
REMARK                            x       y       z     vdW  Elec       q    Type
REMARK                         _______ _______ _______ _____ _____    ______ ____
ROOT
ATOM      1  C   LIG    1        8.990   2.424  27.276  0.00  0.00    +0.100 C 
ENDROOT
BRANCH   1   6
ATOM      2 CL   LIG    1        6.659   7.858  25.762  0.00  0.00    -0.084 Cl
ATOM      3  C   LIG    1        7.304   6.312  26.148  0.00  0.00    +0.041 A 
ATOM      4  C   LIG    1        8.373   5.800  25.425  0.00  0.00    +0.020 A 
ATOM      5  C   LIG    1        8.908   4.541  25.742  0.00  0.00    +0.006 A 
ATOM      6  C   LIG    1        8.397   3.778  26.805  0.00  0.00    -0.036 A 
ATOM      7  C   LIG    1        7.314   4.333  27.520  0.00  0.00    +0.006 A 
ATOM      8  C   LIG    1        6.764   5.578  27.193  0.00  0.00    +0.020 A 
ENDBRANCH   1   6
BRANCH   1   9
ATOM      9  C   LIG    1       10.247   2.609  28.165  0.00  0.00    -0.036 A 
ATOM     10  C   LIG    1       11.347   1.737  28.161  0.00  0.00    +0.006 A 
ATOM     11  C   LIG    1       12.476   1.990  28.953  0.00  0.00    +0.020 A 
ATOM     12  C   LIG    1       12.507   3.093  29.798  0.00  0.00    +0.041 A 
ATOM     13 CL   LIG    1       13.885   3.388  30.783  0.00  0.00    -0.084 Cl
ATOM     14  C   LIG    1       11.426   3.962  29.841  0.00  0.00    +0.020 A 
ATOM     15  C   LIG    1       10.321   3.733  29.018  0.00  0.00    +0.006 A 
ENDBRANCH   1   9
BRANCH   1  16
ATOM     16  C   LIG    1        7.996   1.264  27.691  0.00  0.00    +0.201 C 
ATOM     17 CL   LIG    1        7.784   1.214  29.494  0.00  0.00    -0.082 Cl
ATOM     18 CL   LIG    1        8.681  -0.356  27.241  0.00  0.00    -0.082 Cl
ATOM     19 CL   LIG    1        6.344   1.348  26.980  0.00  0.00    -0.082 Cl
ENDBRANCH   1  16
TORSDOF 3
ENDMDL
MODEL 4
REMARK VINA RESULT:      -7.3      2.443      3.413
REMARK  Name = 
REMARK                            x       y       z     vdW  Elec       q    Type
REMARK                         _______ _______ _______ _____ _____    ______ ____
ROOT
ATOM      1  C   LIG    1        9.972   1.358  28.965  0.00  0.00    +0.100 C 
ENDROOT
BRANCH   1   6
ATOM      2 CL   LIG    1        6.319   4.725  25.419  0.00  0.00    -0.084 Cl
ATOM      3  C   LIG    1        7.382   3.787  26.391  0.00  0.00    +0.041 A 
ATOM      4  C   LIG    1        8.448   4.390  27.045  0.00  0.00    +0.020 A 
ATOM      5  C   LIG    1        9.314   3.628  27.845  0.00  0.00    +0.006 A 
ATOM      6  C   LIG    1        9.118   2.249  28.026  0.00  0.00    -0.036 A 
ATOM      7  C   LIG    1        8.021   1.672  27.350  0.00  0.00    +0.006 A 
ATOM      8  C   LIG    1        7.168   2.424  26.533  0.00  0.00    +0.020 A 
ENDBRANCH   1   6
BRANCH   1   9
ATOM      9  C   LIG    1       11.333   2.010  29.319  0.00  0.00    -0.036 A 
ATOM     10  C   LIG    1       11.525   2.891  30.395  0.00  0.00    +0.006 A 
ATOM     11  C   LIG    1       12.796   3.406  30.691  0.00  0.00    +0.020 A 
ATOM     12  C   LIG    1       13.886   3.090  29.890  0.00  0.00    +0.041 A 
ATOM     13 CL   LIG    1       15.437   3.742  30.244  0.00  0.00    -0.084 Cl
ATOM     14  C   LIG    1       13.723   2.241  28.805  0.00  0.00    +0.020 A 
ATOM     15  C   LIG    1       12.466   1.692  28.538  0.00  0.00    +0.006 A 
ENDBRANCH   1   9
BRANCH   1  16
ATOM     16  C   LIG    1        9.245   0.565  30.127  0.00  0.00    +0.201 C 
ATOM     17 CL   LIG    1       10.405   0.194  31.475  0.00  0.00    -0.082 Cl
ATOM     18 CL   LIG    1        8.664  -1.049  29.533  0.00  0.00    -0.082 Cl
ATOM     19 CL   LIG    1        7.829   1.387  30.877  0.00  0.00    -0.082 Cl
ENDBRANCH   1  16
TORSDOF 3
ENDMDL
MODEL 5
REMARK VINA RESULT:      -7.2      2.079      5.487
REMARK  Name = 
REMARK                            x       y       z     vdW  Elec       q    Type
REMARK                         _______ _______ _______ _____ _____    ______ ____
ROOT
ATOM      1  C   LIG    1        8.927   2.333  28.316  0.00  0.00    +0.100 C 
ENDROOT
BRANCH   1   6
ATOM      2 CL   LIG    1       14.683   3.251  30.127  0.00  0.00    -0.084 Cl
ATOM      3  C   LIG    1       13.052   2.978  29.658  0.00  0.00    +0.041 A 
ATOM      4  C   LIG    1       12.023   3.692  30.258  0.00  0.00    +0.020 A 
ATOM      5  C   LIG    1       10.690   3.478  29.872  0.00  0.00    +0.006 A 
ATOM      6  C   LIG    1       10.361   2.559  28.862  0.00  0.00    -0.036 A 
ATOM      7  C   LIG    1       11.434   1.855  28.272  0.00  0.00    +0.006 A 
ATOM      8  C   LIG    1       12.762   2.050  28.668  0.00  0.00    +0.020 A 
ENDBRANCH   1   6
BRANCH   1   9
ATOM      9  C   LIG    1        8.422   3.532  27.472  0.00  0.00    -0.036 A 
ATOM     10  C   LIG    1        7.168   4.139  27.643  0.00  0.00    +0.006 A 
ATOM     11  C   LIG    1        6.794   5.254  26.879  0.00  0.00    +0.020 A 
ATOM     12  C   LIG    1        7.644   5.753  25.900  0.00  0.00    +0.041 A 
ATOM     13 CL   LIG    1        7.172   7.106  24.952  0.00  0.00    -0.084 Cl
ATOM     14  C   LIG    1        8.882   5.159  25.692  0.00  0.00    +0.020 A 
ATOM     15  C   LIG    1        9.272   4.076  26.484  0.00  0.00    +0.006 A 
ENDBRANCH   1   9
BRANCH   1  16
ATOM     16  C   LIG    1        8.530   0.890  27.802  0.00  0.00    +0.201 C 
ATOM     17 CL   LIG    1        6.804   0.861  27.238  0.00  0.00    -0.082 Cl
ATOM     18 CL   LIG    1        8.614  -0.316  29.156  0.00  0.00    -0.082 Cl
ATOM     19 CL   LIG    1        9.524   0.231  26.452  0.00  0.00    -0.082 Cl
ENDBRANCH   1  16
TORSDOF 3
ENDMDL
MODEL 6
REMARK VINA RESULT:      -7.2      2.931      6.941
REMARK  Name = 
REMARK                            x       y       z     vdW  Elec       q    Type
REMARK                         _______ _______ _______ _____ _____    ______ ____
ROOT
ATOM      1  C   LIG    1       11.660   2.031  31.271  0.00  0.00    +0.100 C 
ENDROOT
BRANCH   1   6
ATOM      2 CL   LIG    1       10.395   1.819  37.239  0.00  0.00    -0.084 Cl
ATOM      3  C   LIG    1       10.741   1.836  35.555  0.00  0.00    +0.041 A 
ATOM      4  C   LIG    1        9.737   1.574  34.632  0.00  0.00    +0.020 A 
ATOM      5  C   LIG    1       10.013   1.594  33.256  0.00  0.00    +0.006 A 
ATOM      6  C   LIG    1       11.297   1.898  32.773  0.00  0.00    -0.036 A 
ATOM      7  C   LIG    1       12.291   2.163  33.741  0.00  0.00    +0.006 A 
ATOM      8  C   LIG    1       12.024   2.123  35.114  0.00  0.00    +0.020 A 
ENDBRANCH   1   6
BRANCH   1   9
ATOM      9  C   LIG    1       10.653   1.291  30.355  0.00  0.00    -0.036 A 
ATOM     10  C   LIG    1        9.552   0.559  30.827  0.00  0.00    +0.006 A 
ATOM     11  C   LIG    1        8.649  -0.045  29.941  0.00  0.00    +0.020 A 
ATOM     12  C   LIG    1        8.854   0.032  28.569  0.00  0.00    +0.041 A 
ATOM     13 CL   LIG    1        7.755  -0.727  27.487  0.00  0.00    -0.084 Cl
ATOM     14  C   LIG    1        9.945   0.730  28.071  0.00  0.00    +0.020 A 
ATOM     15  C   LIG    1       10.819   1.369  28.954  0.00  0.00    +0.006 A 
ENDBRANCH   1   9
BRANCH   1  16
ATOM     16  C   LIG    1       12.208   3.419  30.744  0.00  0.00    +0.201 C 
ATOM     17 CL   LIG    1       13.779   3.195  29.859  0.00  0.00    -0.082 Cl
ATOM     18 CL   LIG    1       12.591   4.524  32.132  0.00  0.00    -0.082 Cl
ATOM     19 CL   LIG    1       11.119   4.330  29.636  0.00  0.00    -0.082 Cl
ENDBRANCH   1  16
TORSDOF 3
ENDMDL
MODEL 7
REMARK VINA RESULT:      -7.0      2.578      6.089
REMARK  Name = 
REMARK                            x       y       z     vdW  Elec       q    Type
REMARK                         _______ _______ _______ _____ _____    ______ ____
ROOT
ATOM      1  C   LIG    1       11.382   1.700  29.894  0.00  0.00    +0.100 C 
ENDROOT
BRANCH   1   6
ATOM      2 CL   LIG    1       10.344   2.501  35.856  0.00  0.00    -0.084 Cl
ATOM      3  C   LIG    1       10.603   2.304  34.168  0.00  0.00    +0.041 A 
ATOM      4  C   LIG    1       11.024   3.379  33.395  0.00  0.00    +0.020 A 
ATOM      5  C   LIG    1       11.244   3.221  32.017  0.00  0.00    +0.006 A 
ATOM      6  C   LIG    1       11.070   1.977  31.388  0.00  0.00    -0.036 A 
ATOM      7  C   LIG    1       10.647   0.907  32.207  0.00  0.00    +0.006 A 
ATOM      8  C   LIG    1       10.405   1.066  33.576  0.00  0.00    +0.020 A 
ENDBRANCH   1   6
BRANCH   1   9
ATOM      9  C   LIG    1       10.096   1.573  29.038  0.00  0.00    -0.036 A 
ATOM     10  C   LIG    1        9.991   0.768  27.893  0.00  0.00    +0.006 A 
ATOM     11  C   LIG    1        8.781   0.659  27.192  0.00  0.00    +0.020 A 
ATOM     12  C   LIG    1        7.668   1.387  27.595  0.00  0.00    +0.041 A 
ATOM     13 CL   LIG    1        6.194   1.267  26.720  0.00  0.00    -0.084 Cl
ATOM     14  C   LIG    1        7.747   2.210  28.710  0.00  0.00    +0.020 A 
ATOM     15  C   LIG    1        8.940   2.283  29.433  0.00  0.00    +0.006 A 
ENDBRANCH   1   9
BRANCH   1  16
ATOM     16  C   LIG    1       12.607   2.446  29.224  0.00  0.00    +0.201 C 
ATOM     17 CL   LIG    1       12.030   3.641  27.983  0.00  0.00    -0.082 Cl
ATOM     18 CL   LIG    1       13.649   1.272  28.313  0.00  0.00    -0.082 Cl
ATOM     19 CL   LIG    1       13.691   3.348  30.344  0.00  0.00    -0.082 Cl
ENDBRANCH   1  16
TORSDOF 3
ENDMDL
MODEL 8
REMARK VINA RESULT:      -7.0      9.211     10.735
REMARK  Name = 
REMARK                            x       y       z     vdW  Elec       q    Type
REMARK                         _______ _______ _______ _____ _____    ______ ____
ROOT
ATOM      1  C   LIG    1       18.897   5.639  28.099  0.00  0.00    +0.100 C 
ENDROOT
BRANCH   1   6
ATOM      2 CL   LIG    1       18.124   9.438  32.814  0.00  0.00    -0.084 Cl
ATOM      3  C   LIG    1       18.377   8.393  31.474  0.00  0.00    +0.041 A 
ATOM      4  C   LIG    1       19.548   7.652  31.375  0.00  0.00    +0.020 A 
ATOM      5  C   LIG    1       19.755   6.791  30.285  0.00  0.00    +0.006 A 
ATOM      6  C   LIG    1       18.784   6.636  29.282  0.00  0.00    -0.036 A 
ATOM      7  C   LIG    1       17.605   7.402  29.419  0.00  0.00    +0.006 A 
ATOM      8  C   LIG    1       17.404   8.277  30.492  0.00  0.00    +0.020 A 
ENDBRANCH   1   6
BRANCH   1   9
ATOM      9  C   LIG    1       17.704   4.651  28.046  0.00  0.00    -0.036 A 
ATOM     10  C   LIG    1       17.225   4.062  26.865  0.00  0.00    +0.006 A 
ATOM     11  C   LIG    1       16.173   3.135  26.893  0.00  0.00    +0.020 A 
ATOM     12  C   LIG    1       15.549   2.817  28.094  0.00  0.00    +0.041 A 
ATOM     13 CL   LIG    1       14.246   1.697  28.120  0.00  0.00    -0.084 Cl
ATOM     14  C   LIG    1       15.985   3.400  29.275  0.00  0.00    +0.020 A 
ATOM     15  C   LIG    1       17.063   4.289  29.251  0.00  0.00    +0.006 A 
ENDBRANCH   1   9
BRANCH   1  16
ATOM     16  C   LIG    1       19.438   6.170  26.709  0.00  0.00    +0.201 C 
ATOM     17 CL   LIG    1       20.803   7.342  26.957  0.00  0.00    -0.082 Cl
ATOM     18 CL   LIG    1       18.150   7.108  25.839  0.00  0.00    -0.082 Cl
ATOM     19 CL   LIG    1       20.036   4.916  25.563  0.00  0.00    -0.082 Cl
ENDBRANCH   1  16
TORSDOF 3
ENDMDL
MODEL 9
REMARK VINA RESULT:      -6.9      2.620      5.606
REMARK  Name = 
REMARK                            x       y       z     vdW  Elec       q    Type
REMARK                         _______ _______ _______ _____ _____    ______ ____
ROOT
ATOM      1  C   LIG    1        9.696   1.973  29.743  0.00  0.00    +0.100 C 
ENDROOT
BRANCH   1   6
ATOM      2 CL   LIG    1       15.689   2.791  28.927  0.00  0.00    -0.084 Cl
ATOM      3  C   LIG    1       13.994   2.576  29.115  0.00  0.00    +0.041 A 
ATOM      4  C   LIG    1       13.312   1.665  28.318  0.00  0.00    +0.020 A 
ATOM      5  C   LIG    1       11.929   1.480  28.474  0.00  0.00    +0.006 A 
ATOM      6  C   LIG    1       11.203   2.187  29.447  0.00  0.00    -0.036 A 
ATOM      7  C   LIG    1       11.931   3.100  30.241  0.00  0.00    +0.006 A 
ATOM      8  C   LIG    1       13.306   3.303  30.074  0.00  0.00    +0.020 A 
ENDBRANCH   1   6
BRANCH   1   9
ATOM      9  C   LIG    1        8.794   2.420  28.564  0.00  0.00    -0.036 A 
ATOM     10  C   LIG    1        7.636   1.739  28.159  0.00  0.00    +0.006 A 
ATOM     11  C   LIG    1        6.836   2.227  27.116  0.00  0.00    +0.020 A 
ATOM     12  C   LIG    1        7.204   3.377  26.427  0.00  0.00    +0.041 A 
ATOM     13 CL   LIG    1        6.232   3.959  25.135  0.00  0.00    -0.084 Cl
ATOM     14  C   LIG    1        8.356   4.060  26.789  0.00  0.00    +0.020 A 
ATOM     15  C   LIG    1        9.128   3.598  27.858  0.00  0.00    +0.006 A 
ENDBRANCH   1   9
BRANCH   1  16
ATOM     16  C   LIG    1        9.253   0.662  30.513  0.00  0.00    +0.201 C 
ATOM     17 CL   LIG    1        7.683   0.929  31.386  0.00  0.00    -0.082 Cl
ATOM     18 CL   LIG    1       10.458   0.242  31.804  0.00  0.00    -0.082 Cl
ATOM     19 CL   LIG    1        9.036  -0.813  29.501  0.00  0.00    -0.082 Cl
ENDBRANCH   1  16
TORSDOF 3
ENDMDL
