MODEL 1
REMARK VINA RESULT:      -2.4      0.000      0.000
REMARK  Name = 
REMARK                            x       y       z     vdW  Elec       q    Type
REMARK                         _______ _______ _______ _____ _____    ______ ____
ROOT
ATOM      1  C   LIG    1       16.167   1.346  52.686  0.00  0.00    +0.100 C 
ENDROOT
BRANCH   1   6
ATOM      2 CL   LIG    1       18.694   6.432  50.448  0.00  0.00    -0.084 Cl
ATOM      3  C   LIG    1       17.993   5.013  51.119  0.00  0.00    +0.041 A 
ATOM      4  C   LIG    1       16.883   5.107  51.949  0.00  0.00    +0.020 A 
ATOM      5  C   LIG    1       16.302   3.951  52.494  0.00  0.00    +0.006 A 
ATOM      6  C   LIG    1       16.807   2.673  52.201  0.00  0.00    -0.036 A 
ATOM      7  C   LIG    1       17.932   2.617  51.350  0.00  0.00    +0.006 A 
ATOM      8  C   LIG    1       18.527   3.768  50.822  0.00  0.00    +0.020 A 
ENDBRANCH   1   6
BRANCH   1   9
ATOM      9  C   LIG    1       16.180   1.216  54.230  0.00  0.00    -0.036 A 
ATOM     10  C   LIG    1       15.219   1.793  55.075  0.00  0.00    +0.006 A 
ATOM     11  C   LIG    1       15.260   1.595  56.462  0.00  0.00    +0.020 A 
ATOM     12  C   LIG    1       16.288   0.856  57.036  0.00  0.00    +0.041 A 
ATOM     13 CL   LIG    1       16.347   0.633  58.739  0.00  0.00    -0.084 Cl
ATOM     14  C   LIG    1       17.267   0.292  56.229  0.00  0.00    +0.020 A 
ATOM     15  C   LIG    1       17.199   0.453  54.843  0.00  0.00    +0.006 A 
ENDBRANCH   1   9
BRANCH   1  16
ATOM     16  C   LIG    1       14.876   0.810  51.942  0.00  0.00    +0.201 C 
ATOM     17 CL   LIG    1       14.230  -0.673  52.767  0.00  0.00    -0.082 Cl
ATOM     18 CL   LIG    1       15.284   0.283  50.254  0.00  0.00    -0.082 Cl
ATOM     19 CL   LIG    1       13.502   1.967  51.812  0.00  0.00    -0.082 Cl
ENDBRANCH   1  16
TORSDOF 3
ENDMDL
MODEL 2
REMARK VINA RESULT:      -2.4      2.299      4.590
REMARK  Name = 
REMARK                            x       y       z     vdW  Elec       q    Type
REMARK                         _______ _______ _______ _____ _____    ______ ____
ROOT
ATOM      1  C   LIG    1       16.085   3.224  53.484  0.00  0.00    +0.100 C 
ENDROOT
BRANCH   1   6
ATOM      2 CL   LIG    1       17.324   8.442  50.569  0.00  0.00    -0.084 Cl
ATOM      3  C   LIG    1       16.962   6.954  51.351  0.00  0.00    +0.041 A 
ATOM      4  C   LIG    1       17.670   5.804  51.028  0.00  0.00    +0.020 A 
ATOM      5  C   LIG    1       17.383   4.589  51.670  0.00  0.00    +0.006 A 
ATOM      6  C   LIG    1       16.396   4.504  52.666  0.00  0.00    -0.036 A 
ATOM      7  C   LIG    1       15.701   5.695  52.971  0.00  0.00    +0.006 A 
ATOM      8  C   LIG    1       15.969   6.903  52.318  0.00  0.00    +0.020 A 
ENDBRANCH   1   6
BRANCH   1   9
ATOM      9  C   LIG    1       15.465   2.103  52.611  0.00  0.00    -0.036 A 
ATOM     10  C   LIG    1       15.934   0.781  52.582  0.00  0.00    +0.006 A 
ATOM     11  C   LIG    1       15.295  -0.198  51.807  0.00  0.00    +0.020 A 
ATOM     12  C   LIG    1       14.205   0.136  51.013  0.00  0.00    +0.041 A 
ATOM     13 CL   LIG    1       13.438  -1.062  50.049  0.00  0.00    -0.084 Cl
ATOM     14  C   LIG    1       13.731   1.441  51.003  0.00  0.00    +0.020 A 
ATOM     15  C   LIG    1       14.342   2.405  51.810  0.00  0.00    +0.006 A 
ENDBRANCH   1   9
BRANCH   1  16
ATOM     16  C   LIG    1       17.114   2.766  54.596  0.00  0.00    +0.201 C 
ATOM     17 CL   LIG    1       16.362   1.536  55.701  0.00  0.00    -0.082 Cl
ATOM     18 CL   LIG    1       17.564   4.162  55.665  0.00  0.00    -0.082 Cl
ATOM     19 CL   LIG    1       18.654   2.048  53.999  0.00  0.00    -0.082 Cl
ENDBRANCH   1  16
TORSDOF 3
ENDMDL
MODEL 3
REMARK VINA RESULT:      -2.4      2.436      5.907
REMARK  Name = 
REMARK                            x       y       z     vdW  Elec       q    Type
REMARK                         _______ _______ _______ _____ _____    ______ ____
ROOT
ATOM      1  C   LIG    1       16.557   3.214  53.538  0.00  0.00    +0.100 C 
ENDROOT
BRANCH   1   6
ATOM      2 CL   LIG    1       13.439  -1.058  50.490  0.00  0.00    -0.084 Cl
ATOM      3  C   LIG    1       14.303   0.127  51.387  0.00  0.00    +0.041 A 
ATOM      4  C   LIG    1       15.349  -0.251  52.220  0.00  0.00    +0.020 A 
ATOM      5  C   LIG    1       16.062   0.714  52.948  0.00  0.00    +0.006 A 
ATOM      6  C   LIG    1       15.759   2.082  52.841  0.00  0.00    -0.036 A 
ATOM      7  C   LIG    1       14.693   2.428  51.981  0.00  0.00    +0.006 A 
ATOM      8  C   LIG    1       13.965   1.467  51.270  0.00  0.00    +0.020 A 
ENDBRANCH   1   6
BRANCH   1   9
ATOM      9  C   LIG    1       17.638   3.828  52.612  0.00  0.00    -0.036 A 
ATOM     10  C   LIG    1       17.354   4.664  51.520  0.00  0.00    +0.006 A 
ATOM     11  C   LIG    1       18.383   5.228  50.753  0.00  0.00    +0.020 A 
ATOM     12  C   LIG    1       19.711   4.931  51.032  0.00  0.00    +0.041 A 
ATOM     13 CL   LIG    1       20.969   5.608  50.076  0.00  0.00    -0.084 Cl
ATOM     14  C   LIG    1       20.024   4.090  52.091  0.00  0.00    +0.020 A 
ATOM     15  C   LIG    1       18.999   3.564  52.882  0.00  0.00    +0.006 A 
ENDBRANCH   1   9
BRANCH   1  16
ATOM     16  C   LIG    1       15.780   4.220  54.481  0.00  0.00    +0.201 C 
ATOM     17 CL   LIG    1       16.920   5.018  55.648  0.00  0.00    -0.082 Cl
ATOM     18 CL   LIG    1       14.580   3.331  55.513  0.00  0.00    -0.082 Cl
ATOM     19 CL   LIG    1       14.880   5.543  53.654  0.00  0.00    -0.082 Cl
ENDBRANCH   1  16
TORSDOF 3
ENDMDL
MODEL 4
REMARK VINA RESULT:      -2.3      3.284      5.227
REMARK  Name = 
REMARK                            x       y       z     vdW  Elec       q    Type
REMARK                         _______ _______ _______ _____ _____    ______ ____
ROOT
ATOM      1  C   LIG    1       14.443   4.643  53.842  0.00  0.00    +0.100 C 
ENDROOT
BRANCH   1   6
ATOM      2 CL   LIG    1       14.819   9.932  50.818  0.00  0.00    -0.084 Cl
ATOM      3  C   LIG    1       14.727   8.421  51.633  0.00  0.00    +0.041 A 
ATOM      4  C   LIG    1       15.876   7.671  51.847  0.00  0.00    +0.020 A 
ATOM      5  C   LIG    1       15.807   6.440  52.519  0.00  0.00    +0.006 A 
ATOM      6  C   LIG    1       14.589   5.944  53.011  0.00  0.00    -0.036 A 
ATOM      7  C   LIG    1       13.443   6.737  52.779  0.00  0.00    +0.006 A 
ATOM      8  C   LIG    1       13.504   7.954  52.091  0.00  0.00    +0.020 A 
ENDBRANCH   1   6
BRANCH   1   9
ATOM      9  C   LIG    1       14.546   3.369  52.964  0.00  0.00    -0.036 A 
ATOM     10  C   LIG    1       13.438   2.690  52.435  0.00  0.00    +0.006 A 
ATOM     11  C   LIG    1       13.602   1.571  51.605  0.00  0.00    +0.020 A 
ATOM     12  C   LIG    1       14.873   1.084  51.327  0.00  0.00    +0.041 A 
ATOM     13 CL   LIG    1       15.070  -0.300  50.326  0.00  0.00    -0.084 Cl
ATOM     14  C   LIG    1       15.988   1.721  51.854  0.00  0.00    +0.020 A 
ATOM     15  C   LIG    1       15.825   2.861  52.645  0.00  0.00    +0.006 A 
ENDBRANCH   1   9
BRANCH   1  16
ATOM     16  C   LIG    1       15.125   4.574  55.269  0.00  0.00    +0.201 C 
ATOM     17 CL   LIG    1       14.726   3.008  56.097  0.00  0.00    -0.082 Cl
ATOM     18 CL   LIG    1       14.469   5.874  56.353  0.00  0.00    -0.082 Cl
ATOM     19 CL   LIG    1       16.920   4.728  55.295  0.00  0.00    -0.082 Cl
ENDBRANCH   1  16
TORSDOF 3
ENDMDL
MODEL 5
REMARK VINA RESULT:      -2.3      2.646      4.326
REMARK  Name = 
REMARK                            x       y       z     vdW  Elec       q    Type
REMARK                         _______ _______ _______ _____ _____    ______ ____
ROOT
ATOM      1  C   LIG    1       16.300   4.225  52.869  0.00  0.00    +0.100 C 
ENDROOT
BRANCH   1   6
ATOM      2 CL   LIG    1       21.908   4.475  50.470  0.00  0.00    -0.084 Cl
ATOM      3  C   LIG    1       20.332   4.360  51.148  0.00  0.00    +0.041 A 
ATOM      4  C   LIG    1       20.158   3.863  52.433  0.00  0.00    +0.020 A 
ATOM      5  C   LIG    1       18.874   3.774  52.993  0.00  0.00    +0.006 A 
ATOM      6  C   LIG    1       17.738   4.203  52.287  0.00  0.00    -0.036 A 
ATOM      7  C   LIG    1       17.954   4.707  50.986  0.00  0.00    +0.006 A 
ATOM      8  C   LIG    1       19.230   4.777  50.415  0.00  0.00    +0.020 A 
ENDBRANCH   1   6
BRANCH   1   9
ATOM      9  C   LIG    1       15.521   2.921  52.562  0.00  0.00    -0.036 A 
ATOM     10  C   LIG    1       14.138   2.869  52.327  0.00  0.00    +0.006 A 
ATOM     11  C   LIG    1       13.502   1.662  52.004  0.00  0.00    +0.020 A 
ATOM     12  C   LIG    1       14.227   0.478  51.955  0.00  0.00    +0.041 A 
ATOM     13 CL   LIG    1       13.440  -1.003  51.579  0.00  0.00    -0.084 Cl
ATOM     14  C   LIG    1       15.592   0.492  52.205  0.00  0.00    +0.020 A 
ATOM     15  C   LIG    1       16.232   1.703  52.483  0.00  0.00    +0.006 A 
ENDBRANCH   1   9
BRANCH   1  16
ATOM     16  C   LIG    1       16.070   4.866  54.298  0.00  0.00    +0.201 C 
ATOM     17 CL   LIG    1       16.164   3.596  55.594  0.00  0.00    -0.082 Cl
ATOM     18 CL   LIG    1       14.399   5.562  54.425  0.00  0.00    -0.082 Cl
ATOM     19 CL   LIG    1       17.217   6.171  54.772  0.00  0.00    -0.082 Cl
ENDBRANCH   1  16
TORSDOF 3
ENDMDL
MODEL 6
REMARK VINA RESULT:      -2.3      2.394      6.370
REMARK  Name = 
REMARK                            x       y       z     vdW  Elec       q    Type
REMARK                         _______ _______ _______ _____ _____    ______ ____
ROOT
ATOM      1  C   LIG    1       17.921   3.189  51.992  0.00  0.00    +0.100 C 
ENDROOT
BRANCH   1   6
ATOM      2 CL   LIG    1       13.438  -0.441  53.986  0.00  0.00    -0.084 Cl
ATOM      3  C   LIG    1       14.679   0.616  53.442  0.00  0.00    +0.041 A 
ATOM      4  C   LIG    1       15.444   1.327  54.357  0.00  0.00    +0.020 A 
ATOM      5  C   LIG    1       16.464   2.185  53.918  0.00  0.00    +0.006 A 
ATOM      6  C   LIG    1       16.754   2.334  52.552  0.00  0.00    -0.036 A 
ATOM      7  C   LIG    1       15.959   1.593  51.651  0.00  0.00    +0.006 A 
ATOM      8  C   LIG    1       14.927   0.752  52.084  0.00  0.00    +0.020 A 
ENDBRANCH   1   6
BRANCH   1   9
ATOM      9  C   LIG    1       17.478   4.632  51.640  0.00  0.00    -0.036 A 
ATOM     10  C   LIG    1       17.959   5.354  50.536  0.00  0.00    +0.006 A 
ATOM     11  C   LIG    1       17.478   6.639  50.246  0.00  0.00    +0.020 A 
ATOM     12  C   LIG    1       16.544   7.244  51.077  0.00  0.00    +0.041 A 
ATOM     13 CL   LIG    1       15.973   8.827  50.729  0.00  0.00    -0.084 Cl
ATOM     14  C   LIG    1       16.066   6.565  52.190  0.00  0.00    +0.020 A 
ATOM     15  C   LIG    1       16.513   5.267  52.453  0.00  0.00    +0.006 A 
ENDBRANCH   1   9
BRANCH   1  16
ATOM     16  C   LIG    1       19.357   3.028  52.639  0.00  0.00    +0.201 C 
ATOM     17 CL   LIG    1       19.575   1.355  53.312  0.00  0.00    -0.082 Cl
ATOM     18 CL   LIG    1       19.548   4.146  54.057  0.00  0.00    -0.082 Cl
ATOM     19 CL   LIG    1       20.755   3.329  51.545  0.00  0.00    -0.082 Cl
ENDBRANCH   1  16
TORSDOF 3
ENDMDL
MODEL 7
REMARK VINA RESULT:      -2.2      2.386      4.369
REMARK  Name = 
REMARK                            x       y       z     vdW  Elec       q    Type
REMARK                         _______ _______ _______ _____ _____    ______ ____
ROOT
ATOM      1  C   LIG    1       15.830   3.628  53.267  0.00  0.00    +0.100 C 
ENDROOT
BRANCH   1   6
ATOM      2 CL   LIG    1       21.103   5.470  50.804  0.00  0.00    -0.084 Cl
ATOM      3  C   LIG    1       19.610   4.994  51.511  0.00  0.00    +0.041 A 
ATOM      4  C   LIG    1       18.413   5.505  51.028  0.00  0.00    +0.020 A 
ATOM      5  C   LIG    1       17.191   5.112  51.597  0.00  0.00    +0.006 A 
ATOM      6  C   LIG    1       17.141   4.182  52.648  0.00  0.00    -0.036 A 
ATOM      7  C   LIG    1       18.378   3.680  53.109  0.00  0.00    +0.006 A 
ATOM      8  C   LIG    1       19.599   4.085  52.559  0.00  0.00    +0.020 A 
ENDBRANCH   1   6
BRANCH   1   9
ATOM      9  C   LIG    1       15.238   2.457  52.442  0.00  0.00    -0.036 A 
ATOM     10  C   LIG    1       13.898   2.385  52.032  0.00  0.00    +0.006 A 
ATOM     11  C   LIG    1       13.438   1.321  51.242  0.00  0.00    +0.020 A 
ATOM     12  C   LIG    1       14.296   0.288  50.888  0.00  0.00    +0.041 A 
ATOM     13 CL   LIG    1       13.723  -1.025  49.938  0.00  0.00    -0.084 Cl
ATOM     14  C   LIG    1       15.622   0.319  51.297  0.00  0.00    +0.020 A 
ATOM     15  C   LIG    1       16.089   1.402  52.046  0.00  0.00    +0.006 A 
ENDBRANCH   1   9
BRANCH   1  16
ATOM     16  C   LIG    1       15.728   3.506  54.842  0.00  0.00    +0.201 C 
ATOM     17 CL   LIG    1       13.992   3.421  55.368  0.00  0.00    -0.082 Cl
ATOM     18 CL   LIG    1       16.403   4.988  55.643  0.00  0.00    -0.082 Cl
ATOM     19 CL   LIG    1       16.560   2.089  55.580  0.00  0.00    -0.082 Cl
ENDBRANCH   1  16
TORSDOF 3
ENDMDL
MODEL 8
REMARK VINA RESULT:      -2.2      2.343      4.101
REMARK  Name = 
REMARK                            x       y       z     vdW  Elec       q    Type
REMARK                         _______ _______ _______ _____ _____    ______ ____
ROOT
ATOM      1  C   LIG    1       16.665   4.062  52.143  0.00  0.00    +0.100 C 
ENDROOT
BRANCH   1   6
ATOM      2 CL   LIG    1       22.595   3.103  51.061  0.00  0.00    -0.084 Cl
ATOM      3  C   LIG    1       20.933   3.417  51.364  0.00  0.00    +0.041 A 
ATOM      4  C   LIG    1       20.160   4.075  50.416  0.00  0.00    +0.020 A 
ATOM      5  C   LIG    1       18.800   4.327  50.656  0.00  0.00    +0.006 A 
ATOM      6  C   LIG    1       18.179   3.905  51.843  0.00  0.00    -0.036 A 
ATOM      7  C   LIG    1       18.994   3.235  52.781  0.00  0.00    +0.006 A 
ATOM      8  C   LIG    1       20.355   3.001  52.555  0.00  0.00    +0.020 A 
ENDBRANCH   1   6
BRANCH   1   9
ATOM      9  C   LIG    1       16.045   2.771  52.735  0.00  0.00    -0.036 A 
ATOM     10  C   LIG    1       15.814   2.567  54.105  0.00  0.00    +0.006 A 
ATOM     11  C   LIG    1       15.201   1.395  54.570  0.00  0.00    +0.020 A 
ATOM     12  C   LIG    1       14.852   0.385  53.681  0.00  0.00    +0.041 A 
ATOM     13 CL   LIG    1       14.122  -1.060  54.258  0.00  0.00    -0.084 Cl
ATOM     14  C   LIG    1       15.089   0.547  52.323  0.00  0.00    +0.020 A 
ATOM     15  C   LIG    1       15.658   1.734  51.857  0.00  0.00    +0.006 A 
ENDBRANCH   1   9
BRANCH   1  16
ATOM     16  C   LIG    1       16.149   5.433  52.743  0.00  0.00    +0.201 C 
ATOM     17 CL   LIG    1       16.469   6.800  51.591  0.00  0.00    -0.082 Cl
ATOM     18 CL   LIG    1       17.063   5.853  54.254  0.00  0.00    -0.082 Cl
ATOM     19 CL   LIG    1       14.397   5.506  53.155  0.00  0.00    -0.082 Cl
ENDBRANCH   1  16
TORSDOF 3
ENDMDL
MODEL 9
REMARK VINA RESULT:      -2.1      1.693      1.946
REMARK  Name = 
REMARK                            x       y       z     vdW  Elec       q    Type
REMARK                         _______ _______ _______ _____ _____    ______ ____
ROOT
ATOM      1  C   LIG    1       17.132   1.604  52.802  0.00  0.00    +0.100 C 
ENDROOT
BRANCH   1   6
ATOM      2 CL   LIG    1       18.142   6.899  49.938  0.00  0.00    -0.084 Cl
ATOM      3  C   LIG    1       17.873   5.426  50.783  0.00  0.00    +0.041 A 
ATOM      4  C   LIG    1       16.951   5.373  51.820  0.00  0.00    +0.020 A 
ATOM      5  C   LIG    1       16.723   4.171  52.508  0.00  0.00    +0.006 A 
ATOM      6  C   LIG    1       17.396   2.989  52.156  0.00  0.00    -0.036 A 
ATOM      7  C   LIG    1       18.322   3.081  51.093  0.00  0.00    +0.006 A 
ATOM      8  C   LIG    1       18.568   4.282  50.419  0.00  0.00    +0.020 A 
ENDBRANCH   1   6
BRANCH   1   9
ATOM      9  C   LIG    1       17.946   1.399  54.105  0.00  0.00    -0.036 A 
ATOM     10  C   LIG    1       17.567   1.912  55.356  0.00  0.00    +0.006 A 
ATOM     11  C   LIG    1       18.323   1.645  56.507  0.00  0.00    +0.020 A 
ATOM     12  C   LIG    1       19.494   0.902  56.422  0.00  0.00    +0.041 A 
ATOM     13 CL   LIG    1       20.428   0.596  57.832  0.00  0.00    -0.084 Cl
ATOM     14  C   LIG    1       19.907   0.400  55.195  0.00  0.00    +0.020 A 
ATOM     15  C   LIG    1       19.129   0.629  54.057  0.00  0.00    +0.006 A 
ENDBRANCH   1   9
BRANCH   1  16
ATOM     16  C   LIG    1       15.656   1.032  52.792  0.00  0.00    +0.201 C 
ATOM     17 CL   LIG    1       15.622  -0.666  53.436  0.00  0.00    -0.082 Cl
ATOM     18 CL   LIG    1       15.028   0.915  51.093  0.00  0.00    -0.082 Cl
ATOM     19 CL   LIG    1       14.440   1.966  53.737  0.00  0.00    -0.082 Cl
ENDBRANCH   1  16
TORSDOF 3
ENDMDL
