MODEL 1
REMARK VINA RESULT:      -6.4      0.000      0.000
REMARK  Name = 
REMARK                            x       y       z     vdW  Elec       q    Type
REMARK                         _______ _______ _______ _____ _____    ______ ____
ROOT
ATOM      1  C   LIG    1       27.957   0.572  19.853  0.00  0.00    +0.100 C 
ENDROOT
BRANCH   1   6
ATOM      2 CL   LIG    1       24.982   5.883  20.312  0.00  0.00    -0.084 Cl
ATOM      3  C   LIG    1       25.837   4.393  20.224  0.00  0.00    +0.041 A 
ATOM      4  C   LIG    1       25.531   3.359  21.099  0.00  0.00    +0.020 A 
ATOM      5  C   LIG    1       26.221   2.138  21.025  0.00  0.00    +0.006 A 
ATOM      6  C   LIG    1       27.217   1.920  20.059  0.00  0.00    -0.036 A 
ATOM      7  C   LIG    1       27.496   2.992  19.184  0.00  0.00    +0.006 A 
ATOM      8  C   LIG    1       26.826   4.218  19.268  0.00  0.00    +0.020 A 
ENDBRANCH   1   6
BRANCH   1   9
ATOM      9  C   LIG    1       28.687   0.100  21.136  0.00  0.00    -0.036 A 
ATOM     10  C   LIG    1       28.050  -0.541  22.211  0.00  0.00    +0.006 A 
ATOM     11  C   LIG    1       28.779  -0.990  23.322  0.00  0.00    +0.020 A 
ATOM     12  C   LIG    1       30.148  -0.765  23.401  0.00  0.00    +0.041 A 
ATOM     13 CL   LIG    1       31.034  -1.297  24.774  0.00  0.00    -0.084 Cl
ATOM     14  C   LIG    1       30.803  -0.113  22.365  0.00  0.00    +0.020 A 
ATOM     15  C   LIG    1       30.083   0.293  21.238  0.00  0.00    +0.006 A 
ENDBRANCH   1   9
BRANCH   1  16
ATOM     16  C   LIG    1       27.260  -0.551  18.982  0.00  0.00    +0.201 C 
ATOM     17 CL   LIG    1       25.737  -1.132  19.783  0.00  0.00    -0.082 Cl
ATOM     18 CL   LIG    1       28.326  -2.014  18.855  0.00  0.00    -0.082 Cl
ATOM     19 CL   LIG    1       26.812  -0.083  17.301  0.00  0.00    -0.082 Cl
ENDBRANCH   1  16
TORSDOF 3
ENDMDL
MODEL 2
REMARK VINA RESULT:      -6.4      0.076      1.161
REMARK  Name = 
REMARK                            x       y       z     vdW  Elec       q    Type
REMARK                         _______ _______ _______ _____ _____    ______ ____
ROOT
ATOM      1  C   LIG    1       27.952   0.534  19.895  0.00  0.00    +0.100 C 
ENDROOT
BRANCH   1   6
ATOM      2 CL   LIG    1       25.083   5.906  20.298  0.00  0.00    -0.084 Cl
ATOM      3  C   LIG    1       25.905   4.398  20.226  0.00  0.00    +0.041 A 
ATOM      4  C   LIG    1       25.530   3.356  21.064  0.00  0.00    +0.020 A 
ATOM      5  C   LIG    1       26.193   2.121  21.004  0.00  0.00    +0.006 A 
ATOM      6  C   LIG    1       27.233   1.895  20.087  0.00  0.00    -0.036 A 
ATOM      7  C   LIG    1       27.584   2.975  19.248  0.00  0.00    +0.006 A 
ATOM      8  C   LIG    1       26.939   4.215  19.320  0.00  0.00    +0.020 A 
ENDBRANCH   1   6
BRANCH   1   9
ATOM      9  C   LIG    1       28.689   0.071  21.177  0.00  0.00    -0.036 A 
ATOM     10  C   LIG    1       28.057  -0.552  22.265  0.00  0.00    +0.006 A 
ATOM     11  C   LIG    1       28.793  -0.992  23.375  0.00  0.00    +0.020 A 
ATOM     12  C   LIG    1       30.164  -0.777  23.439  0.00  0.00    +0.041 A 
ATOM     13 CL   LIG    1       31.058  -1.300  24.811  0.00  0.00    -0.084 Cl
ATOM     14  C   LIG    1       30.814  -0.143  22.389  0.00  0.00    +0.020 A 
ATOM     15  C   LIG    1       30.087   0.255  21.264  0.00  0.00    +0.006 A 
ENDBRANCH   1   9
BRANCH   1  16
ATOM     16  C   LIG    1       27.228  -0.593  19.050  0.00  0.00    +0.201 C 
ATOM     17 CL   LIG    1       28.331  -2.014  18.797  0.00  0.00    -0.082 Cl
ATOM     18 CL   LIG    1       26.832   0.012  17.385  0.00  0.00    -0.082 Cl
ATOM     19 CL   LIG    1       25.700  -1.244  19.747  0.00  0.00    -0.082 Cl
ENDBRANCH   1  16
TORSDOF 3
ENDMDL
MODEL 3
REMARK VINA RESULT:      -6.1      0.620      5.642
REMARK  Name = 
REMARK                            x       y       z     vdW  Elec       q    Type
REMARK                         _______ _______ _______ _____ _____    ______ ____
ROOT
ATOM      1  C   LIG    1       27.149   0.049  20.644  0.00  0.00    +0.100 C 
ENDROOT
BRANCH   1   6
ATOM      2 CL   LIG    1       31.453  -1.193  24.791  0.00  0.00    -0.084 Cl
ATOM      3  C   LIG    1       30.250  -0.799  23.628  0.00  0.00    +0.041 A 
ATOM      4  C   LIG    1       30.604  -0.178  22.438  0.00  0.00    +0.020 A 
ATOM      5  C   LIG    1       29.625   0.139  21.482  0.00  0.00    +0.006 A 
ATOM      6  C   LIG    1       28.273  -0.182  21.688  0.00  0.00    -0.036 A 
ATOM      7  C   LIG    1       27.952  -0.817  22.907  0.00  0.00    +0.006 A 
ATOM      8  C   LIG    1       28.921  -1.115  23.872  0.00  0.00    +0.020 A 
ENDBRANCH   1   6
BRANCH   1   9
ATOM      9  C   LIG    1       26.791   1.549  20.487  0.00  0.00    -0.036 A 
ATOM     10  C   LIG    1       27.476   2.435  19.641  0.00  0.00    +0.006 A 
ATOM     11  C   LIG    1       27.068   3.770  19.506  0.00  0.00    +0.020 A 
ATOM     12  C   LIG    1       25.999   4.256  20.249  0.00  0.00    +0.041 A 
ATOM     13 CL   LIG    1       25.516   5.898  20.097  0.00  0.00    -0.084 Cl
ATOM     14  C   LIG    1       25.316   3.410  21.112  0.00  0.00    +0.020 A 
ATOM     15  C   LIG    1       25.695   2.069  21.211  0.00  0.00    +0.006 A 
ENDBRANCH   1   9
BRANCH   1  16
ATOM     16  C   LIG    1       27.153  -0.819  19.321  0.00  0.00    +0.201 C 
ATOM     17 CL   LIG    1       25.715  -1.927  19.275  0.00  0.00    -0.082 Cl
ATOM     18 CL   LIG    1       28.604  -1.910  19.277  0.00  0.00    -0.082 Cl
ATOM     19 CL   LIG    1       27.144   0.101  17.772  0.00  0.00    -0.082 Cl
ENDBRANCH   1  16
TORSDOF 3
ENDMDL
MODEL 4
REMARK VINA RESULT:      -5.5      0.979      5.340
REMARK  Name = 
REMARK                            x       y       z     vdW  Elec       q    Type
REMARK                         _______ _______ _______ _____ _____    ______ ____
ROOT
ATOM      1  C   LIG    1       27.054   0.206  20.370  0.00  0.00    +0.100 C 
ENDROOT
BRANCH   1   6
ATOM      2 CL   LIG    1       32.519   0.328  23.086  0.00  0.00    -0.084 Cl
ATOM      3  C   LIG    1       30.991   0.255  22.302  0.00  0.00    +0.041 A 
ATOM      4  C   LIG    1       30.105  -0.775  22.591  0.00  0.00    +0.020 A 
ATOM      5  C   LIG    1       28.853  -0.834  21.959  0.00  0.00    +0.006 A 
ATOM      6  C   LIG    1       28.452   0.150  21.039  0.00  0.00    -0.036 A 
ATOM      7  C   LIG    1       29.377   1.183  20.774  0.00  0.00    +0.006 A 
ATOM      8  C   LIG    1       30.635   1.233  21.386  0.00  0.00    +0.020 A 
ENDBRANCH   1   6
BRANCH   1   9
ATOM      9  C   LIG    1       26.492   1.649  20.302  0.00  0.00    -0.036 A 
ATOM     10  C   LIG    1       25.798   2.272  21.351  0.00  0.00    +0.006 A 
ATOM     11  C   LIG    1       25.360   3.600  21.243  0.00  0.00    +0.020 A 
ATOM     12  C   LIG    1       25.565   4.313  20.068  0.00  0.00    +0.041 A 
ATOM     13 CL   LIG    1       25.008   5.933  19.932  0.00  0.00    -0.084 Cl
ATOM     14  C   LIG    1       26.228   3.717  19.004  0.00  0.00    +0.020 A 
ATOM     15  C   LIG    1       26.703   2.409  19.130  0.00  0.00    +0.006 A 
ENDBRANCH   1   9
BRANCH   1  16
ATOM     16  C   LIG    1       26.774  -0.721  19.118  0.00  0.00    +0.201 C 
ATOM     17 CL   LIG    1       25.445  -1.905  19.480  0.00  0.00    -0.082 Cl
ATOM     18 CL   LIG    1       28.231  -1.735  18.736  0.00  0.00    -0.082 Cl
ATOM     19 CL   LIG    1       26.311   0.124  17.597  0.00  0.00    -0.082 Cl
ENDBRANCH   1  16
TORSDOF 3
ENDMDL
MODEL 5
REMARK VINA RESULT:      -5.4      2.533      4.377
REMARK  Name = 
REMARK                            x       y       z     vdW  Elec       q    Type
REMARK                         _______ _______ _______ _____ _____    ______ ____
ROOT
ATOM      1  C   LIG    1       25.946   2.391  19.878  0.00  0.00    +0.100 C 
ENDROOT
BRANCH   1   6
ATOM      2 CL   LIG    1       25.323   2.947  13.831  0.00  0.00    -0.084 Cl
ATOM      3  C   LIG    1       25.474   2.753  15.533  0.00  0.00    +0.041 A 
ATOM      4  C   LIG    1       26.120   1.641  16.056  0.00  0.00    +0.020 A 
ATOM      5  C   LIG    1       26.252   1.483  17.444  0.00  0.00    +0.006 A 
ATOM      6  C   LIG    1       25.759   2.447  18.339  0.00  0.00    -0.036 A 
ATOM      7  C   LIG    1       25.112   3.566  17.771  0.00  0.00    +0.006 A 
ATOM      8  C   LIG    1       24.960   3.717  16.388  0.00  0.00    +0.020 A 
ENDBRANCH   1   6
BRANCH   1   9
ATOM      9  C   LIG    1       27.075   1.416  20.299  0.00  0.00    -0.036 A 
ATOM     10  C   LIG    1       28.440   1.746  20.292  0.00  0.00    +0.006 A 
ATOM     11  C   LIG    1       29.408   0.832  20.734  0.00  0.00    +0.020 A 
ATOM     12  C   LIG    1       29.036  -0.441  21.146  0.00  0.00    +0.041 A 
ATOM     13 CL   LIG    1       30.228  -1.564  21.668  0.00  0.00    -0.084 Cl
ATOM     14  C   LIG    1       27.696  -0.805  21.143  0.00  0.00    +0.020 A 
ATOM     15  C   LIG    1       26.729   0.121  20.745  0.00  0.00    +0.006 A 
ENDBRANCH   1   9
BRANCH   1  16
ATOM     16  C   LIG    1       25.828   3.735  20.705  0.00  0.00    +0.201 C 
ATOM     17 CL   LIG    1       26.760   5.069  19.899  0.00  0.00    -0.082 Cl
ATOM     18 CL   LIG    1       26.581   3.544  22.346  0.00  0.00    -0.082 Cl
ATOM     19 CL   LIG    1       24.158   4.358  20.966  0.00  0.00    -0.082 Cl
ENDBRANCH   1  16
TORSDOF 3
ENDMDL
MODEL 6
REMARK VINA RESULT:      -5.2      1.055      1.987
REMARK  Name = 
REMARK                            x       y       z     vdW  Elec       q    Type
REMARK                         _______ _______ _______ _____ _____    ______ ____
ROOT
ATOM      1  C   LIG    1       27.659   0.980  19.578  0.00  0.00    +0.100 C 
ENDROOT
BRANCH   1   6
ATOM      2 CL   LIG    1       24.413   6.074  20.453  0.00  0.00    -0.084 Cl
ATOM      3  C   LIG    1       25.352   4.650  20.243  0.00  0.00    +0.041 A 
ATOM      4  C   LIG    1       25.344   3.657  21.214  0.00  0.00    +0.020 A 
ATOM      5  C   LIG    1       26.103   2.488  21.042  0.00  0.00    +0.006 A 
ATOM      6  C   LIG    1       26.870   2.279  19.884  0.00  0.00    -0.036 A 
ATOM      7  C   LIG    1       26.850   3.308  18.917  0.00  0.00    +0.006 A 
ATOM      8  C   LIG    1       26.111   4.484  19.094  0.00  0.00    +0.020 A 
ENDBRANCH   1   6
BRANCH   1   9
ATOM      9  C   LIG    1       28.922   0.835  20.466  0.00  0.00    -0.036 A 
ATOM     10  C   LIG    1       29.995   1.741  20.458  0.00  0.00    +0.006 A 
ATOM     11  C   LIG    1       31.086   1.579  21.324  0.00  0.00    +0.020 A 
ATOM     12  C   LIG    1       31.147   0.486  22.180  0.00  0.00    +0.041 A 
ATOM     13 CL   LIG    1       32.496   0.281  23.225  0.00  0.00    -0.084 Cl
ATOM     14  C   LIG    1       30.112  -0.439  22.195  0.00  0.00    +0.020 A 
ATOM     15  C   LIG    1       29.005  -0.252  21.363  0.00  0.00    +0.006 A 
ENDBRANCH   1   9
BRANCH   1  16
ATOM     16  C   LIG    1       26.849  -0.348  19.281  0.00  0.00    +0.201 C 
ATOM     17 CL   LIG    1       27.979  -1.715  18.889  0.00  0.00    -0.082 Cl
ATOM     18 CL   LIG    1       25.810  -0.144  17.807  0.00  0.00    -0.082 Cl
ATOM     19 CL   LIG    1       25.774  -0.930  20.603  0.00  0.00    -0.082 Cl
ENDBRANCH   1  16
TORSDOF 3
ENDMDL
MODEL 7
REMARK VINA RESULT:      -3.7      2.788      7.083
REMARK  Name = 
REMARK                            x       y       z     vdW  Elec       q    Type
REMARK                         _______ _______ _______ _____ _____    ______ ____
ROOT
ATOM      1  C   LIG    1       26.564   3.319  18.945  0.00  0.00    +0.100 C 
ENDROOT
BRANCH   1   6
ATOM      2 CL   LIG    1       28.985  -2.079  20.447  0.00  0.00    -0.084 Cl
ATOM      3  C   LIG    1       28.312  -0.568  19.981  0.00  0.00    +0.041 A 
ATOM      4  C   LIG    1       27.176  -0.524  19.183  0.00  0.00    +0.020 A 
ATOM      5  C   LIG    1       26.618   0.708  18.807  0.00  0.00    +0.006 A 
ATOM      6  C   LIG    1       27.173   1.923  19.240  0.00  0.00    -0.036 A 
ATOM      7  C   LIG    1       28.324   1.839  20.053  0.00  0.00    +0.006 A 
ATOM      8  C   LIG    1       28.896   0.614  20.413  0.00  0.00    +0.020 A 
ENDBRANCH   1   6
BRANCH   1   9
ATOM      9  C   LIG    1       25.779   3.348  17.610  0.00  0.00    -0.036 A 
ATOM     10  C   LIG    1       24.379   3.424  17.523  0.00  0.00    +0.006 A 
ATOM     11  C   LIG    1       23.733   3.499  16.281  0.00  0.00    +0.020 A 
ATOM     12  C   LIG    1       24.469   3.452  15.103  0.00  0.00    +0.041 A 
ATOM     13 CL   LIG    1       23.671   3.523  13.582  0.00  0.00    -0.084 Cl
ATOM     14  C   LIG    1       25.852   3.355  15.155  0.00  0.00    +0.020 A 
ATOM     15  C   LIG    1       26.498   3.325  16.394  0.00  0.00    +0.006 A 
ENDBRANCH   1   9
BRANCH   1  16
ATOM     16  C   LIG    1       25.948   4.146  20.146  0.00  0.00    +0.201 C 
ATOM     17 CL   LIG    1       27.257   4.745  21.253  0.00  0.00    -0.082 Cl
ATOM     18 CL   LIG    1       24.893   3.087  21.177  0.00  0.00    -0.082 Cl
ATOM     19 CL   LIG    1       24.961   5.582  19.692  0.00  0.00    -0.082 Cl
ENDBRANCH   1  16
TORSDOF 3
ENDMDL
