MODEL 1
REMARK VINA RESULT:      -7.2      0.000      0.000
REMARK  Name = 
REMARK                            x       y       z     vdW  Elec       q    Type
REMARK                         _______ _______ _______ _____ _____    ______ ____
ROOT
ATOM      1  C   LIG    1        4.965  18.367  27.734  0.00  0.00    +0.100 C 
ENDROOT
BRANCH   1   6
ATOM      2 CL   LIG    1        8.564  23.052  26.197  0.00  0.00    -0.084 Cl
ATOM      3  C   LIG    1        7.570  21.731  26.670  0.00  0.00    +0.041 A 
ATOM      4  C   LIG    1        6.674  21.872  27.721  0.00  0.00    +0.020 A 
ATOM      5  C   LIG    1        5.855  20.799  28.106  0.00  0.00    +0.006 A 
ATOM      6  C   LIG    1        5.900  19.567  27.431  0.00  0.00    -0.036 A 
ATOM      7  C   LIG    1        6.819  19.464  26.364  0.00  0.00    +0.006 A 
ATOM      8  C   LIG    1        7.653  20.524  25.992  0.00  0.00    +0.020 A 
ENDBRANCH   1   6
BRANCH   1   9
ATOM      9  C   LIG    1        4.453  18.375  29.197  0.00  0.00    -0.036 A 
ATOM     10  C   LIG    1        3.322  19.087  29.629  0.00  0.00    +0.006 A 
ATOM     11  C   LIG    1        2.882  19.010  30.958  0.00  0.00    +0.020 A 
ATOM     12  C   LIG    1        3.589  18.259  31.890  0.00  0.00    +0.041 A 
ATOM     13 CL   LIG    1        3.058  18.185  33.523  0.00  0.00    -0.084 Cl
ATOM     14  C   LIG    1        4.724  17.562  31.498  0.00  0.00    +0.020 A 
ATOM     15  C   LIG    1        5.135  17.604  30.164  0.00  0.00    +0.006 A 
ENDBRANCH   1   9
BRANCH   1  16
ATOM     16  C   LIG    1        3.931  17.913  26.625  0.00  0.00    +0.201 C 
ATOM     17 CL   LIG    1        3.305  19.347  25.704  0.00  0.00    -0.082 Cl
ATOM     18 CL   LIG    1        2.469  17.155  27.387  0.00  0.00    -0.082 Cl
ATOM     19 CL   LIG    1        4.548  16.744  25.402  0.00  0.00    -0.082 Cl
ENDBRANCH   1  16
TORSDOF 3
ENDMDL
MODEL 2
REMARK VINA RESULT:      -7.1      1.947      5.686
REMARK  Name = 
REMARK                            x       y       z     vdW  Elec       q    Type
REMARK                         _______ _______ _______ _____ _____    ______ ____
ROOT
ATOM      1  C   LIG    1        3.577  18.932  28.888  0.00  0.00    +0.100 C 
ENDROOT
BRANCH   1   6
ATOM      2 CL   LIG    1        1.320  16.343  33.934  0.00  0.00    -0.084 Cl
ATOM      3  C   LIG    1        1.914  17.073  32.495  0.00  0.00    +0.041 A 
ATOM      4  C   LIG    1        1.484  18.339  32.124  0.00  0.00    +0.020 A 
ATOM      5  C   LIG    1        1.972  18.942  30.953  0.00  0.00    +0.006 A 
ATOM      6  C   LIG    1        2.921  18.297  30.142  0.00  0.00    -0.036 A 
ATOM      7  C   LIG    1        3.338  17.013  30.554  0.00  0.00    +0.006 A 
ATOM      8  C   LIG    1        2.837  16.400  31.708  0.00  0.00    +0.020 A 
ENDBRANCH   1   6
BRANCH   1   9
ATOM      9  C   LIG    1        5.041  19.370  29.147  0.00  0.00    -0.036 A 
ATOM     10  C   LIG    1        5.854  19.997  28.190  0.00  0.00    +0.006 A 
ATOM     11  C   LIG    1        7.155  20.414  28.506  0.00  0.00    +0.020 A 
ATOM     12  C   LIG    1        7.683  20.172  29.768  0.00  0.00    +0.041 A 
ATOM     13 CL   LIG    1        9.286  20.666  30.145  0.00  0.00    -0.084 Cl
ATOM     14  C   LIG    1        6.912  19.534  30.730  0.00  0.00    +0.020 A 
ATOM     15  C   LIG    1        5.600  19.158  30.427  0.00  0.00    +0.006 A 
ENDBRANCH   1   9
BRANCH   1  16
ATOM     16  C   LIG    1        3.269  18.301  27.469  0.00  0.00    +0.201 C 
ATOM     17 CL   LIG    1        1.625  17.528  27.453  0.00  0.00    -0.082 Cl
ATOM     18 CL   LIG    1        4.435  16.959  27.100  0.00  0.00    -0.082 Cl
ATOM     19 CL   LIG    1        3.318  19.436  26.072  0.00  0.00    -0.082 Cl
ENDBRANCH   1  16
TORSDOF 3
ENDMDL
MODEL 3
REMARK VINA RESULT:      -7.0      1.918      2.945
REMARK  Name = 
REMARK                            x       y       z     vdW  Elec       q    Type
REMARK                         _______ _______ _______ _____ _____    ______ ____
ROOT
ATOM      1  C   LIG    1        4.074  18.056  28.881  0.00  0.00    +0.100 C 
ENDROOT
BRANCH   1   6
ATOM      2 CL   LIG    1        9.307  20.934  30.145  0.00  0.00    -0.084 Cl
ATOM      3  C   LIG    1        7.815  20.163  29.778  0.00  0.00    +0.041 A 
ATOM      4  C   LIG    1        7.309  20.198  28.486  0.00  0.00    +0.020 A 
ATOM      5  C   LIG    1        6.094  19.563  28.180  0.00  0.00    +0.006 A 
ATOM      6  C   LIG    1        5.372  18.860  29.159  0.00  0.00    -0.036 A 
ATOM      7  C   LIG    1        5.920  18.842  30.460  0.00  0.00    +0.006 A 
ATOM      8  C   LIG    1        7.119  19.492  30.773  0.00  0.00    +0.020 A 
ENDBRANCH   1   6
BRANCH   1   9
ATOM      9  C   LIG    1        3.127  18.027  30.108  0.00  0.00    -0.036 A 
ATOM     10  C   LIG    1        2.995  16.929  30.972  0.00  0.00    +0.006 A 
ATOM     11  C   LIG    1        2.156  16.987  32.095  0.00  0.00    +0.020 A 
ATOM     12  C   LIG    1        1.399  18.124  32.347  0.00  0.00    +0.041 A 
ATOM     13 CL   LIG    1        0.356  18.183  33.712  0.00  0.00    -0.084 Cl
ATOM     14  C   LIG    1        1.489  19.218  31.497  0.00  0.00    +0.020 A 
ATOM     15  C   LIG    1        2.359  19.175  30.405  0.00  0.00    +0.006 A 
ENDBRANCH   1   9
BRANCH   1  16
ATOM     16  C   LIG    1        3.389  18.190  27.461  0.00  0.00    +0.201 C 
ATOM     17 CL   LIG    1        1.676  17.587  27.515  0.00  0.00    -0.082 Cl
ATOM     18 CL   LIG    1        4.231  17.140  26.243  0.00  0.00    -0.082 Cl
ATOM     19 CL   LIG    1        3.329  19.851  26.766  0.00  0.00    -0.082 Cl
ENDBRANCH   1  16
TORSDOF 3
ENDMDL
MODEL 4
REMARK VINA RESULT:      -6.8      2.401      6.349
REMARK  Name = 
REMARK                            x       y       z     vdW  Elec       q    Type
REMARK                         _______ _______ _______ _____ _____    ______ ____
ROOT
ATOM      1  C   LIG    1        5.099  18.774  29.778  0.00  0.00    +0.100 C 
ENDROOT
BRANCH   1   6
ATOM      2 CL   LIG    1        0.189  18.337  33.379  0.00  0.00    -0.084 Cl
ATOM      3  C   LIG    1        1.596  18.473  32.400  0.00  0.00    +0.041 A 
ATOM      4  C   LIG    1        2.696  17.660  32.640  0.00  0.00    +0.020 A 
ATOM      5  C   LIG    1        3.844  17.762  31.838  0.00  0.00    +0.006 A 
ATOM      6  C   LIG    1        3.907  18.666  30.764  0.00  0.00    -0.036 A 
ATOM      7  C   LIG    1        2.768  19.473  30.549  0.00  0.00    +0.006 A 
ATOM      8  C   LIG    1        1.630  19.389  31.359  0.00  0.00    +0.020 A 
ENDBRANCH   1   6
BRANCH   1   9
ATOM      9  C   LIG    1        4.651  18.658  28.299  0.00  0.00    -0.036 A 
ATOM     10  C   LIG    1        4.338  19.757  27.484  0.00  0.00    +0.006 A 
ATOM     11  C   LIG    1        3.989  19.585  26.137  0.00  0.00    +0.020 A 
ATOM     12  C   LIG    1        3.900  18.310  25.592  0.00  0.00    +0.041 A 
ATOM     13 CL   LIG    1        3.450  18.103  23.946  0.00  0.00    -0.084 Cl
ATOM     14  C   LIG    1        4.181  17.201  26.378  0.00  0.00    +0.020 A 
ATOM     15  C   LIG    1        4.573  17.377  27.708  0.00  0.00    +0.006 A 
ENDBRANCH   1   9
BRANCH   1  16
ATOM     16  C   LIG    1        6.248  19.818  30.089  0.00  0.00    +0.201 C 
ATOM     17 CL   LIG    1        7.531  19.761  28.805  0.00  0.00    -0.082 Cl
ATOM     18 CL   LIG    1        7.096  19.392  31.636  0.00  0.00    -0.082 Cl
ATOM     19 CL   LIG    1        5.735  21.538  30.230  0.00  0.00    -0.082 Cl
ENDBRANCH   1  16
TORSDOF 3
ENDMDL
MODEL 5
REMARK VINA RESULT:      -6.7      2.410      4.243
REMARK  Name = 
REMARK                            x       y       z     vdW  Elec       q    Type
REMARK                         _______ _______ _______ _____ _____    ______ ____
ROOT
ATOM      1  C   LIG    1        4.602  19.860  29.333  0.00  0.00    +0.100 C 
ENDROOT
BRANCH   1   6
ATOM      2 CL   LIG    1        3.949  16.165  24.519  0.00  0.00    -0.084 Cl
ATOM      3  C   LIG    1        4.166  17.226  25.853  0.00  0.00    +0.041 A 
ATOM      4  C   LIG    1        3.946  18.589  25.706  0.00  0.00    +0.020 A 
ATOM      5  C   LIG    1        4.114  19.459  26.795  0.00  0.00    +0.006 A 
ATOM      6  C   LIG    1        4.486  18.979  28.062  0.00  0.00    -0.036 A 
ATOM      7  C   LIG    1        4.696  17.587  28.175  0.00  0.00    +0.006 A 
ATOM      8  C   LIG    1        4.550  16.720  27.086  0.00  0.00    +0.020 A 
ENDBRANCH   1   6
BRANCH   1   9
ATOM      9  C   LIG    1        3.517  19.519  30.386  0.00  0.00    -0.036 A 
ATOM     10  C   LIG    1        2.309  20.221  30.524  0.00  0.00    +0.006 A 
ATOM     11  C   LIG    1        1.346  19.828  31.466  0.00  0.00    +0.020 A 
ATOM     12  C   LIG    1        1.592  18.758  32.317  0.00  0.00    +0.041 A 
ATOM     13 CL   LIG    1        0.419  18.294  33.484  0.00  0.00    -0.084 Cl
ATOM     14  C   LIG    1        2.787  18.058  32.221  0.00  0.00    +0.020 A 
ATOM     15  C   LIG    1        3.726  18.423  31.252  0.00  0.00    +0.006 A 
ENDBRANCH   1   9
BRANCH   1  16
ATOM     16  C   LIG    1        6.044  20.202  29.889  0.00  0.00    +0.201 C 
ATOM     17 CL   LIG    1        6.121  21.926  30.457  0.00  0.00    -0.082 Cl
ATOM     18 CL   LIG    1        7.284  20.074  28.570  0.00  0.00    -0.082 Cl
ATOM     19 CL   LIG    1        6.627  19.183  31.255  0.00  0.00    -0.082 Cl
ENDBRANCH   1  16
TORSDOF 3
ENDMDL
MODEL 6
REMARK VINA RESULT:      -6.2      2.703      4.186
REMARK  Name = 
REMARK                            x       y       z     vdW  Elec       q    Type
REMARK                         _______ _______ _______ _____ _____    ______ ____
ROOT
ATOM      1  C   LIG    1        4.445  19.222  29.778  0.00  0.00    +0.100 C 
ENDROOT
BRANCH   1   6
ATOM      2 CL   LIG    1        3.461  17.937  23.892  0.00  0.00    -0.084 Cl
ATOM      3  C   LIG    1        3.707  18.269  25.561  0.00  0.00    +0.041 A 
ATOM      4  C   LIG    1        4.187  17.278  26.408  0.00  0.00    +0.020 A 
ATOM      5  C   LIG    1        4.397  17.547  27.770  0.00  0.00    +0.006 A 
ATOM      6  C   LIG    1        4.151  18.821  28.309  0.00  0.00    -0.036 A 
ATOM      7  C   LIG    1        3.668  19.803  27.417  0.00  0.00    +0.006 A 
ATOM      8  C   LIG    1        3.437  19.533  26.063  0.00  0.00    +0.020 A 
ENDBRANCH   1   6
BRANCH   1   9
ATOM      9  C   LIG    1        3.639  18.371  30.793  0.00  0.00    -0.036 A 
ATOM     10  C   LIG    1        2.760  18.910  31.745  0.00  0.00    +0.006 A 
ATOM     11  C   LIG    1        2.022  18.079  32.601  0.00  0.00    +0.020 A 
ATOM     12  C   LIG    1        2.184  16.700  32.554  0.00  0.00    +0.041 A 
ATOM     13 CL   LIG    1        1.293  15.687  33.619  0.00  0.00    -0.084 Cl
ATOM     14  C   LIG    1        3.063  16.138  31.638  0.00  0.00    +0.020 A 
ATOM     15  C   LIG    1        3.764  16.964  30.755  0.00  0.00    +0.006 A 
ENDBRANCH   1   9
BRANCH   1  16
ATOM     16  C   LIG    1        5.932  19.584  30.182  0.00  0.00    +0.201 C 
ATOM     17 CL   LIG    1        6.412  18.719  31.705  0.00  0.00    -0.082 Cl
ATOM     18 CL   LIG    1        6.077  21.352  30.566  0.00  0.00    -0.082 Cl
ATOM     19 CL   LIG    1        7.197  19.209  28.957  0.00  0.00    -0.082 Cl
ENDBRANCH   1  16
TORSDOF 3
ENDMDL
MODEL 7
REMARK VINA RESULT:      -6.1      2.260      6.158
REMARK  Name = 
REMARK                            x       y       z     vdW  Elec       q    Type
REMARK                         _______ _______ _______ _____ _____    ______ ____
ROOT
ATOM      1  C   LIG    1        3.363  18.945  29.671  0.00  0.00    +0.100 C 
ENDROOT
BRANCH   1   6
ATOM      2 CL   LIG    1        1.042  16.004  34.490  0.00  0.00    -0.084 Cl
ATOM      3  C   LIG    1        1.735  16.814  33.142  0.00  0.00    +0.041 A 
ATOM      4  C   LIG    1        2.269  16.087  32.086  0.00  0.00    +0.020 A 
ATOM      5  C   LIG    1        2.829  16.744  30.980  0.00  0.00    +0.006 A 
ATOM      6  C   LIG    1        2.848  18.146  30.897  0.00  0.00    -0.036 A 
ATOM      7  C   LIG    1        2.292  18.853  31.986  0.00  0.00    +0.006 A 
ATOM      8  C   LIG    1        1.752  18.201  33.100  0.00  0.00    +0.020 A 
ENDBRANCH   1   6
BRANCH   1   9
ATOM      9  C   LIG    1        4.830  19.413  29.847  0.00  0.00    -0.036 A 
ATOM     10  C   LIG    1        5.770  18.760  30.659  0.00  0.00    +0.006 A 
ATOM     11  C   LIG    1        7.097  19.208  30.735  0.00  0.00    +0.020 A 
ATOM     12  C   LIG    1        7.496  20.342  30.039  0.00  0.00    +0.041 A 
ATOM     13 CL   LIG    1        9.118  20.899  30.152  0.00  0.00    -0.084 Cl
ATOM     14  C   LIG    1        6.584  21.023  29.246  0.00  0.00    +0.020 A 
ATOM     15  C   LIG    1        5.274  20.550  29.136  0.00  0.00    +0.006 A 
ENDBRANCH   1   9
BRANCH   1  16
ATOM     16  C   LIG    1        2.944  18.463  28.222  0.00  0.00    +0.201 C 
ATOM     17 CL   LIG    1        1.190  17.997  28.182  0.00  0.00    -0.082 Cl
ATOM     18 CL   LIG    1        3.853  16.961  27.761  0.00  0.00    -0.082 Cl
ATOM     19 CL   LIG    1        3.192  19.652  26.892  0.00  0.00    -0.082 Cl
ENDBRANCH   1  16
TORSDOF 3
ENDMDL
