MODEL 1
REMARK VINA RESULT:      -9.4      0.000      0.000
REMARK  Name = 
REMARK                            x       y       z     vdW  Elec       q    Type
REMARK                         _______ _______ _______ _____ _____    ______ ____
ROOT
ATOM      1  C   LIG    1       23.804 -15.869  17.500  0.00  0.00    +0.100 C 
ENDROOT
BRANCH   1   6
ATOM      2 CL   LIG    1       17.870 -14.785  18.431  0.00  0.00    -0.084 Cl
ATOM      3  C   LIG    1       19.551 -15.066  18.205  0.00  0.00    +0.041 A 
ATOM      4  C   LIG    1       20.277 -15.769  19.158  0.00  0.00    +0.020 A 
ATOM      5  C   LIG    1       21.648 -16.007  18.974  0.00  0.00    +0.006 A 
ATOM      6  C   LIG    1       22.317 -15.566  17.820  0.00  0.00    -0.036 A 
ATOM      7  C   LIG    1       21.545 -14.860  16.872  0.00  0.00    +0.006 A 
ATOM      8  C   LIG    1       20.183 -14.602  17.061  0.00  0.00    +0.020 A 
ENDBRANCH   1   6
BRANCH   1   9
ATOM      9  C   LIG    1       24.774 -15.152  18.473  0.00  0.00    -0.036 A 
ATOM     10  C   LIG    1       25.530 -15.811  19.456  0.00  0.00    +0.006 A 
ATOM     11  C   LIG    1       26.429 -15.108  20.271  0.00  0.00    +0.020 A 
ATOM     12  C   LIG    1       26.553 -13.729  20.152  0.00  0.00    +0.041 A 
ATOM     13 CL   LIG    1       27.640 -12.868  21.168  0.00  0.00    -0.084 Cl
ATOM     14  C   LIG    1       25.803 -13.046  19.206  0.00  0.00    +0.020 A 
ATOM     15  C   LIG    1       24.941 -13.754  18.364  0.00  0.00    +0.006 A 
ENDBRANCH   1   9
BRANCH   1  16
ATOM     16  C   LIG    1       24.201 -17.337  17.060  0.00  0.00    +0.201 C 
ATOM     17 CL   LIG    1       25.867 -17.363  16.337  0.00  0.00    -0.082 Cl
ATOM     18 CL   LIG    1       23.097 -17.933  15.749  0.00  0.00    -0.082 Cl
ATOM     19 CL   LIG    1       24.186 -18.583  18.362  0.00  0.00    -0.082 Cl
ENDBRANCH   1  16
TORSDOF 3
ENDMDL
MODEL 2
REMARK VINA RESULT:      -9.3      0.763      5.729
REMARK  Name = 
REMARK                            x       y       z     vdW  Elec       q    Type
REMARK                         _______ _______ _______ _____ _____    ______ ____
ROOT
ATOM      1  C   LIG    1       24.096 -16.684  18.229  0.00  0.00    +0.100 C 
ENDROOT
BRANCH   1   6
ATOM      2 CL   LIG    1       28.387 -12.788  20.145  0.00  0.00    -0.084 Cl
ATOM      3  C   LIG    1       27.148 -13.860  19.626  0.00  0.00    +0.041 A 
ATOM      4  C   LIG    1       26.153 -13.415  18.765  0.00  0.00    +0.020 A 
ATOM      5  C   LIG    1       25.144 -14.289  18.332  0.00  0.00    +0.006 A 
ATOM      6  C   LIG    1       25.121 -15.635  18.735  0.00  0.00    -0.036 A 
ATOM      7  C   LIG    1       26.150 -16.052  19.607  0.00  0.00    +0.006 A 
ATOM      8  C   LIG    1       27.146 -15.178  20.057  0.00  0.00    +0.020 A 
ENDBRANCH   1   6
BRANCH   1   9
ATOM      9  C   LIG    1       22.672 -16.091  18.080  0.00  0.00    -0.036 A 
ATOM     10  C   LIG    1       22.292 -15.208  17.057  0.00  0.00    +0.006 A 
ATOM     11  C   LIG    1       20.972 -14.748  16.949  0.00  0.00    +0.020 A 
ATOM     12  C   LIG    1       20.019 -15.124  17.888  0.00  0.00    +0.041 A 
ATOM     13 CL   LIG    1       18.407 -14.541  17.764  0.00  0.00    -0.084 Cl
ATOM     14  C   LIG    1       20.369 -15.978  18.924  0.00  0.00    +0.020 A 
ATOM     15  C   LIG    1       21.674 -16.471  19.004  0.00  0.00    +0.006 A 
ENDBRANCH   1   9
BRANCH   1  16
ATOM     16  C   LIG    1       24.553 -17.715  17.119  0.00  0.00    +0.201 C 
ATOM     17 CL   LIG    1       25.221 -19.224  17.879  0.00  0.00    -0.082 Cl
ATOM     18 CL   LIG    1       25.913 -17.031  16.131  0.00  0.00    -0.082 Cl
ATOM     19 CL   LIG    1       23.279 -18.243  15.960  0.00  0.00    -0.082 Cl
ENDBRANCH   1  16
TORSDOF 3
ENDMDL
MODEL 3
REMARK VINA RESULT:      -9.0      1.079      5.609
REMARK  Name = 
REMARK                            x       y       z     vdW  Elec       q    Type
REMARK                         _______ _______ _______ _____ _____    ______ ____
ROOT
ATOM      1  C   LIG    1       23.588 -17.109  18.412  0.00  0.00    +0.100 C 
ENDROOT
BRANCH   1   6
ATOM      2 CL   LIG    1       27.878 -12.927  19.582  0.00  0.00    -0.084 Cl
ATOM      3  C   LIG    1       26.645 -14.073  19.232  0.00  0.00    +0.041 A 
ATOM      4  C   LIG    1       26.333 -14.385  17.916  0.00  0.00    +0.020 A 
ATOM      5  C   LIG    1       25.333 -15.326  17.625  0.00  0.00    +0.006 A 
ATOM      6  C   LIG    1       24.638 -15.992  18.649  0.00  0.00    -0.036 A 
ATOM      7  C   LIG    1       24.986 -15.653  19.975  0.00  0.00    +0.006 A 
ATOM      8  C   LIG    1       25.968 -14.699  20.268  0.00  0.00    +0.020 A 
ENDBRANCH   1   6
BRANCH   1   9
ATOM      9  C   LIG    1       22.150 -16.547  18.281  0.00  0.00    -0.036 A 
ATOM     10  C   LIG    1       21.009 -17.179  18.800  0.00  0.00    +0.006 A 
ATOM     11  C   LIG    1       19.741 -16.590  18.690  0.00  0.00    +0.020 A 
ATOM     12  C   LIG    1       19.583 -15.383  18.020  0.00  0.00    +0.041 A 
ATOM     13 CL   LIG    1       18.024 -14.675  17.869  0.00  0.00    -0.084 Cl
ATOM     14  C   LIG    1       20.689 -14.745  17.475  0.00  0.00    +0.020 A 
ATOM     15  C   LIG    1       21.958 -15.311  17.624  0.00  0.00    +0.006 A 
ENDBRANCH   1   9
BRANCH   1  16
ATOM     16  C   LIG    1       23.966 -18.315  17.459  0.00  0.00    +0.201 C 
ATOM     17 CL   LIG    1       23.174 -18.123  15.836  0.00  0.00    -0.082 Cl
ATOM     18 CL   LIG    1       23.328 -19.879  18.124  0.00  0.00    -0.082 Cl
ATOM     19 CL   LIG    1       25.723 -18.557  17.149  0.00  0.00    -0.082 Cl
ENDBRANCH   1  16
TORSDOF 3
ENDMDL
MODEL 4
REMARK VINA RESULT:      -7.8      3.535      8.112
REMARK  Name = 
REMARK                            x       y       z     vdW  Elec       q    Type
REMARK                         _______ _______ _______ _____ _____    ______ ____
ROOT
ATOM      1  C   LIG    1       17.624 -16.245  19.301  0.00  0.00    +0.100 C 
ENDROOT
BRANCH   1   6
ATOM      2 CL   LIG    1       23.235 -14.594  17.553  0.00  0.00    -0.084 Cl
ATOM      3  C   LIG    1       21.643 -15.016  18.047  0.00  0.00    +0.041 A 
ATOM      4  C   LIG    1       20.555 -14.705  17.243  0.00  0.00    +0.020 A 
ATOM      5  C   LIG    1       19.255 -15.054  17.638  0.00  0.00    +0.006 A 
ATOM      6  C   LIG    1       19.017 -15.743  18.839  0.00  0.00    -0.036 A 
ATOM      7  C   LIG    1       20.148 -16.047  19.629  0.00  0.00    +0.006 A 
ATOM      8  C   LIG    1       21.444 -15.681  19.248  0.00  0.00    +0.020 A 
ENDBRANCH   1   6
BRANCH   1   9
ATOM      9  C   LIG    1       16.506 -15.207  19.034  0.00  0.00    -0.036 A 
ATOM     10  C   LIG    1       15.806 -15.101  17.821  0.00  0.00    +0.006 A 
ATOM     11  C   LIG    1       14.768 -14.171  17.662  0.00  0.00    +0.020 A 
ATOM     12  C   LIG    1       14.443 -13.299  18.694  0.00  0.00    +0.041 A 
ATOM     13 CL   LIG    1       13.185 -12.146  18.487  0.00  0.00    -0.084 Cl
ATOM     14  C   LIG    1       15.132 -13.363  19.897  0.00  0.00    +0.020 A 
ATOM     15  C   LIG    1       16.135 -14.320  20.069  0.00  0.00    +0.006 A 
ENDBRANCH   1   9
BRANCH   1  16
ATOM     16  C   LIG    1       17.249 -17.765  19.064  0.00  0.00    +0.201 C 
ATOM     17 CL   LIG    1       15.615 -18.139  19.762  0.00  0.00    -0.082 Cl
ATOM     18 CL   LIG    1       18.408 -18.853  19.940  0.00  0.00    -0.082 Cl
ATOM     19 CL   LIG    1       17.215 -18.312  17.348  0.00  0.00    -0.082 Cl
ENDBRANCH   1  16
TORSDOF 3
ENDMDL
MODEL 5
REMARK VINA RESULT:      -7.7      1.619      5.667
REMARK  Name = 
REMARK                            x       y       z     vdW  Elec       q    Type
REMARK                         _______ _______ _______ _____ _____    ______ ____
ROOT
ATOM      1  C   LIG    1       24.088 -17.594  18.692  0.00  0.00    +0.100 C 
ENDROOT
BRANCH   1   6
ATOM      2 CL   LIG    1       28.767 -13.726  19.330  0.00  0.00    -0.084 Cl
ATOM      3  C   LIG    1       27.473 -14.846  19.172  0.00  0.00    +0.041 A 
ATOM      4  C   LIG    1       26.819 -15.323  20.301  0.00  0.00    +0.020 A 
ATOM      5  C   LIG    1       25.756 -16.232  20.177  0.00  0.00    +0.006 A 
ATOM      6  C   LIG    1       25.311 -16.667  18.917  0.00  0.00    -0.036 A 
ATOM      7  C   LIG    1       25.997 -16.157  17.793  0.00  0.00    +0.006 A 
ATOM      8  C   LIG    1       27.070 -15.267  17.914  0.00  0.00    +0.020 A 
ENDBRANCH   1   6
BRANCH   1   9
ATOM      9  C   LIG    1       22.769 -16.799  18.524  0.00  0.00    -0.036 A 
ATOM     10  C   LIG    1       22.679 -15.400  18.607  0.00  0.00    +0.006 A 
ATOM     11  C   LIG    1       21.461 -14.738  18.395  0.00  0.00    +0.020 A 
ATOM     12  C   LIG    1       20.303 -15.463  18.142  0.00  0.00    +0.041 A 
ATOM     13 CL   LIG    1       18.808 -14.649  17.904  0.00  0.00    -0.084 Cl
ATOM     14  C   LIG    1       20.354 -16.849  18.077  0.00  0.00    +0.020 A 
ATOM     15  C   LIG    1       21.577 -17.504  18.244  0.00  0.00    +0.006 A 
ENDBRANCH   1   9
BRANCH   1  16
ATOM     16  C   LIG    1       24.265 -18.872  17.775  0.00  0.00    +0.201 C 
ATOM     17 CL   LIG    1       23.917 -18.469  16.038  0.00  0.00    -0.082 Cl
ATOM     18 CL   LIG    1       23.059 -20.153  18.223  0.00  0.00    -0.082 Cl
ATOM     19 CL   LIG    1       25.889 -19.650  17.807  0.00  0.00    -0.082 Cl
ENDBRANCH   1  16
TORSDOF 3
ENDMDL
MODEL 6
REMARK VINA RESULT:      -7.6      3.459      5.953
REMARK  Name = 
REMARK                            x       y       z     vdW  Elec       q    Type
REMARK                         _______ _______ _______ _____ _____    ______ ____
ROOT
ATOM      1  C   LIG    1       17.759 -16.149  18.175  0.00  0.00    +0.100 C 
ENDROOT
BRANCH   1   6
ATOM      2 CL   LIG    1       13.436 -11.960  19.185  0.00  0.00    -0.084 Cl
ATOM      3  C   LIG    1       14.683 -13.107  18.895  0.00  0.00    +0.041 A 
ATOM      4  C   LIG    1       15.770 -13.191  19.755  0.00  0.00    +0.020 A 
ATOM      5  C   LIG    1       16.787 -14.131  19.526  0.00  0.00    +0.006 A 
ATOM      6  C   LIG    1       16.726 -15.023  18.443  0.00  0.00    -0.036 A 
ATOM      7  C   LIG    1       15.604 -14.911  17.593  0.00  0.00    +0.006 A 
ATOM      8  C   LIG    1       14.599 -13.961  17.805  0.00  0.00    +0.020 A 
ENDBRANCH   1   6
BRANCH   1   9
ATOM      9  C   LIG    1       19.221 -15.647  18.291  0.00  0.00    -0.036 A 
ATOM     10  C   LIG    1       20.067 -15.935  19.373  0.00  0.00    +0.006 A 
ATOM     11  C   LIG    1       21.397 -15.491  19.391  0.00  0.00    +0.020 A 
ATOM     12  C   LIG    1       21.892 -14.712  18.352  0.00  0.00    +0.041 A 
ATOM     13 CL   LIG    1       23.516 -14.152  18.389  0.00  0.00    -0.084 Cl
ATOM     14  C   LIG    1       21.073 -14.391  17.279  0.00  0.00    +0.020 A 
ATOM     15  C   LIG    1       19.761 -14.872  17.241  0.00  0.00    +0.006 A 
ENDBRANCH   1   9
BRANCH   1  16
ATOM     16  C   LIG    1       17.463 -17.599  18.739  0.00  0.00    +0.201 C 
ATOM     17 CL   LIG    1       16.869 -18.692  17.416  0.00  0.00    -0.082 Cl
ATOM     18 CL   LIG    1       16.123 -17.548  19.961  0.00  0.00    -0.082 Cl
ATOM     19 CL   LIG    1       18.851 -18.441  19.519  0.00  0.00    -0.082 Cl
ENDBRANCH   1  16
TORSDOF 3
ENDMDL
MODEL 7
REMARK VINA RESULT:      -6.9      2.122      4.516
REMARK  Name = 
REMARK                            x       y       z     vdW  Elec       q    Type
REMARK                         _______ _______ _______ _____ _____    ______ ____
ROOT
ATOM      1  C   LIG    1       23.142 -16.320  18.735  0.00  0.00    +0.100 C 
ENDROOT
BRANCH   1   6
ATOM      2 CL   LIG    1       17.395 -14.420  17.947  0.00  0.00    -0.084 Cl
ATOM      3  C   LIG    1       19.017 -14.928  18.204  0.00  0.00    +0.041 A 
ATOM      4  C   LIG    1       19.363 -15.599  19.369  0.00  0.00    +0.020 A 
ATOM      5  C   LIG    1       20.685 -16.023  19.581  0.00  0.00    +0.006 A 
ATOM      6  C   LIG    1       21.684 -15.803  18.618  0.00  0.00    -0.036 A 
ATOM      7  C   LIG    1       21.294 -15.122  17.445  0.00  0.00    +0.006 A 
ATOM      8  C   LIG    1       19.982 -14.679  17.240  0.00  0.00    +0.020 A 
ENDBRANCH   1   6
BRANCH   1   9
ATOM      9  C   LIG    1       23.356 -17.654  17.977  0.00  0.00    -0.036 A 
ATOM     10  C   LIG    1       23.627 -18.880  18.606  0.00  0.00    +0.006 A 
ATOM     11  C   LIG    1       23.760 -20.062  17.863  0.00  0.00    +0.020 A 
ATOM     12  C   LIG    1       23.671 -20.034  16.476  0.00  0.00    +0.041 A 
ATOM     13 CL   LIG    1       23.855 -21.481  15.568  0.00  0.00    -0.084 Cl
ATOM     14  C   LIG    1       23.426 -18.833  15.823  0.00  0.00    +0.020 A 
ATOM     15  C   LIG    1       23.250 -17.664  16.568  0.00  0.00    +0.006 A 
ENDBRANCH   1   9
BRANCH   1  16
ATOM     16  C   LIG    1       24.326 -15.271  18.668  0.00  0.00    +0.201 C 
ATOM     17 CL   LIG    1       25.431 -15.639  17.275  0.00  0.00    -0.082 Cl
ATOM     18 CL   LIG    1       25.366 -15.385  20.151  0.00  0.00    -0.082 Cl
ATOM     19 CL   LIG    1       23.843 -13.544  18.500  0.00  0.00    -0.082 Cl
ENDBRANCH   1  16
TORSDOF 3
ENDMDL
MODEL 8
REMARK VINA RESULT:      -6.4      3.253      4.846
REMARK  Name = 
REMARK                            x       y       z     vdW  Elec       q    Type
REMARK                         _______ _______ _______ _____ _____    ______ ____
ROOT
ATOM      1  C   LIG    1       25.783 -15.097  19.384  0.00  0.00    +0.100 C 
ENDROOT
BRANCH   1   6
ATOM      2 CL   LIG    1       23.992 -19.919  16.097  0.00  0.00    -0.084 Cl
ATOM      3  C   LIG    1       24.538 -18.567  17.008  0.00  0.00    +0.041 A 
ATOM      4  C   LIG    1       25.081 -17.463  16.365  0.00  0.00    +0.020 A 
ATOM      5  C   LIG    1       25.522 -16.354  17.105  0.00  0.00    +0.006 A 
ATOM      6  C   LIG    1       25.407 -16.318  18.505  0.00  0.00    -0.036 A 
ATOM      7  C   LIG    1       24.846 -17.457  19.123  0.00  0.00    +0.006 A 
ATOM      8  C   LIG    1       24.425 -18.573  18.391  0.00  0.00    +0.020 A 
ENDBRANCH   1   6
BRANCH   1   9
ATOM      9  C   LIG    1       27.294 -15.062  19.728  0.00  0.00    -0.036 A 
ATOM     10  C   LIG    1       28.249 -15.918  19.157  0.00  0.00    +0.006 A 
ATOM     11  C   LIG    1       29.610 -15.800  19.475  0.00  0.00    +0.020 A 
ATOM     12  C   LIG    1       30.035 -14.857  20.403  0.00  0.00    +0.041 A 
ATOM     13 CL   LIG    1       31.701 -14.730  20.805  0.00  0.00    -0.084 Cl
ATOM     14  C   LIG    1       29.112 -14.011  21.002  0.00  0.00    +0.020 A 
ATOM     15  C   LIG    1       27.762 -14.100  20.651  0.00  0.00    +0.006 A 
ENDBRANCH   1   9
BRANCH   1  16
ATOM     16  C   LIG    1       25.095 -13.704  19.080  0.00  0.00    +0.201 C 
ATOM     17 CL   LIG    1       24.763 -12.802  20.621  0.00  0.00    -0.082 Cl
ATOM     18 CL   LIG    1       23.472 -13.948  18.306  0.00  0.00    -0.082 Cl
ATOM     19 CL   LIG    1       26.019 -12.582  18.016  0.00  0.00    -0.082 Cl
ENDBRANCH   1  16
TORSDOF 3
ENDMDL
