MODEL 1
REMARK VINA RESULT:      -7.6      0.000      0.000
REMARK  Name = 
REMARK                            x       y       z     vdW  Elec       q    Type
REMARK                         _______ _______ _______ _____ _____    ______ ____
ROOT
ATOM      1  C   LIG    1        4.179   8.349  -3.070  0.00  0.00    +0.100 C 
ENDROOT
BRANCH   1   6
ATOM      2 CL   LIG    1        5.214  13.898  -0.748  0.00  0.00    -0.084 Cl
ATOM      3  C   LIG    1        4.880  12.338  -1.389  0.00  0.00    +0.041 A 
ATOM      4  C   LIG    1        3.966  12.188  -2.423  0.00  0.00    +0.020 A 
ATOM      5  C   LIG    1        3.695  10.917  -2.954  0.00  0.00    +0.006 A 
ATOM      6  C   LIG    1        4.352   9.771  -2.476  0.00  0.00    -0.036 A 
ATOM      7  C   LIG    1        5.278   9.963  -1.427  0.00  0.00    +0.006 A 
ATOM      8  C   LIG    1        5.534  11.226  -0.880  0.00  0.00    +0.020 A 
ENDBRANCH   1   6
BRANCH   1   9
ATOM      9  C   LIG    1        3.045   7.553  -2.373  0.00  0.00    -0.036 A 
ATOM     10  C   LIG    1        2.412   6.434  -2.934  0.00  0.00    +0.006 A 
ATOM     11  C   LIG    1        1.427   5.728  -2.227  0.00  0.00    +0.020 A 
ATOM     12  C   LIG    1        1.025   6.155  -0.968  0.00  0.00    +0.041 A 
ATOM     13 CL   LIG    1       -0.197   5.300  -0.114  0.00  0.00    -0.084 Cl
ATOM     14  C   LIG    1        1.616   7.273  -0.395  0.00  0.00    +0.020 A 
ATOM     15  C   LIG    1        2.628   7.948  -1.082  0.00  0.00    +0.006 A 
ENDBRANCH   1   9
BRANCH   1  16
ATOM     16  C   LIG    1        4.315   8.159  -4.636  0.00  0.00    +0.201 C 
ATOM     17 CL   LIG    1        5.488   9.361  -5.328  0.00  0.00    -0.082 Cl
ATOM     18 CL   LIG    1        2.734   8.499  -5.460  0.00  0.00    -0.082 Cl
ATOM     19 CL   LIG    1        4.855   6.533  -5.191  0.00  0.00    -0.082 Cl
ENDBRANCH   1  16
TORSDOF 3
ENDMDL
MODEL 2
REMARK VINA RESULT:      -7.5      1.649      5.433
REMARK  Name = 
REMARK                            x       y       z     vdW  Elec       q    Type
REMARK                         _______ _______ _______ _____ _____    ______ ____
ROOT
ATOM      1  C   LIG    1        3.477   8.920  -3.421  0.00  0.00    +0.100 C 
ENDROOT
BRANCH   1   6
ATOM      2 CL   LIG    1        4.377   4.146   0.274  0.00  0.00    -0.084 Cl
ATOM      3  C   LIG    1        4.090   5.469  -0.786  0.00  0.00    +0.041 A 
ATOM      4  C   LIG    1        2.888   6.163  -0.728  0.00  0.00    +0.020 A 
ATOM      5  C   LIG    1        2.652   7.248  -1.587  0.00  0.00    +0.006 A 
ATOM      6  C   LIG    1        3.624   7.676  -2.506  0.00  0.00    -0.036 A 
ATOM      7  C   LIG    1        4.834   6.950  -2.532  0.00  0.00    +0.006 A 
ATOM      8  C   LIG    1        5.065   5.854  -1.693  0.00  0.00    +0.020 A 
ENDBRANCH   1   6
BRANCH   1   9
ATOM      9  C   LIG    1        3.993  10.215  -2.743  0.00  0.00    -0.036 A 
ATOM     10  C   LIG    1        3.703  11.510  -3.200  0.00  0.00    +0.006 A 
ATOM     11  C   LIG    1        4.160  12.641  -2.509  0.00  0.00    +0.020 A 
ATOM     12  C   LIG    1        4.954  12.500  -1.377  0.00  0.00    +0.041 A 
ATOM     13 CL   LIG    1        5.530  13.890  -0.546  0.00  0.00    -0.084 Cl
ATOM     14  C   LIG    1        5.277  11.232  -0.913  0.00  0.00    +0.020 A 
ATOM     15  C   LIG    1        4.783  10.106  -1.577  0.00  0.00    +0.006 A 
ENDBRANCH   1   9
BRANCH   1  16
ATOM     16  C   LIG    1        3.778   8.764  -4.967  0.00  0.00    +0.201 C 
ATOM     17 CL   LIG    1        2.589   9.718  -5.953  0.00  0.00    -0.082 Cl
ATOM     18 CL   LIG    1        3.562   7.039  -5.489  0.00  0.00    -0.082 Cl
ATOM     19 CL   LIG    1        5.420   9.272  -5.507  0.00  0.00    -0.082 Cl
ENDBRANCH   1  16
TORSDOF 3
ENDMDL
MODEL 3
REMARK VINA RESULT:      -6.9      1.934      4.352
REMARK  Name = 
REMARK                            x       y       z     vdW  Elec       q    Type
REMARK                         _______ _______ _______ _____ _____    ______ ____
ROOT
ATOM      1  C   LIG    1        3.405   8.419  -2.902  0.00  0.00    +0.100 C 
ENDROOT
BRANCH   1   6
ATOM      2 CL   LIG    1        5.494  13.691  -0.645  0.00  0.00    -0.084 Cl
ATOM      3  C   LIG    1        4.866  12.214  -1.261  0.00  0.00    +0.041 A 
ATOM      4  C   LIG    1        3.805  12.225  -2.157  0.00  0.00    +0.020 A 
ATOM      5  C   LIG    1        3.294  11.021  -2.669  0.00  0.00    +0.006 A 
ATOM      6  C   LIG    1        3.850   9.782  -2.311  0.00  0.00    -0.036 A 
ATOM      7  C   LIG    1        4.931   9.811  -1.403  0.00  0.00    +0.006 A 
ATOM      8  C   LIG    1        5.429  11.007  -0.874  0.00  0.00    +0.020 A 
ENDBRANCH   1   6
BRANCH   1   9
ATOM      9  C   LIG    1        4.272   7.991  -4.114  0.00  0.00    -0.036 A 
ATOM     10  C   LIG    1        4.824   8.889  -5.040  0.00  0.00    +0.006 A 
ATOM     11  C   LIG    1        5.644   8.439  -6.086  0.00  0.00    +0.020 A 
ATOM     12  C   LIG    1        5.887   7.081  -6.253  0.00  0.00    +0.041 A 
ATOM     13 CL   LIG    1        6.874   6.533  -7.548  0.00  0.00    -0.084 Cl
ATOM     14  C   LIG    1        5.337   6.166  -5.366  0.00  0.00    +0.020 A 
ATOM     15  C   LIG    1        4.558   6.620  -4.299  0.00  0.00    +0.006 A 
ENDBRANCH   1   9
BRANCH   1  16
ATOM     16  C   LIG    1        2.963   7.269  -1.908  0.00  0.00    +0.201 C 
ATOM     17 CL   LIG    1        1.822   6.116  -2.725  0.00  0.00    -0.082 Cl
ATOM     18 CL   LIG    1        2.034   7.957  -0.508  0.00  0.00    -0.082 Cl
ATOM     19 CL   LIG    1        4.293   6.272  -1.213  0.00  0.00    -0.082 Cl
ENDBRANCH   1  16
TORSDOF 3
ENDMDL
MODEL 4
REMARK VINA RESULT:      -6.8     11.899     13.948
REMARK  Name = 
REMARK                            x       y       z     vdW  Elec       q    Type
REMARK                         _______ _______ _______ _____ _____    ______ ____
ROOT
ATOM      1  C   LIG    1       14.535   1.390  -3.472  0.00  0.00    +0.100 C 
ENDROOT
BRANCH   1   6
ATOM      2 CL   LIG    1        8.674   3.065  -3.789  0.00  0.00    -0.084 Cl
ATOM      3  C   LIG    1       10.314   2.565  -3.667  0.00  0.00    +0.041 A 
ATOM      4  C   LIG    1       10.668   1.252  -3.951  0.00  0.00    +0.020 A 
ATOM      5  C   LIG    1       12.008   0.841  -3.860  0.00  0.00    +0.006 A 
ATOM      6  C   LIG    1       13.025   1.742  -3.504  0.00  0.00    -0.036 A 
ATOM      7  C   LIG    1       12.628   3.069  -3.227  0.00  0.00    +0.006 A 
ATOM      8  C   LIG    1       11.291   3.477  -3.295  0.00  0.00    +0.020 A 
ENDBRANCH   1   6
BRANCH   1   9
ATOM      9  C   LIG    1       15.072   0.972  -4.864  0.00  0.00    -0.036 A 
ATOM     10  C   LIG    1       14.576   1.471  -6.079  0.00  0.00    +0.006 A 
ATOM     11  C   LIG    1       15.142   1.089  -7.304  0.00  0.00    +0.020 A 
ATOM     12  C   LIG    1       16.181   0.167  -7.341  0.00  0.00    +0.041 A 
ATOM     13 CL   LIG    1       16.858  -0.314  -8.846  0.00  0.00    -0.084 Cl
ATOM     14  C   LIG    1       16.679  -0.361  -6.157  0.00  0.00    +0.020 A 
ATOM     15  C   LIG    1       16.144   0.054  -4.935  0.00  0.00    +0.006 A 
ENDBRANCH   1   9
BRANCH   1  16
ATOM     16  C   LIG    1       15.500   2.271  -2.577  0.00  0.00    +0.201 C 
ATOM     17 CL   LIG    1       14.647   2.836  -1.077  0.00  0.00    -0.082 Cl
ATOM     18 CL   LIG    1       15.981   3.785  -3.456  0.00  0.00    -0.082 Cl
ATOM     19 CL   LIG    1       17.022   1.475  -2.036  0.00  0.00    -0.082 Cl
ENDBRANCH   1  16
TORSDOF 3
ENDMDL
MODEL 5
REMARK VINA RESULT:      -6.3     12.329     14.197
REMARK  Name = 
REMARK                            x       y       z     vdW  Elec       q    Type
REMARK                         _______ _______ _______ _____ _____    ______ ____
ROOT
ATOM      1  C   LIG    1       13.483   1.662  -4.649  0.00  0.00    +0.100 C 
ENDROOT
BRANCH   1   6
ATOM      2 CL   LIG    1       17.490   3.232  -0.320  0.00  0.00    -0.084 Cl
ATOM      3  C   LIG    1       16.395   2.790  -1.570  0.00  0.00    +0.041 A 
ATOM      4  C   LIG    1       16.549   1.585  -2.242  0.00  0.00    +0.020 A 
ATOM      5  C   LIG    1       15.652   1.217  -3.257  0.00  0.00    +0.006 A 
ATOM      6  C   LIG    1       14.568   2.039  -3.606  0.00  0.00    -0.036 A 
ATOM      7  C   LIG    1       14.440   3.254  -2.898  0.00  0.00    +0.006 A 
ATOM      8  C   LIG    1       15.345   3.634  -1.900  0.00  0.00    +0.020 A 
ENDBRANCH   1   6
BRANCH   1   9
ATOM      9  C   LIG    1       14.093   1.081  -5.950  0.00  0.00    -0.036 A 
ATOM     10  C   LIG    1       13.349   0.788  -7.103  0.00  0.00    +0.006 A 
ATOM     11  C   LIG    1       13.972   0.311  -8.266  0.00  0.00    +0.020 A 
ATOM     12  C   LIG    1       15.341   0.075  -8.282  0.00  0.00    +0.041 A 
ATOM     13 CL   LIG    1       16.097  -0.530  -9.703  0.00  0.00    -0.084 Cl
ATOM     14  C   LIG    1       16.101   0.333  -7.150  0.00  0.00    +0.020 A 
ATOM     15  C   LIG    1       15.485   0.850  -6.007  0.00  0.00    +0.006 A 
ENDBRANCH   1   9
BRANCH   1  16
ATOM     16  C   LIG    1       12.140   0.996  -4.139  0.00  0.00    +0.201 C 
ATOM     17 CL   LIG    1       10.700   1.756  -4.944  0.00  0.00    -0.082 Cl
ATOM     18 CL   LIG    1       11.912   1.295  -2.363  0.00  0.00    -0.082 Cl
ATOM     19 CL   LIG    1       11.994  -0.781  -4.393  0.00  0.00    -0.082 Cl
ENDBRANCH   1  16
TORSDOF 3
ENDMDL
MODEL 6
REMARK VINA RESULT:      -6.2      3.062      5.156
REMARK  Name = 
REMARK                            x       y       z     vdW  Elec       q    Type
REMARK                         _______ _______ _______ _____ _____    ______ ____
ROOT
ATOM      1  C   LIG    1        4.116   7.713  -4.949  0.00  0.00    +0.100 C 
ENDROOT
BRANCH   1   6
ATOM      2 CL   LIG    1        9.010   6.273  -8.301  0.00  0.00    -0.084 Cl
ATOM      3  C   LIG    1        7.607   6.652  -7.383  0.00  0.00    +0.041 A 
ATOM      4  C   LIG    1        6.956   5.661  -6.660  0.00  0.00    +0.020 A 
ATOM      5  C   LIG    1        5.814   5.967  -5.902  0.00  0.00    +0.006 A 
ATOM      6  C   LIG    1        5.313   7.278  -5.834  0.00  0.00    -0.036 A 
ATOM      7  C   LIG    1        6.004   8.259  -6.578  0.00  0.00    +0.006 A 
ATOM      8  C   LIG    1        7.129   7.954  -7.352  0.00  0.00    +0.020 A 
ENDBRANCH   1   6
BRANCH   1   9
ATOM      9  C   LIG    1        3.996   6.861  -3.660  0.00  0.00    -0.036 A 
ATOM     10  C   LIG    1        2.899   6.038  -3.362  0.00  0.00    +0.006 A 
ATOM     11  C   LIG    1        2.877   5.252  -2.201  0.00  0.00    +0.020 A 
ATOM     12  C   LIG    1        3.927   5.311  -1.293  0.00  0.00    +0.041 A 
ATOM     13 CL   LIG    1        3.885   4.362   0.140  0.00  0.00    -0.084 Cl
ATOM     14  C   LIG    1        5.016   6.133  -1.548  0.00  0.00    +0.020 A 
ATOM     15  C   LIG    1        5.057   6.881  -2.727  0.00  0.00    +0.006 A 
ENDBRANCH   1   9
BRANCH   1  16
ATOM     16  C   LIG    1        3.801   9.258  -4.807  0.00  0.00    +0.201 C 
ATOM     17 CL   LIG    1        3.172   9.636  -3.145  0.00  0.00    -0.082 Cl
ATOM     18 CL   LIG    1        2.475   9.747  -5.946  0.00  0.00    -0.082 Cl
ATOM     19 CL   LIG    1        5.182  10.376  -5.101  0.00  0.00    -0.082 Cl
ENDBRANCH   1  16
TORSDOF 3
ENDMDL
MODEL 7
REMARK VINA RESULT:      -6.2      6.326      9.020
REMARK  Name = 
REMARK                            x       y       z     vdW  Elec       q    Type
REMARK                         _______ _______ _______ _____ _____    ______ ____
ROOT
ATOM      1  C   LIG    1        8.946  11.197  -8.036  0.00  0.00    +0.100 C 
ENDROOT
BRANCH   1   6
ATOM      2 CL   LIG    1       10.700   6.970 -12.077  0.00  0.00    -0.084 Cl
ATOM      3  C   LIG    1       10.172   8.134 -10.927  0.00  0.00    +0.041 A 
ATOM      4  C   LIG    1       10.167   7.827  -9.572  0.00  0.00    +0.020 A 
ATOM      5  C   LIG    1        9.744   8.777  -8.629  0.00  0.00    +0.006 A 
ATOM      6  C   LIG    1        9.337  10.064  -9.021  0.00  0.00    -0.036 A 
ATOM      7  C   LIG    1        9.360  10.341 -10.405  0.00  0.00    +0.006 A 
ATOM      8  C   LIG    1        9.761   9.389 -11.350  0.00  0.00    +0.020 A 
ENDBRANCH   1   6
BRANCH   1   9
ATOM      9  C   LIG    1        7.759  10.798  -7.123  0.00  0.00    -0.036 A 
ATOM     10  C   LIG    1        7.187  11.649  -6.164  0.00  0.00    +0.006 A 
ATOM     11  C   LIG    1        6.080  11.244  -5.404  0.00  0.00    +0.020 A 
ATOM     12  C   LIG    1        5.555   9.966  -5.554  0.00  0.00    +0.041 A 
ATOM     13 CL   LIG    1        4.212   9.466  -4.606  0.00  0.00    -0.084 Cl
ATOM     14  C   LIG    1        6.113   9.093  -6.478  0.00  0.00    +0.020 A 
ATOM     15  C   LIG    1        7.188   9.515  -7.266  0.00  0.00    +0.006 A 
ENDBRANCH   1   9
BRANCH   1  16
ATOM     16  C   LIG    1       10.098  12.051  -7.367  0.00  0.00    +0.201 C 
ATOM     17 CL   LIG    1        9.884  13.817  -7.733  0.00  0.00    -0.082 Cl
ATOM     18 CL   LIG    1       11.713  11.606  -8.067  0.00  0.00    -0.082 Cl
ATOM     19 CL   LIG    1       10.248  11.910  -5.577  0.00  0.00    -0.082 Cl
ENDBRANCH   1  16
TORSDOF 3
ENDMDL
MODEL 8
REMARK VINA RESULT:      -5.9      3.046      5.320
REMARK  Name = 
REMARK                            x       y       z     vdW  Elec       q    Type
REMARK                         _______ _______ _______ _____ _____    ______ ____
ROOT
ATOM      1  C   LIG    1        4.222   7.465  -5.555  0.00  0.00    +0.100 C 
ENDROOT
BRANCH   1   6
ATOM      2 CL   LIG    1        9.476   5.208  -7.691  0.00  0.00    -0.084 Cl
ATOM      3  C   LIG    1        8.019   5.877  -7.070  0.00  0.00    +0.041 A 
ATOM      4  C   LIG    1        7.597   7.135  -7.479  0.00  0.00    +0.020 A 
ATOM      5  C   LIG    1        6.404   7.682  -6.981  0.00  0.00    +0.006 A 
ATOM      6  C   LIG    1        5.596   6.971  -6.078  0.00  0.00    -0.036 A 
ATOM      7  C   LIG    1        6.055   5.694  -5.689  0.00  0.00    +0.006 A 
ATOM      8  C   LIG    1        7.255   5.154  -6.167  0.00  0.00    +0.020 A 
ENDBRANCH   1   6
BRANCH   1   9
ATOM      9  C   LIG    1        3.989   7.092  -4.069  0.00  0.00    -0.036 A 
ATOM     10  C   LIG    1        4.668   7.688  -2.994  0.00  0.00    +0.006 A 
ATOM     11  C   LIG    1        4.373   7.339  -1.668  0.00  0.00    +0.020 A 
ATOM     12  C   LIG    1        3.429   6.357  -1.394  0.00  0.00    +0.041 A 
ATOM     13 CL   LIG    1        3.086   5.918   0.232  0.00  0.00    -0.084 Cl
ATOM     14  C   LIG    1        2.757   5.733  -2.436  0.00  0.00    +0.020 A 
ATOM     15  C   LIG    1        3.021   6.113  -3.755  0.00  0.00    +0.006 A 
ENDBRANCH   1   9
BRANCH   1  16
ATOM     16  C   LIG    1        3.702   8.887  -6.016  0.00  0.00    +0.201 C 
ATOM     17 CL   LIG    1        5.081  10.061  -6.156  0.00  0.00    -0.082 Cl
ATOM     18 CL   LIG    1        2.590   9.597  -4.769  0.00  0.00    -0.082 Cl
ATOM     19 CL   LIG    1        2.823   8.935  -7.588  0.00  0.00    -0.082 Cl
ENDBRANCH   1  16
TORSDOF 3
ENDMDL
MODEL 9
REMARK VINA RESULT:      -5.4      8.341     11.623
REMARK  Name = 
REMARK                            x       y       z     vdW  Elec       q    Type
REMARK                         _______ _______ _______ _____ _____    ______ ____
ROOT
ATOM      1  C   LIG    1       10.141  11.054  -7.867  0.00  0.00    +0.100 C 
ENDROOT
BRANCH   1   6
ATOM      2 CL   LIG    1        9.901   7.054 -12.472  0.00  0.00    -0.084 Cl
ATOM      3  C   LIG    1       10.006   8.197 -11.192  0.00  0.00    +0.041 A 
ATOM      4  C   LIG    1        9.923   9.557 -11.461  0.00  0.00    +0.020 A 
ATOM      5  C   LIG    1       10.000  10.494 -10.418  0.00  0.00    +0.006 A 
ATOM      6  C   LIG    1       10.141  10.088  -9.081  0.00  0.00    -0.036 A 
ATOM      7  C   LIG    1       10.218   8.698  -8.846  0.00  0.00    +0.006 A 
ATOM      8  C   LIG    1       10.162   7.761  -9.885  0.00  0.00    +0.020 A 
ENDBRANCH   1   6
BRANCH   1   9
ATOM      9  C   LIG    1       11.240  12.141  -7.980  0.00  0.00    -0.036 A 
ATOM     10  C   LIG    1       12.438  11.975  -8.693  0.00  0.00    +0.006 A 
ATOM     11  C   LIG    1       13.369  13.019  -8.798  0.00  0.00    +0.020 A 
ATOM     12  C   LIG    1       13.143  14.229  -8.154  0.00  0.00    +0.041 A 
ATOM     13 CL   LIG    1       14.297  15.498  -8.268  0.00  0.00    -0.084 Cl
ATOM     14  C   LIG    1       11.979  14.416  -7.422  0.00  0.00    +0.020 A 
ATOM     15  C   LIG    1       11.031  13.391  -7.356  0.00  0.00    +0.006 A 
ENDBRANCH   1   9
BRANCH   1  16
ATOM     16  C   LIG    1        8.752  11.513  -7.264  0.00  0.00    +0.201 C 
ATOM     17 CL   LIG    1        7.558  10.145  -7.286  0.00  0.00    -0.082 Cl
ATOM     18 CL   LIG    1        8.010  12.816  -8.287  0.00  0.00    -0.082 Cl
ATOM     19 CL   LIG    1        8.792  12.135  -5.574  0.00  0.00    -0.082 Cl
ENDBRANCH   1  16
TORSDOF 3
ENDMDL
