MODEL 1
REMARK VINA RESULT:      -4.9      0.000      0.000
REMARK  Name = 
REMARK                            x       y       z     vdW  Elec       q    Type
REMARK                         _______ _______ _______ _____ _____    ______ ____
ROOT
ATOM      1  C   LIG    1        0.984  31.406   6.090  0.00  0.00    +0.100 C 
ENDROOT
BRANCH   1   6
ATOM      2 CL   LIG    1        6.635  29.429   4.899  0.00  0.00    -0.084 Cl
ATOM      3  C   LIG    1        5.061  30.021   5.256  0.00  0.00    +0.041 A 
ATOM      4  C   LIG    1        4.646  31.250   4.761  0.00  0.00    +0.020 A 
ATOM      5  C   LIG    1        3.359  31.733   5.044  0.00  0.00    +0.006 A 
ATOM      6  C   LIG    1        2.450  30.985   5.811  0.00  0.00    -0.036 A 
ATOM      7  C   LIG    1        2.906  29.738   6.294  0.00  0.00    +0.006 A 
ATOM      8  C   LIG    1        4.195  29.263   6.032  0.00  0.00    +0.020 A 
ENDBRANCH   1   6
BRANCH   1   9
ATOM      9  C   LIG    1        0.626  32.764   5.434  0.00  0.00    -0.036 A 
ATOM     10  C   LIG    1        0.305  32.920   4.076  0.00  0.00    +0.006 A 
ATOM     11  C   LIG    1       -0.060  34.171   3.557  0.00  0.00    +0.020 A 
ATOM     12  C   LIG    1       -0.064  35.295   4.373  0.00  0.00    +0.041 A 
ATOM     13 CL   LIG    1       -0.491  36.830   3.727  0.00  0.00    -0.084 Cl
ATOM     14  C   LIG    1        0.271  35.178   5.714  0.00  0.00    +0.020 A 
ATOM     15  C   LIG    1        0.591  33.923   6.240  0.00  0.00    +0.006 A 
ENDBRANCH   1   9
BRANCH   1  16
ATOM     16  C   LIG    1       -0.142  30.293   6.068  0.00  0.00    +0.201 C 
ATOM     17 CL   LIG    1       -1.748  31.011   5.619  0.00  0.00    -0.082 Cl
ATOM     18 CL   LIG    1       -0.376  29.588   7.724  0.00  0.00    -0.082 Cl
ATOM     19 CL   LIG    1        0.136  28.910   4.947  0.00  0.00    -0.082 Cl
ENDBRANCH   1  16
TORSDOF 3
ENDMDL
MODEL 2
REMARK VINA RESULT:      -4.9      0.206      1.176
REMARK  Name = 
REMARK                            x       y       z     vdW  Elec       q    Type
REMARK                         _______ _______ _______ _____ _____    ______ ____
ROOT
ATOM      1  C   LIG    1        0.868  31.512   6.116  0.00  0.00    +0.100 C 
ENDROOT
BRANCH   1   6
ATOM      2 CL   LIG    1        6.486  29.458   4.904  0.00  0.00    -0.084 Cl
ATOM      3  C   LIG    1        4.922  30.074   5.261  0.00  0.00    +0.041 A 
ATOM      4  C   LIG    1        4.459  31.220   4.628  0.00  0.00    +0.020 A 
ATOM      5  C   LIG    1        3.179  31.722   4.911  0.00  0.00    +0.006 A 
ATOM      6  C   LIG    1        2.326  31.075   5.820  0.00  0.00    -0.036 A 
ATOM      7  C   LIG    1        2.828  29.910   6.440  0.00  0.00    +0.006 A 
ATOM      8  C   LIG    1        4.111  29.418   6.177  0.00  0.00    +0.020 A 
ENDBRANCH   1   6
BRANCH   1   9
ATOM      9  C   LIG    1        0.515  32.871   5.459  0.00  0.00    -0.036 A 
ATOM     10  C   LIG    1       -0.036  33.003   4.175  0.00  0.00    +0.006 A 
ATOM     11  C   LIG    1       -0.379  34.261   3.659  0.00  0.00    +0.020 A 
ATOM     12  C   LIG    1       -0.135  35.413   4.397  0.00  0.00    +0.041 A 
ATOM     13 CL   LIG    1       -0.537  36.954   3.752  0.00  0.00    -0.084 Cl
ATOM     14  C   LIG    1        0.431  35.317   5.661  0.00  0.00    +0.020 A 
ATOM     15  C   LIG    1        0.731  34.060   6.191  0.00  0.00    +0.006 A 
ENDBRANCH   1   9
BRANCH   1  16
ATOM     16  C   LIG    1       -0.270  30.411   6.116  0.00  0.00    +0.201 C 
ATOM     17 CL   LIG    1       -0.400  29.621   7.746  0.00  0.00    -0.082 Cl
ATOM     18 CL   LIG    1        0.140  29.071   4.962  0.00  0.00    -0.082 Cl
ATOM     19 CL   LIG    1       -1.923  30.983   5.687  0.00  0.00    -0.082 Cl
ENDBRANCH   1  16
TORSDOF 3
ENDMDL
MODEL 3
REMARK VINA RESULT:      -4.8      0.821      5.703
REMARK  Name = 
REMARK                            x       y       z     vdW  Elec       q    Type
REMARK                         _______ _______ _______ _____ _____    ______ ____
ROOT
ATOM      1  C   LIG    1        1.204  30.963   4.774  0.00  0.00    +0.100 C 
ENDROOT
BRANCH   1   6
ATOM      2 CL   LIG    1        0.104  36.948   4.294  0.00  0.00    -0.084 Cl
ATOM      3  C   LIG    1        0.454  35.272   4.447  0.00  0.00    +0.041 A 
ATOM      4  C   LIG    1        0.634  34.706   5.703  0.00  0.00    +0.020 A 
ATOM      5  C   LIG    1        0.912  33.337   5.833  0.00  0.00    +0.006 A 
ATOM      6  C   LIG    1        0.993  32.498   4.709  0.00  0.00    -0.036 A 
ATOM      7  C   LIG    1        0.799  33.107   3.450  0.00  0.00    +0.006 A 
ATOM      8  C   LIG    1        0.543  34.476   3.314  0.00  0.00    +0.020 A 
ENDBRANCH   1   6
BRANCH   1   9
ATOM      9  C   LIG    1        2.703  30.576   4.840  0.00  0.00    -0.036 A 
ATOM     10  C   LIG    1        3.757  31.495   4.712  0.00  0.00    +0.006 A 
ATOM     11  C   LIG    1        5.093  31.086   4.832  0.00  0.00    +0.020 A 
ATOM     12  C   LIG    1        5.402  29.747   5.037  0.00  0.00    +0.041 A 
ATOM     13 CL   LIG    1        7.042  29.248   5.163  0.00  0.00    -0.084 Cl
ATOM     14  C   LIG    1        4.383  28.811   5.145  0.00  0.00    +0.020 A 
ATOM     15  C   LIG    1        3.051  29.227   5.070  0.00  0.00    +0.006 A 
ENDBRANCH   1   9
BRANCH   1  16
ATOM     16  C   LIG    1        0.212  30.098   5.654  0.00  0.00    +0.201 C 
ATOM     17 CL   LIG    1        0.080  28.409   5.001  0.00  0.00    -0.082 Cl
ATOM     18 CL   LIG    1       -1.470  30.778   5.576  0.00  0.00    -0.082 Cl
ATOM     19 CL   LIG    1        0.632  29.944   7.399  0.00  0.00    -0.082 Cl
ENDBRANCH   1  16
TORSDOF 3
ENDMDL
MODEL 4
REMARK VINA RESULT:      -4.8      0.965      5.602
REMARK  Name = 
REMARK                            x       y       z     vdW  Elec       q    Type
REMARK                         _______ _______ _______ _____ _____    ______ ____
ROOT
ATOM      1  C   LIG    1        1.239  30.984   4.700  0.00  0.00    +0.100 C 
ENDROOT
BRANCH   1   6
ATOM      2 CL   LIG    1        0.810  37.072   4.601  0.00  0.00    -0.084 Cl
ATOM      3  C   LIG    1        0.890  35.355   4.611  0.00  0.00    +0.041 A 
ATOM      4  C   LIG    1        0.865  34.647   3.417  0.00  0.00    +0.020 A 
ATOM      5  C   LIG    1        0.938  33.245   3.419  0.00  0.00    +0.006 A 
ATOM      6  C   LIG    1        1.060  32.523   4.618  0.00  0.00    -0.036 A 
ATOM      7  C   LIG    1        1.087  33.277   5.812  0.00  0.00    +0.006 A 
ATOM      8  C   LIG    1        0.993  34.673   5.814  0.00  0.00    +0.020 A 
ENDBRANCH   1   6
BRANCH   1   9
ATOM      9  C   LIG    1        2.729  30.569   4.793  0.00  0.00    -0.036 A 
ATOM     10  C   LIG    1        3.802  31.469   4.701  0.00  0.00    +0.006 A 
ATOM     11  C   LIG    1        5.128  31.034   4.844  0.00  0.00    +0.020 A 
ATOM     12  C   LIG    1        5.407  29.686   5.036  0.00  0.00    +0.041 A 
ATOM     13 CL   LIG    1        7.034  29.154   5.190  0.00  0.00    -0.084 Cl
ATOM     14  C   LIG    1        4.369  28.768   5.109  0.00  0.00    +0.020 A 
ATOM     15  C   LIG    1        3.047  29.210   5.010  0.00  0.00    +0.006 A 
ENDBRANCH   1   9
BRANCH   1  16
ATOM     16  C   LIG    1        0.216  30.147   5.572  0.00  0.00    +0.201 C 
ATOM     17 CL   LIG    1        0.038  28.464   4.913  0.00  0.00    -0.082 Cl
ATOM     18 CL   LIG    1       -1.444  30.877   5.484  0.00  0.00    -0.082 Cl
ATOM     19 CL   LIG    1        0.621  29.977   7.318  0.00  0.00    -0.082 Cl
ENDBRANCH   1  16
TORSDOF 3
ENDMDL
MODEL 5
REMARK VINA RESULT:      -4.7      2.659      3.772
REMARK  Name = 
REMARK                            x       y       z     vdW  Elec       q    Type
REMARK                         _______ _______ _______ _____ _____    ______ ____
ROOT
ATOM      1  C   LIG    1        1.826  31.837   4.080  0.00  0.00    +0.100 C 
ENDROOT
BRANCH   1   6
ATOM      2 CL   LIG    1        3.857  26.334   5.767  0.00  0.00    -0.084 Cl
ATOM      3  C   LIG    1        3.273  27.892   5.334  0.00  0.00    +0.041 A 
ATOM      4  C   LIG    1        3.855  29.032   5.872  0.00  0.00    +0.020 A 
ATOM      5  C   LIG    1        3.387  30.306   5.516  0.00  0.00    +0.006 A 
ATOM      6  C   LIG    1        2.338  30.467   4.595  0.00  0.00    -0.036 A 
ATOM      7  C   LIG    1        1.774  29.285   4.065  0.00  0.00    +0.006 A 
ATOM      8  C   LIG    1        2.224  28.013   4.435  0.00  0.00    +0.020 A 
ENDBRANCH   1   6
BRANCH   1   9
ATOM      9  C   LIG    1        0.700  32.418   4.973  0.00  0.00    -0.036 A 
ATOM     10  C   LIG    1        0.828  32.640   6.353  0.00  0.00    +0.006 A 
ATOM     11  C   LIG    1       -0.214  33.217   7.094  0.00  0.00    +0.020 A 
ATOM     12  C   LIG    1       -1.418  33.538   6.480  0.00  0.00    +0.041 A 
ATOM     13 CL   LIG    1       -2.700  34.225   7.396  0.00  0.00    -0.084 Cl
ATOM     14  C   LIG    1       -1.584  33.309   5.121  0.00  0.00    +0.020 A 
ATOM     15  C   LIG    1       -0.529  32.776   4.375  0.00  0.00    +0.006 A 
ENDBRANCH   1   9
BRANCH   1  16
ATOM     16  C   LIG    1        2.877  32.872   3.506  0.00  0.00    +0.201 C 
ATOM     17 CL   LIG    1        2.331  34.578   3.809  0.00  0.00    -0.082 Cl
ATOM     18 CL   LIG    1        3.002  32.721   1.701  0.00  0.00    -0.082 Cl
ATOM     19 CL   LIG    1        4.551  32.743   4.158  0.00  0.00    -0.082 Cl
ENDBRANCH   1  16
TORSDOF 3
ENDMDL
MODEL 6
REMARK VINA RESULT:      -4.5      2.254      6.266
REMARK  Name = 
REMARK                            x       y       z     vdW  Elec       q    Type
REMARK                         _______ _______ _______ _____ _____    ______ ____
ROOT
ATOM      1  C   LIG    1        2.368  32.413   4.864  0.00  0.00    +0.100 C 
ENDROOT
BRANCH   1   6
ATOM      2 CL   LIG    1       -1.823  36.742   3.888  0.00  0.00    -0.084 Cl
ATOM      3  C   LIG    1       -0.673  35.501   4.188  0.00  0.00    +0.041 A 
ATOM      4  C   LIG    1       -0.908  34.206   3.743  0.00  0.00    +0.020 A 
ATOM      5  C   LIG    1        0.032  33.191   3.979  0.00  0.00    +0.006 A 
ATOM      6  C   LIG    1        1.240  33.455   4.647  0.00  0.00    -0.036 A 
ATOM      7  C   LIG    1        1.446  34.783   5.080  0.00  0.00    +0.006 A 
ATOM      8  C   LIG    1        0.502  35.794   4.865  0.00  0.00    +0.020 A 
ENDBRANCH   1   6
BRANCH   1   9
ATOM      9  C   LIG    1        1.812  30.987   5.110  0.00  0.00    -0.036 A 
ATOM     10  C   LIG    1        1.590  30.044   4.094  0.00  0.00    +0.006 A 
ATOM     11  C   LIG    1        1.133  28.752   4.391  0.00  0.00    +0.020 A 
ATOM     12  C   LIG    1        0.844  28.394   5.702  0.00  0.00    +0.041 A 
ATOM     13 CL   LIG    1        0.263  26.816   6.060  0.00  0.00    -0.084 Cl
ATOM     14  C   LIG    1        1.031  29.311   6.727  0.00  0.00    +0.020 A 
ATOM     15  C   LIG    1        1.529  30.584   6.434  0.00  0.00    +0.006 A 
ENDBRANCH   1   9
BRANCH   1  16
ATOM     16  C   LIG    1        3.678  32.518   3.981  0.00  0.00    +0.201 C 
ATOM     17 CL   LIG    1        3.294  32.246   2.227  0.00  0.00    -0.082 Cl
ATOM     18 CL   LIG    1        4.854  31.209   4.426  0.00  0.00    -0.082 Cl
ATOM     19 CL   LIG    1        4.571  34.079   4.077  0.00  0.00    -0.082 Cl
ENDBRANCH   1  16
TORSDOF 3
ENDMDL
MODEL 7
REMARK VINA RESULT:      -3.8      2.369      4.047
REMARK  Name = 
REMARK                            x       y       z     vdW  Elec       q    Type
REMARK                         _______ _______ _______ _____ _____    ______ ____
ROOT
ATOM      1  C   LIG    1        1.939  32.120   3.706  0.00  0.00    +0.100 C 
ENDROOT
BRANCH   1   6
ATOM      2 CL   LIG    1        0.248  26.870   6.321  0.00  0.00    -0.084 Cl
ATOM      3  C   LIG    1        0.684  28.366   5.594  0.00  0.00    +0.041 A 
ATOM      4  C   LIG    1        0.727  29.527   6.353  0.00  0.00    +0.020 A 
ATOM      5  C   LIG    1        1.090  30.749   5.765  0.00  0.00    +0.006 A 
ATOM      6  C   LIG    1        1.439  30.830   4.407  0.00  0.00    -0.036 A 
ATOM      7  C   LIG    1        1.388  29.628   3.667  0.00  0.00    +0.006 A 
ATOM      8  C   LIG    1        1.006  28.412   4.245  0.00  0.00    +0.020 A 
ENDBRANCH   1   6
BRANCH   1   9
ATOM      9  C   LIG    1        0.916  33.280   3.807  0.00  0.00    -0.036 A 
ATOM     10  C   LIG    1        1.271  34.632   3.937  0.00  0.00    +0.006 A 
ATOM     11  C   LIG    1        0.295  35.637   3.972  0.00  0.00    +0.020 A 
ATOM     12  C   LIG    1       -1.054  35.308   3.927  0.00  0.00    +0.041 A 
ATOM     13 CL   LIG    1       -2.248  36.543   3.992  0.00  0.00    -0.084 Cl
ATOM     14  C   LIG    1       -1.439  33.979   3.822  0.00  0.00    +0.020 A 
ATOM     15  C   LIG    1       -0.463  32.981   3.742  0.00  0.00    +0.006 A 
ENDBRANCH   1   9
BRANCH   1  16
ATOM     16  C   LIG    1        3.467  32.512   3.839  0.00  0.00    +0.201 C 
ATOM     17 CL   LIG    1        3.658  34.028   4.822  0.00  0.00    -0.082 Cl
ATOM     18 CL   LIG    1        4.172  32.901   2.212  0.00  0.00    -0.082 Cl
ATOM     19 CL   LIG    1        4.538  31.273   4.590  0.00  0.00    -0.082 Cl
ENDBRANCH   1  16
TORSDOF 3
ENDMDL
MODEL 8
REMARK VINA RESULT:      -3.3      2.116      5.846
REMARK  Name = 
REMARK                            x       y       z     vdW  Elec       q    Type
REMARK                         _______ _______ _______ _____ _____    ______ ____
ROOT
ATOM      1  C   LIG    1        0.458  30.769   5.568  0.00  0.00    +0.100 C 
ENDROOT
BRANCH   1   6
ATOM      2 CL   LIG    1        0.794  35.718   2.010  0.00  0.00    -0.084 Cl
ATOM      3  C   LIG    1        0.716  34.299   2.978  0.00  0.00    +0.041 A 
ATOM      4  C   LIG    1        1.877  33.615   3.312  0.00  0.00    +0.020 A 
ATOM      5  C   LIG    1        1.819  32.460   4.109  0.00  0.00    +0.006 A 
ATOM      6  C   LIG    1        0.597  31.979   4.608  0.00  0.00    -0.036 A 
ATOM      7  C   LIG    1       -0.561  32.704   4.252  0.00  0.00    +0.006 A 
ATOM      8  C   LIG    1       -0.510  33.842   3.440  0.00  0.00    +0.020 A 
ENDBRANCH   1   6
BRANCH   1   9
ATOM      9  C   LIG    1        1.400  29.600   5.181  0.00  0.00    -0.036 A 
ATOM     10  C   LIG    1        2.772  29.749   4.925  0.00  0.00    +0.006 A 
ATOM     11  C   LIG    1        3.579  28.640   4.629  0.00  0.00    +0.020 A 
ATOM     12  C   LIG    1        3.021  27.371   4.539  0.00  0.00    +0.041 A 
ATOM     13 CL   LIG    1        4.010  26.018   4.155  0.00  0.00    -0.084 Cl
ATOM     14  C   LIG    1        1.663  27.194   4.765  0.00  0.00    +0.020 A 
ATOM     15  C   LIG    1        0.869  28.293   5.103  0.00  0.00    +0.006 A 
ENDBRANCH   1   9
BRANCH   1  16
ATOM     16  C   LIG    1        0.274  31.046   7.115  0.00  0.00    +0.201 C 
ATOM     17 CL   LIG    1        1.800  30.664   8.022  0.00  0.00    -0.082 Cl
ATOM     18 CL   LIG    1       -0.990  29.947   7.815  0.00  0.00    -0.082 Cl
ATOM     19 CL   LIG    1       -0.187  32.727   7.568  0.00  0.00    -0.082 Cl
ENDBRANCH   1  16
TORSDOF 3
ENDMDL
MODEL 9
REMARK VINA RESULT:      -2.7      1.874      2.263
REMARK  Name = 
REMARK                            x       y       z     vdW  Elec       q    Type
REMARK                         _______ _______ _______ _____ _____    ______ ____
ROOT
ATOM      1  C   LIG    1        1.004  31.528   5.973  0.00  0.00    +0.100 C 
ENDROOT
BRANCH   1   6
ATOM      2 CL   LIG    1        3.746  26.464   3.950  0.00  0.00    -0.084 Cl
ATOM      3  C   LIG    1        2.979  27.908   4.479  0.00  0.00    +0.041 A 
ATOM      4  C   LIG    1        1.774  28.307   3.916  0.00  0.00    +0.020 A 
ATOM      5  C   LIG    1        1.139  29.482   4.350  0.00  0.00    +0.006 A 
ATOM      6  C   LIG    1        1.687  30.271   5.375  0.00  0.00    -0.036 A 
ATOM      7  C   LIG    1        2.910  29.832   5.927  0.00  0.00    +0.006 A 
ATOM      8  C   LIG    1        3.557  28.673   5.482  0.00  0.00    +0.020 A 
ENDBRANCH   1   6
BRANCH   1   9
ATOM      9  C   LIG    1        1.091  32.753   5.027  0.00  0.00    -0.036 A 
ATOM     10  C   LIG    1        0.398  32.855   3.810  0.00  0.00    +0.006 A 
ATOM     11  C   LIG    1        0.481  34.014   3.024  0.00  0.00    +0.020 A 
ATOM     12  C   LIG    1        1.294  35.071   3.416  0.00  0.00    +0.041 A 
ATOM     13 CL   LIG    1        1.409  36.480   2.439  0.00  0.00    -0.084 Cl
ATOM     14  C   LIG    1        2.009  34.990   4.602  0.00  0.00    +0.020 A 
ATOM     15  C   LIG    1        1.890  33.854   5.406  0.00  0.00    +0.006 A 
ENDBRANCH   1   9
BRANCH   1  16
ATOM     16  C   LIG    1       -0.351  31.347   6.771  0.00  0.00    +0.201 C 
ATOM     17 CL   LIG    1       -1.732  31.043   5.632  0.00  0.00    -0.082 Cl
ATOM     18 CL   LIG    1       -0.782  32.874   7.654  0.00  0.00    -0.082 Cl
ATOM     19 CL   LIG    1       -0.381  30.016   7.985  0.00  0.00    -0.082 Cl
ENDBRANCH   1  16
TORSDOF 3
ENDMDL
