MODEL 1
REMARK VINA RESULT:      -7.7      0.000      0.000
REMARK  Name = 
REMARK                            x       y       z     vdW  Elec       q    Type
REMARK                         _______ _______ _______ _____ _____    ______ ____
ROOT
ATOM      1  C   LIG    1      -46.671  11.873 -44.871  0.00  0.00    +0.100 C 
ENDROOT
BRANCH   1   6
ATOM      2 CL   LIG    1      -50.170  11.303 -39.901  0.00  0.00    -0.084 Cl
ATOM      3  C   LIG    1      -49.148  11.462 -41.275  0.00  0.00    +0.041 A 
ATOM      4  C   LIG    1      -48.268  10.443 -41.614  0.00  0.00    +0.020 A 
ATOM      5  C   LIG    1      -47.437  10.565 -42.739  0.00  0.00    +0.006 A 
ATOM      6  C   LIG    1      -47.486  11.703 -43.562  0.00  0.00    -0.036 A 
ATOM      7  C   LIG    1      -48.397  12.715 -43.189  0.00  0.00    +0.006 A 
ATOM      8  C   LIG    1      -49.211  12.606 -42.056  0.00  0.00    +0.020 A 
ENDBRANCH   1   6
BRANCH   1   9
ATOM      9  C   LIG    1      -45.313  12.580 -44.630  0.00  0.00    -0.036 A 
ATOM     10  C   LIG    1      -44.785  13.574 -45.470  0.00  0.00    +0.006 A 
ATOM     11  C   LIG    1      -43.573  14.210 -45.166  0.00  0.00    +0.020 A 
ATOM     12  C   LIG    1      -42.843  13.833 -44.046  0.00  0.00    +0.041 A 
ATOM     13 CL   LIG    1      -41.347  14.601 -43.690  0.00  0.00    -0.084 Cl
ATOM     14  C   LIG    1      -43.327  12.837 -43.208  0.00  0.00    +0.020 A 
ATOM     15  C   LIG    1      -44.557  12.236 -43.488  0.00  0.00    +0.006 A 
ENDBRANCH   1   9
BRANCH   1  16
ATOM     16  C   LIG    1      -46.677  10.694 -45.927  0.00  0.00    +0.201 C 
ATOM     17 CL   LIG    1      -46.490  11.341 -47.613  0.00  0.00    -0.082 Cl
ATOM     18 CL   LIG    1      -48.276   9.835 -45.916  0.00  0.00    -0.082 Cl
ATOM     19 CL   LIG    1      -45.406   9.436 -45.714  0.00  0.00    -0.082 Cl
ENDBRANCH   1  16
TORSDOF 3
ENDMDL
MODEL 2
REMARK VINA RESULT:      -7.6      0.169      1.941
REMARK  Name = 
REMARK                            x       y       z     vdW  Elec       q    Type
REMARK                         _______ _______ _______ _____ _____    ______ ____
ROOT
ATOM      1  C   LIG    1      -46.752  11.952 -44.872  0.00  0.00    +0.100 C 
ENDROOT
BRANCH   1   6
ATOM      2 CL   LIG    1      -50.159  11.329 -39.845  0.00  0.00    -0.084 Cl
ATOM      3  C   LIG    1      -49.237  11.505 -41.285  0.00  0.00    +0.041 A 
ATOM      4  C   LIG    1      -49.366  12.648 -42.063  0.00  0.00    +0.020 A 
ATOM      5  C   LIG    1      -48.609  12.799 -43.236  0.00  0.00    +0.006 A 
ATOM      6  C   LIG    1      -47.690  11.818 -43.643  0.00  0.00    -0.036 A 
ATOM      7  C   LIG    1      -47.583  10.672 -42.825  0.00  0.00    +0.006 A 
ATOM      8  C   LIG    1      -48.351  10.508 -41.667  0.00  0.00    +0.020 A 
ENDBRANCH   1   6
BRANCH   1   9
ATOM      9  C   LIG    1      -45.371  12.546 -44.496  0.00  0.00    -0.036 A 
ATOM     10  C   LIG    1      -44.656  12.200 -43.338  0.00  0.00    +0.006 A 
ATOM     11  C   LIG    1      -43.386  12.737 -43.083  0.00  0.00    +0.020 A 
ATOM     12  C   LIG    1      -42.828  13.664 -43.955  0.00  0.00    +0.041 A 
ATOM     13 CL   LIG    1      -41.280  14.336 -43.627  0.00  0.00    -0.084 Cl
ATOM     14  C   LIG    1      -43.520  14.044 -45.096  0.00  0.00    +0.020 A 
ATOM     15  C   LIG    1      -44.766  13.474 -45.372  0.00  0.00    +0.006 A 
ENDBRANCH   1   9
BRANCH   1  16
ATOM     16  C   LIG    1      -46.755  10.798 -45.956  0.00  0.00    +0.201 C 
ATOM     17 CL   LIG    1      -48.321   9.880 -45.914  0.00  0.00    -0.082 Cl
ATOM     18 CL   LIG    1      -45.467   9.573 -45.588  0.00  0.00    -0.082 Cl
ATOM     19 CL   LIG    1      -46.508  11.319 -47.663  0.00  0.00    -0.082 Cl
ENDBRANCH   1  16
TORSDOF 3
ENDMDL
MODEL 3
REMARK VINA RESULT:      -7.2      1.518      5.620
REMARK  Name = 
REMARK                            x       y       z     vdW  Elec       q    Type
REMARK                         _______ _______ _______ _____ _____    ______ ____
ROOT
ATOM      1  C   LIG    1      -46.136   9.845 -43.699  0.00  0.00    +0.100 C 
ENDROOT
BRANCH   1   6
ATOM      2 CL   LIG    1      -41.162  13.377 -43.915  0.00  0.00    -0.084 Cl
ATOM      3  C   LIG    1      -42.553  12.372 -43.812  0.00  0.00    +0.041 A 
ATOM      4  C   LIG    1      -43.581  12.689 -42.932  0.00  0.00    +0.020 A 
ATOM      5  C   LIG    1      -44.722  11.876 -42.850  0.00  0.00    +0.006 A 
ATOM      6  C   LIG    1      -44.869  10.740 -43.663  0.00  0.00    -0.036 A 
ATOM      7  C   LIG    1      -43.807  10.453 -44.548  0.00  0.00    +0.006 A 
ATOM      8  C   LIG    1      -42.658  11.248 -44.618  0.00  0.00    +0.020 A 
ENDBRANCH   1   6
BRANCH   1   9
ATOM      9  C   LIG    1      -47.224  10.325 -42.704  0.00  0.00    -0.036 A 
ATOM     10  C   LIG    1      -47.926  11.534 -42.831  0.00  0.00    +0.006 A 
ATOM     11  C   LIG    1      -48.935  11.885 -41.923  0.00  0.00    +0.020 A 
ATOM     12  C   LIG    1      -49.228  11.058 -40.845  0.00  0.00    +0.041 A 
ATOM     13 CL   LIG    1      -50.451  11.503 -39.722  0.00  0.00    -0.084 Cl
ATOM     14  C   LIG    1      -48.535   9.867 -40.679  0.00  0.00    +0.020 A 
ATOM     15  C   LIG    1      -47.561   9.498 -41.610  0.00  0.00    +0.006 A 
ENDBRANCH   1   9
BRANCH   1  16
ATOM     16  C   LIG    1      -46.646   9.308 -45.098  0.00  0.00    +0.201 C 
ATOM     17 CL   LIG    1      -46.876  10.678 -46.267  0.00  0.00    -0.082 Cl
ATOM     18 CL   LIG    1      -48.282   8.539 -44.930  0.00  0.00    -0.082 Cl
ATOM     19 CL   LIG    1      -45.585   8.105 -45.916  0.00  0.00    -0.082 Cl
ENDBRANCH   1  16
TORSDOF 3
ENDMDL
MODEL 4
REMARK VINA RESULT:      -7.1      1.009      5.572
REMARK  Name = 
REMARK                            x       y       z     vdW  Elec       q    Type
REMARK                         _______ _______ _______ _____ _____    ______ ____
ROOT
ATOM      1  C   LIG    1      -46.016  10.611 -43.767  0.00  0.00    +0.100 C 
ENDROOT
BRANCH   1   6
ATOM      2 CL   LIG    1      -42.076  15.196 -44.611  0.00  0.00    -0.084 Cl
ATOM      3  C   LIG    1      -43.219  13.935 -44.370  0.00  0.00    +0.041 A 
ATOM      4  C   LIG    1      -44.240  13.730 -45.289  0.00  0.00    +0.020 A 
ATOM      5  C   LIG    1      -45.170  12.696 -45.100  0.00  0.00    +0.006 A 
ATOM      6  C   LIG    1      -45.086  11.830 -43.998  0.00  0.00    -0.036 A 
ATOM      7  C   LIG    1      -44.032  12.066 -43.087  0.00  0.00    +0.006 A 
ATOM      8  C   LIG    1      -43.115  13.109 -43.260  0.00  0.00    +0.020 A 
ENDBRANCH   1   6
BRANCH   1   9
ATOM      9  C   LIG    1      -47.160  10.923 -42.769  0.00  0.00    -0.036 A 
ATOM     10  C   LIG    1      -48.013  12.033 -42.875  0.00  0.00    +0.006 A 
ATOM     11  C   LIG    1      -49.062  12.229 -41.965  0.00  0.00    +0.020 A 
ATOM     12  C   LIG    1      -49.249  11.348 -40.907  0.00  0.00    +0.041 A 
ATOM     13 CL   LIG    1      -50.522  11.605 -39.782  0.00  0.00    -0.084 Cl
ATOM     14  C   LIG    1      -48.407  10.254 -40.762  0.00  0.00    +0.020 A 
ATOM     15  C   LIG    1      -47.390  10.035 -41.695  0.00  0.00    +0.006 A 
ENDBRANCH   1   9
BRANCH   1  16
ATOM     16  C   LIG    1      -46.388   9.697 -45.005  0.00  0.00    +0.201 C 
ATOM     17 CL   LIG    1      -44.897   9.232 -45.932  0.00  0.00    -0.082 Cl
ATOM     18 CL   LIG    1      -47.423  10.609 -46.185  0.00  0.00    -0.082 Cl
ATOM     19 CL   LIG    1      -47.256   8.166 -44.624  0.00  0.00    -0.082 Cl
ENDBRANCH   1  16
TORSDOF 3
ENDMDL
MODEL 5
REMARK VINA RESULT:      -7.0      2.257      3.143
REMARK  Name = 
REMARK                            x       y       z     vdW  Elec       q    Type
REMARK                         _______ _______ _______ _____ _____    ______ ____
ROOT
ATOM      1  C   LIG    1      -46.616   9.030 -44.069  0.00  0.00    +0.100 C 
ENDROOT
BRANCH   1   6
ATOM      2 CL   LIG    1      -50.053  11.287 -39.558  0.00  0.00    -0.084 Cl
ATOM      3  C   LIG    1      -49.052  10.645 -40.799  0.00  0.00    +0.041 A 
ATOM      4  C   LIG    1      -48.631   9.323 -40.744  0.00  0.00    +0.020 A 
ATOM      5  C   LIG    1      -47.820   8.792 -41.759  0.00  0.00    +0.006 A 
ATOM      6  C   LIG    1      -47.431   9.568 -42.864  0.00  0.00    -0.036 A 
ATOM      7  C   LIG    1      -47.882  10.906 -42.887  0.00  0.00    +0.006 A 
ATOM      8  C   LIG    1      -48.673  11.445 -41.867  0.00  0.00    +0.020 A 
ENDBRANCH   1   6
BRANCH   1   9
ATOM      9  C   LIG    1      -45.384   9.915 -44.388  0.00  0.00    -0.036 A 
ATOM     10  C   LIG    1      -44.265  10.033 -43.549  0.00  0.00    +0.006 A 
ATOM     11  C   LIG    1      -43.159  10.812 -43.921  0.00  0.00    +0.020 A 
ATOM     12  C   LIG    1      -43.171  11.523 -45.115  0.00  0.00    +0.041 A 
ATOM     13 CL   LIG    1      -41.823  12.493 -45.557  0.00  0.00    -0.084 Cl
ATOM     14  C   LIG    1      -44.273  11.444 -45.956  0.00  0.00    +0.020 A 
ATOM     15  C   LIG    1      -45.355  10.633 -45.604  0.00  0.00    +0.006 A 
ENDBRANCH   1   9
BRANCH   1  16
ATOM     16  C   LIG    1      -46.420   7.466 -44.215  0.00  0.00    +0.201 C 
ATOM     17 CL   LIG    1      -45.584   6.785 -42.754  0.00  0.00    -0.082 Cl
ATOM     18 CL   LIG    1      -45.330   7.087 -45.616  0.00  0.00    -0.082 Cl
ATOM     19 CL   LIG    1      -47.923   6.500 -44.446  0.00  0.00    -0.082 Cl
ENDBRANCH   1  16
TORSDOF 3
ENDMDL
MODEL 6
REMARK VINA RESULT:      -6.9      5.441      9.332
REMARK  Name = 
REMARK                            x       y       z     vdW  Elec       q    Type
REMARK                         _______ _______ _______ _____ _____    ______ ____
ROOT
ATOM      1  C   LIG    1      -40.291  18.151 -45.179  0.00  0.00    +0.100 C 
ENDROOT
BRANCH   1   6
ATOM      2 CL   LIG    1      -44.221  22.820 -45.104  0.00  0.00    -0.084 Cl
ATOM      3  C   LIG    1      -43.083  21.533 -45.140  0.00  0.00    +0.041 A 
ATOM      4  C   LIG    1      -41.954  21.574 -44.332  0.00  0.00    +0.020 A 
ATOM      5  C   LIG    1      -41.025  20.521 -44.353  0.00  0.00    +0.006 A 
ATOM      6  C   LIG    1      -41.219  19.393 -45.168  0.00  0.00    -0.036 A 
ATOM      7  C   LIG    1      -42.380  19.385 -45.972  0.00  0.00    +0.006 A 
ATOM      8  C   LIG    1      -43.297  20.442 -45.970  0.00  0.00    +0.020 A 
ENDBRANCH   1   6
BRANCH   1   9
ATOM      9  C   LIG    1      -41.040  16.852 -44.785  0.00  0.00    -0.036 A 
ATOM     10  C   LIG    1      -42.007  16.230 -45.590  0.00  0.00    +0.006 A 
ATOM     11  C   LIG    1      -42.612  15.027 -45.197  0.00  0.00    +0.020 A 
ATOM     12  C   LIG    1      -42.296  14.449 -43.973  0.00  0.00    +0.041 A 
ATOM     13 CL   LIG    1      -43.055  12.986 -43.486  0.00  0.00    -0.084 Cl
ATOM     14  C   LIG    1      -41.360  15.053 -43.145  0.00  0.00    +0.020 A 
ATOM     15  C   LIG    1      -40.726  16.228 -43.558  0.00  0.00    +0.006 A 
ENDBRANCH   1   9
BRANCH   1  16
ATOM     16  C   LIG    1      -39.210  18.022 -46.328  0.00  0.00    +0.201 C 
ATOM     17 CL   LIG    1      -38.078  16.642 -45.994  0.00  0.00    -0.082 Cl
ATOM     18 CL   LIG    1      -38.160  19.502 -46.387  0.00  0.00    -0.082 Cl
ATOM     19 CL   LIG    1      -39.852  17.770 -47.992  0.00  0.00    -0.082 Cl
ENDBRANCH   1  16
TORSDOF 3
ENDMDL
MODEL 7
REMARK VINA RESULT:      -6.7      2.814      5.548
REMARK  Name = 
REMARK                            x       y       z     vdW  Elec       q    Type
REMARK                         _______ _______ _______ _____ _____    ______ ____
ROOT
ATOM      1  C   LIG    1      -46.612   9.226 -43.490  0.00  0.00    +0.100 C 
ENDROOT
BRANCH   1   6
ATOM      2 CL   LIG    1      -49.478  11.039 -38.415  0.00  0.00    -0.084 Cl
ATOM      3  C   LIG    1      -48.632  10.543 -39.827  0.00  0.00    +0.041 A 
ATOM      4  C   LIG    1      -47.668   9.546 -39.751  0.00  0.00    +0.020 A 
ATOM      5  C   LIG    1      -46.980   9.132 -40.902  0.00  0.00    +0.006 A 
ATOM      6  C   LIG    1      -47.259   9.692 -42.160  0.00  0.00    -0.036 A 
ATOM      7  C   LIG    1      -48.249  10.699 -42.199  0.00  0.00    +0.006 A 
ATOM      8  C   LIG    1      -48.922  11.129 -41.050  0.00  0.00    +0.020 A 
ENDBRANCH   1   6
BRANCH   1   9
ATOM      9  C   LIG    1      -47.639   8.569 -44.446  0.00  0.00    -0.036 A 
ATOM     10  C   LIG    1      -48.108   7.253 -44.309  0.00  0.00    +0.006 A 
ATOM     11  C   LIG    1      -49.078   6.735 -45.181  0.00  0.00    +0.020 A 
ATOM     12  C   LIG    1      -49.561   7.505 -46.232  0.00  0.00    +0.041 A 
ATOM     13 CL   LIG    1      -50.733   6.859 -47.310  0.00  0.00    -0.084 Cl
ATOM     14  C   LIG    1      -49.099   8.802 -46.407  0.00  0.00    +0.020 A 
ATOM     15  C   LIG    1      -48.166   9.332 -45.512  0.00  0.00    +0.006 A 
ENDBRANCH   1   9
BRANCH   1  16
ATOM     16  C   LIG    1      -45.510  10.145 -44.160  0.00  0.00    +0.201 C 
ATOM     17 CL   LIG    1      -44.752   9.307 -45.581  0.00  0.00    -0.082 Cl
ATOM     18 CL   LIG    1      -44.147  10.456 -43.001  0.00  0.00    -0.082 Cl
ATOM     19 CL   LIG    1      -46.072  11.752 -44.748  0.00  0.00    -0.082 Cl
ENDBRANCH   1  16
TORSDOF 3
ENDMDL
MODEL 8
REMARK VINA RESULT:      -6.7      1.605      5.813
REMARK  Name = 
REMARK                            x       y       z     vdW  Elec       q    Type
REMARK                         _______ _______ _______ _____ _____    ______ ____
ROOT
ATOM      1  C   LIG    1      -44.131  11.809 -44.462  0.00  0.00    +0.100 C 
ENDROOT
BRANCH   1   6
ATOM      2 CL   LIG    1      -40.641  16.799 -44.041  0.00  0.00    -0.084 Cl
ATOM      3  C   LIG    1      -41.660  15.419 -44.150  0.00  0.00    +0.041 A 
ATOM      4  C   LIG    1      -42.638  15.348 -45.133  0.00  0.00    +0.020 A 
ATOM      5  C   LIG    1      -43.468  14.220 -45.231  0.00  0.00    +0.006 A 
ATOM      6  C   LIG    1      -43.319  13.127 -44.360  0.00  0.00    -0.036 A 
ATOM      7  C   LIG    1      -42.311  13.233 -43.378  0.00  0.00    +0.006 A 
ATOM      8  C   LIG    1      -41.497  14.366 -43.263  0.00  0.00    +0.020 A 
ENDBRANCH   1   6
BRANCH   1   9
ATOM      9  C   LIG    1      -45.489  11.895 -43.719  0.00  0.00    -0.036 A 
ATOM     10  C   LIG    1      -46.685  12.324 -44.316  0.00  0.00    +0.006 A 
ATOM     11  C   LIG    1      -47.891  12.329 -43.601  0.00  0.00    +0.020 A 
ATOM     12  C   LIG    1      -47.915  11.953 -42.263  0.00  0.00    +0.041 A 
ATOM     13 CL   LIG    1      -49.392  11.981 -41.384  0.00  0.00    -0.084 Cl
ATOM     14  C   LIG    1      -46.745  11.546 -41.638  0.00  0.00    +0.020 A 
ATOM     15  C   LIG    1      -45.553  11.498 -42.365  0.00  0.00    +0.006 A 
ENDBRANCH   1   9
BRANCH   1  16
ATOM     16  C   LIG    1      -44.125  11.019 -45.833  0.00  0.00    +0.201 C 
ATOM     17 CL   LIG    1      -45.184  11.844 -47.056  0.00  0.00    -0.082 Cl
ATOM     18 CL   LIG    1      -44.837   9.363 -45.620  0.00  0.00    -0.082 Cl
ATOM     19 CL   LIG    1      -42.515  10.799 -46.611  0.00  0.00    -0.082 Cl
ENDBRANCH   1  16
TORSDOF 3
ENDMDL
MODEL 9
REMARK VINA RESULT:      -6.6      5.119      8.424
REMARK  Name = 
REMARK                            x       y       z     vdW  Elec       q    Type
REMARK                         _______ _______ _______ _____ _____    ______ ____
ROOT
ATOM      1  C   LIG    1      -41.210  17.619 -46.323  0.00  0.00    +0.100 C 
ENDROOT
BRANCH   1   6
ATOM      2 CL   LIG    1      -43.110  12.756 -43.160  0.00  0.00    -0.084 Cl
ATOM      3  C   LIG    1      -42.587  14.152 -44.016  0.00  0.00    +0.041 A 
ATOM      4  C   LIG    1      -41.538  14.920 -43.528  0.00  0.00    +0.020 A 
ATOM      5  C   LIG    1      -41.102  16.056 -44.228  0.00  0.00    +0.006 A 
ATOM      6  C   LIG    1      -41.693  16.435 -45.445  0.00  0.00    -0.036 A 
ATOM      7  C   LIG    1      -42.753  15.627 -45.912  0.00  0.00    +0.006 A 
ATOM      8  C   LIG    1      -43.205  14.506 -45.206  0.00  0.00    +0.020 A 
ENDBRANCH   1   6
BRANCH   1   9
ATOM      9  C   LIG    1      -41.627  18.993 -45.739  0.00  0.00    -0.036 A 
ATOM     10  C   LIG    1      -40.872  19.707 -44.796  0.00  0.00    +0.006 A 
ATOM     11  C   LIG    1      -41.281  20.971 -44.347  0.00  0.00    +0.020 A 
ATOM     12  C   LIG    1      -42.474  21.523 -44.795  0.00  0.00    +0.041 A 
ATOM     13 CL   LIG    1      -42.983  23.062 -44.225  0.00  0.00    -0.084 Cl
ATOM     14  C   LIG    1      -43.255  20.831 -45.711  0.00  0.00    +0.020 A 
ATOM     15  C   LIG    1      -42.824  19.592 -46.191  0.00  0.00    +0.006 A 
ENDBRANCH   1   9
BRANCH   1  16
ATOM     16  C   LIG    1      -39.773  17.537 -46.982  0.00  0.00    +0.201 C 
ATOM     17 CL   LIG    1      -39.533  18.891 -48.168  0.00  0.00    -0.082 Cl
ATOM     18 CL   LIG    1      -39.600  16.011 -47.950  0.00  0.00    -0.082 Cl
ATOM     19 CL   LIG    1      -38.378  17.595 -45.844  0.00  0.00    -0.082 Cl
ENDBRANCH   1  16
TORSDOF 3
ENDMDL
