MODEL 1
REMARK VINA RESULT:      -7.3      0.000      0.000
REMARK  Name = 
REMARK                            x       y       z     vdW  Elec       q    Type
REMARK                         _______ _______ _______ _____ _____    ______ ____
ROOT
ATOM      1  C   LIG    1       25.390 -27.289 -10.295  0.00  0.00    +0.100 C 
ENDROOT
BRANCH   1   6
ATOM      2 CL   LIG    1       25.544 -21.781 -12.922  0.00  0.00    -0.084 Cl
ATOM      3  C   LIG    1       25.518 -23.350 -12.220  0.00  0.00    +0.041 A 
ATOM      4  C   LIG    1       26.702 -24.044 -12.014  0.00  0.00    +0.020 A 
ATOM      5  C   LIG    1       26.686 -25.323 -11.433  0.00  0.00    +0.006 A 
ATOM      6  C   LIG    1       25.484 -25.924 -11.026  0.00  0.00    -0.036 A 
ATOM      7  C   LIG    1       24.300 -25.186 -11.247  0.00  0.00    +0.006 A 
ATOM      8  C   LIG    1       24.310 -23.921 -11.845  0.00  0.00    +0.020 A 
ENDBRANCH   1   6
BRANCH   1   9
ATOM      9  C   LIG    1       24.245 -28.175 -10.847  0.00  0.00    -0.036 A 
ATOM     10  C   LIG    1       23.196 -28.681 -10.062  0.00  0.00    +0.006 A 
ATOM     11  C   LIG    1       22.162 -29.436 -10.635  0.00  0.00    +0.020 A 
ATOM     12  C   LIG    1       22.181 -29.737 -11.991  0.00  0.00    +0.041 A 
ATOM     13 CL   LIG    1       20.922 -30.680 -12.685  0.00  0.00    -0.084 Cl
ATOM     14  C   LIG    1       23.216 -29.270 -12.789  0.00  0.00    +0.020 A 
ATOM     15  C   LIG    1       24.222 -28.481 -12.226  0.00  0.00    +0.006 A 
ENDBRANCH   1   9
BRANCH   1  16
ATOM     16  C   LIG    1       26.732 -28.032  -9.901  0.00  0.00    +0.201 C 
ATOM     17 CL   LIG    1       27.752 -28.336 -11.372  0.00  0.00    -0.082 Cl
ATOM     18 CL   LIG    1       26.375 -29.673  -9.214  0.00  0.00    -0.082 Cl
ATOM     19 CL   LIG    1       27.784 -27.184  -8.711  0.00  0.00    -0.082 Cl
ENDBRANCH   1  16
TORSDOF 3
ENDMDL
MODEL 2
REMARK VINA RESULT:      -7.1      1.945      4.418
REMARK  Name = 
REMARK                            x       y       z     vdW  Elec       q    Type
REMARK                         _______ _______ _______ _____ _____    ______ ____
ROOT
ATOM      1  C   LIG    1       24.992 -27.483 -11.919  0.00  0.00    +0.100 C 
ENDROOT
BRANCH   1   6
ATOM      2 CL   LIG    1       25.163 -21.474 -12.982  0.00  0.00    -0.084 Cl
ATOM      3  C   LIG    1       25.111 -23.158 -12.638  0.00  0.00    +0.041 A 
ATOM      4  C   LIG    1       23.983 -23.719 -12.054  0.00  0.00    +0.020 A 
ATOM      5  C   LIG    1       23.934 -25.095 -11.779  0.00  0.00    +0.006 A 
ATOM      6  C   LIG    1       25.006 -25.943 -12.105  0.00  0.00    -0.036 A 
ATOM      7  C   LIG    1       26.133 -25.338 -12.702  0.00  0.00    +0.006 A 
ATOM      8  C   LIG    1       26.195 -23.963 -12.958  0.00  0.00    +0.020 A 
ENDBRANCH   1   6
BRANCH   1   9
ATOM      9  C   LIG    1       26.240 -27.995 -11.157  0.00  0.00    -0.036 A 
ATOM     10  C   LIG    1       27.137 -28.946 -11.669  0.00  0.00    +0.006 A 
ATOM     11  C   LIG    1       28.277 -29.329 -10.948  0.00  0.00    +0.020 A 
ATOM     12  C   LIG    1       28.517 -28.805  -9.683  0.00  0.00    +0.041 A 
ATOM     13 CL   LIG    1       29.904 -29.293  -8.794  0.00  0.00    -0.084 Cl
ATOM     14  C   LIG    1       27.637 -27.880  -9.140  0.00  0.00    +0.020 A 
ATOM     15  C   LIG    1       26.525 -27.466  -9.879  0.00  0.00    +0.006 A 
ENDBRANCH   1   9
BRANCH   1  16
ATOM     16  C   LIG    1       23.618 -28.194 -11.584  0.00  0.00    +0.201 C 
ATOM     17 CL   LIG    1       23.844 -29.990 -11.434  0.00  0.00    -0.082 Cl
ATOM     18 CL   LIG    1       22.434 -27.969 -12.941  0.00  0.00    -0.082 Cl
ATOM     19 CL   LIG    1       22.795 -27.651 -10.076  0.00  0.00    -0.082 Cl
ENDBRANCH   1  16
TORSDOF 3
ENDMDL
MODEL 3
REMARK VINA RESULT:      -6.5      1.861      5.533
REMARK  Name = 
REMARK                            x       y       z     vdW  Elec       q    Type
REMARK                         _______ _______ _______ _____ _____    ______ ____
ROOT
ATOM      1  C   LIG    1       24.817 -27.469 -10.987  0.00  0.00    +0.100 C 
ENDROOT
BRANCH   1   6
ATOM      2 CL   LIG    1       30.245 -29.361  -8.934  0.00  0.00    -0.084 Cl
ATOM      3  C   LIG    1       28.737 -28.810  -9.548  0.00  0.00    +0.041 A 
ATOM      4  C   LIG    1       28.254 -29.295 -10.756  0.00  0.00    +0.020 A 
ATOM      5  C   LIG    1       27.020 -28.854 -11.257  0.00  0.00    +0.006 A 
ATOM      6  C   LIG    1       26.230 -27.933 -10.548  0.00  0.00    -0.036 A 
ATOM      7  C   LIG    1       26.751 -27.466  -9.321  0.00  0.00    +0.006 A 
ATOM      8  C   LIG    1       27.992 -27.887  -8.829  0.00  0.00    +0.020 A 
ENDBRANCH   1   6
BRANCH   1   9
ATOM      9  C   LIG    1       24.824 -26.031 -11.566  0.00  0.00    -0.036 A 
ATOM     10  C   LIG    1       23.771 -25.116 -11.408  0.00  0.00    +0.006 A 
ATOM     11  C   LIG    1       23.862 -23.811 -11.914  0.00  0.00    +0.020 A 
ATOM     12  C   LIG    1       24.986 -23.411 -12.626  0.00  0.00    +0.041 A 
ATOM     13 CL   LIG    1       25.085 -21.818 -13.263  0.00  0.00    -0.084 Cl
ATOM     14  C   LIG    1       26.035 -24.300 -12.819  0.00  0.00    +0.020 A 
ATOM     15  C   LIG    1       25.961 -25.585 -12.275  0.00  0.00    +0.006 A 
ENDBRANCH   1   9
BRANCH   1  16
ATOM     16  C   LIG    1       23.863 -28.512 -11.699  0.00  0.00    +0.201 C 
ATOM     17 CL   LIG    1       22.122 -28.046 -11.476  0.00  0.00    -0.082 Cl
ATOM     18 CL   LIG    1       24.025 -30.151 -10.934  0.00  0.00    -0.082 Cl
ATOM     19 CL   LIG    1       24.115 -28.734 -13.468  0.00  0.00    -0.082 Cl
ENDBRANCH   1  16
TORSDOF 3
ENDMDL
MODEL 4
REMARK VINA RESULT:      -6.5      1.872      5.486
REMARK  Name = 
REMARK                            x       y       z     vdW  Elec       q    Type
REMARK                         _______ _______ _______ _____ _____    ______ ____
ROOT
ATOM      1  C   LIG    1       24.719 -27.552 -10.952  0.00  0.00    +0.100 C 
ENDROOT
BRANCH   1   6
ATOM      2 CL   LIG    1       30.262 -29.241  -9.033  0.00  0.00    -0.084 Cl
ATOM      3  C   LIG    1       28.683 -28.783  -9.536  0.00  0.00    +0.041 A 
ATOM      4  C   LIG    1       27.946 -27.875  -8.788  0.00  0.00    +0.020 A 
ATOM      5  C   LIG    1       26.659 -27.492  -9.199  0.00  0.00    +0.006 A 
ATOM      6  C   LIG    1       26.092 -27.994 -10.382  0.00  0.00    -0.036 A 
ATOM      7  C   LIG    1       26.873 -28.911 -11.119  0.00  0.00    +0.006 A 
ATOM      8  C   LIG    1       28.147 -29.311 -10.702  0.00  0.00    +0.020 A 
ENDBRANCH   1   6
BRANCH   1   9
ATOM      9  C   LIG    1       24.759 -26.118 -11.539  0.00  0.00    -0.036 A 
ATOM     10  C   LIG    1       23.719 -25.185 -11.405  0.00  0.00    +0.006 A 
ATOM     11  C   LIG    1       23.841 -23.885 -11.917  0.00  0.00    +0.020 A 
ATOM     12  C   LIG    1       24.983 -23.508 -12.612  0.00  0.00    +0.041 A 
ATOM     13 CL   LIG    1       25.120 -21.921 -13.256  0.00  0.00    -0.084 Cl
ATOM     14  C   LIG    1       26.020 -24.415 -12.781  0.00  0.00    +0.020 A 
ATOM     15  C   LIG    1       25.916 -25.696 -12.231  0.00  0.00    +0.006 A 
ENDBRANCH   1   9
BRANCH   1  16
ATOM     16  C   LIG    1       23.847 -28.613 -11.738  0.00  0.00    +0.201 C 
ATOM     17 CL   LIG    1       24.314 -28.654 -13.493  0.00  0.00    -0.082 Cl
ATOM     18 CL   LIG    1       22.094 -28.141 -11.718  0.00  0.00    -0.082 Cl
ATOM     19 CL   LIG    1       23.938 -30.309 -11.141  0.00  0.00    -0.082 Cl
ENDBRANCH   1  16
TORSDOF 3
ENDMDL
MODEL 5
REMARK VINA RESULT:      -6.2      1.876      5.643
REMARK  Name = 
REMARK                            x       y       z     vdW  Elec       q    Type
REMARK                         _______ _______ _______ _____ _____    ______ ____
ROOT
ATOM      1  C   LIG    1       24.849 -27.383 -10.896  0.00  0.00    +0.100 C 
ENDROOT
BRANCH   1   6
ATOM      2 CL   LIG    1       30.314 -29.356  -9.025  0.00  0.00    -0.084 Cl
ATOM      3  C   LIG    1       28.757 -28.819  -9.515  0.00  0.00    +0.041 A 
ATOM      4  C   LIG    1       28.055 -27.906  -8.739  0.00  0.00    +0.020 A 
ATOM      5  C   LIG    1       26.786 -27.459  -9.139  0.00  0.00    +0.006 A 
ATOM      6  C   LIG    1       26.202 -27.899 -10.339  0.00  0.00    -0.036 A 
ATOM      7  C   LIG    1       26.947 -28.823 -11.104  0.00  0.00    +0.006 A 
ATOM      8  C   LIG    1       28.203 -29.288 -10.697  0.00  0.00    +0.020 A 
ENDBRANCH   1   6
BRANCH   1   9
ATOM      9  C   LIG    1       24.973 -25.974 -11.530  0.00  0.00    -0.036 A 
ATOM     10  C   LIG    1       26.078 -25.546 -12.282  0.00  0.00    +0.006 A 
ATOM     11  C   LIG    1       26.104 -24.274 -12.872  0.00  0.00    +0.020 A 
ATOM     12  C   LIG    1       25.048 -23.391 -12.683  0.00  0.00    +0.041 A 
ATOM     13 CL   LIG    1       25.094 -21.825 -13.390  0.00  0.00    -0.084 Cl
ATOM     14  C   LIG    1       23.951 -23.777 -11.926  0.00  0.00    +0.020 A 
ATOM     15  C   LIG    1       23.907 -25.060 -11.376  0.00  0.00    +0.006 A 
ENDBRANCH   1   9
BRANCH   1  16
ATOM     16  C   LIG    1       23.892 -28.408 -11.630  0.00  0.00    +0.201 C 
ATOM     17 CL   LIG    1       22.157 -27.895 -11.468  0.00  0.00    -0.082 Cl
ATOM     18 CL   LIG    1       23.985 -30.043 -10.848  0.00  0.00    -0.082 Cl
ATOM     19 CL   LIG    1       24.195 -28.651 -13.389  0.00  0.00    -0.082 Cl
ENDBRANCH   1  16
TORSDOF 3
ENDMDL
MODEL 6
REMARK VINA RESULT:      -5.7      1.970      5.842
REMARK  Name = 
REMARK                            x       y       z     vdW  Elec       q    Type
REMARK                         _______ _______ _______ _____ _____    ______ ____
ROOT
ATOM      1  C   LIG    1       23.981 -27.691 -10.903  0.00  0.00    +0.100 C 
ENDROOT
BRANCH   1   6
ATOM      2 CL   LIG    1       28.800 -31.433 -10.728  0.00  0.00    -0.084 Cl
ATOM      3  C   LIG    1       27.464 -30.355 -10.809  0.00  0.00    +0.041 A 
ATOM      4  C   LIG    1       26.720 -30.249 -11.977  0.00  0.00    +0.020 A 
ATOM      5  C   LIG    1       25.623 -29.376 -12.045  0.00  0.00    +0.006 A 
ATOM      6  C   LIG    1       25.233 -28.606 -10.937  0.00  0.00    -0.036 A 
ATOM      7  C   LIG    1       26.010 -28.743  -9.766  0.00  0.00    +0.006 A 
ATOM      8  C   LIG    1       27.117 -29.596  -9.701  0.00  0.00    +0.020 A 
ENDBRANCH   1   6
BRANCH   1   9
ATOM      9  C   LIG    1       24.278 -26.267 -11.439  0.00  0.00    -0.036 A 
ATOM     10  C   LIG    1       23.361 -25.205 -11.396  0.00  0.00    +0.006 A 
ATOM     11  C   LIG    1       23.712 -23.926 -11.852  0.00  0.00    +0.020 A 
ATOM     12  C   LIG    1       24.967 -23.696 -12.402  0.00  0.00    +0.041 A 
ATOM     13 CL   LIG    1       25.385 -22.132 -12.979  0.00  0.00    -0.084 Cl
ATOM     14  C   LIG    1       25.888 -24.732 -12.479  0.00  0.00    +0.020 A 
ATOM     15  C   LIG    1       25.553 -25.994 -11.983  0.00  0.00    +0.006 A 
ENDBRANCH   1   9
BRANCH   1  16
ATOM     16  C   LIG    1       22.577 -28.312 -11.288  0.00  0.00    +0.201 C 
ATOM     17 CL   LIG    1       22.558 -30.101 -10.974  0.00  0.00    -0.082 Cl
ATOM     18 CL   LIG    1       22.264 -28.131 -13.067  0.00  0.00    -0.082 Cl
ATOM     19 CL   LIG    1       21.148 -27.624 -10.433  0.00  0.00    -0.082 Cl
ENDBRANCH   1  16
TORSDOF 3
ENDMDL
MODEL 7
REMARK VINA RESULT:      -5.6      1.939      5.725
REMARK  Name = 
REMARK                            x       y       z     vdW  Elec       q    Type
REMARK                         _______ _______ _______ _____ _____    ______ ____
ROOT
ATOM      1  C   LIG    1       25.576 -26.331 -11.316  0.00  0.00    +0.100 C 
ENDROOT
BRANCH   1   6
ATOM      2 CL   LIG    1       20.910 -30.016 -12.698  0.00  0.00    -0.084 Cl
ATOM      3  C   LIG    1       22.197 -28.943 -12.315  0.00  0.00    +0.041 A 
ATOM      4  C   LIG    1       22.113 -28.118 -11.201  0.00  0.00    +0.020 A 
ATOM      5  C   LIG    1       23.165 -27.246 -10.880  0.00  0.00    +0.006 A 
ATOM      6  C   LIG    1       24.335 -27.197 -11.656  0.00  0.00    -0.036 A 
ATOM      7  C   LIG    1       24.387 -28.053 -12.778  0.00  0.00    +0.006 A 
ATOM      8  C   LIG    1       23.331 -28.908 -13.114  0.00  0.00    +0.020 A 
ENDBRANCH   1   6
BRANCH   1   9
ATOM      9  C   LIG    1       26.715 -27.162 -10.672  0.00  0.00    -0.036 A 
ATOM     10  C   LIG    1       27.427 -28.169 -11.341  0.00  0.00    +0.006 A 
ATOM     11  C   LIG    1       28.482 -28.849 -10.715  0.00  0.00    +0.020 A 
ATOM     12  C   LIG    1       28.813 -28.568  -9.395  0.00  0.00    +0.041 A 
ATOM     13 CL   LIG    1       30.093 -29.418  -8.625  0.00  0.00    -0.084 Cl
ATOM     14  C   LIG    1       28.113 -27.592  -8.699  0.00  0.00    +0.020 A 
ATOM     15  C   LIG    1       27.092 -26.885  -9.339  0.00  0.00    +0.006 A 
ENDBRANCH   1   9
BRANCH   1  16
ATOM     16  C   LIG    1       26.014 -25.201 -12.335  0.00  0.00    +0.201 C 
ATOM     17 CL   LIG    1       27.086 -23.982 -11.520  0.00  0.00    -0.082 Cl
ATOM     18 CL   LIG    1       24.570 -24.265 -12.911  0.00  0.00    -0.082 Cl
ATOM     19 CL   LIG    1       26.894 -25.761 -13.804  0.00  0.00    -0.082 Cl
ENDBRANCH   1  16
TORSDOF 3
ENDMDL
MODEL 8
REMARK VINA RESULT:      -5.4      2.575      6.364
REMARK  Name = 
REMARK                            x       y       z     vdW  Elec       q    Type
REMARK                         _______ _______ _______ _____ _____    ______ ____
ROOT
ATOM      1  C   LIG    1       23.990 -27.850 -10.737  0.00  0.00    +0.100 C 
ENDROOT
BRANCH   1   6
ATOM      2 CL   LIG    1       26.395 -33.374  -9.756  0.00  0.00    -0.084 Cl
ATOM      3  C   LIG    1       25.712 -31.829 -10.076  0.00  0.00    +0.041 A 
ATOM      4  C   LIG    1       24.393 -31.721 -10.496  0.00  0.00    +0.020 A 
ATOM      5  C   LIG    1       23.829 -30.461 -10.750  0.00  0.00    +0.006 A 
ATOM      6  C   LIG    1       24.567 -29.280 -10.568  0.00  0.00    -0.036 A 
ATOM      7  C   LIG    1       25.903 -29.429 -10.135  0.00  0.00    +0.006 A 
ATOM      8  C   LIG    1       26.476 -30.685  -9.901  0.00  0.00    +0.020 A 
ENDBRANCH   1   6
BRANCH   1   9
ATOM      9  C   LIG    1       25.022 -26.867 -11.347  0.00  0.00    -0.036 A 
ATOM     10  C   LIG    1       25.388 -25.648 -10.756  0.00  0.00    +0.006 A 
ATOM     11  C   LIG    1       26.368 -24.827 -11.335  0.00  0.00    +0.020 A 
ATOM     12  C   LIG    1       26.964 -25.187 -12.537  0.00  0.00    +0.041 A 
ATOM     13 CL   LIG    1       28.149 -24.169 -13.254  0.00  0.00    -0.084 Cl
ATOM     14  C   LIG    1       26.607 -26.376 -13.158  0.00  0.00    +0.020 A 
ATOM     15  C   LIG    1       25.663 -27.214 -12.557  0.00  0.00    +0.006 A 
ENDBRANCH   1   9
BRANCH   1  16
ATOM     16  C   LIG    1       22.491 -27.690 -11.219  0.00  0.00    +0.201 C 
ATOM     17 CL   LIG    1       22.152 -25.973 -11.704  0.00  0.00    -0.082 Cl
ATOM     18 CL   LIG    1       21.341 -28.042  -9.860  0.00  0.00    -0.082 Cl
ATOM     19 CL   LIG    1       21.992 -28.725 -12.607  0.00  0.00    -0.082 Cl
ENDBRANCH   1  16
TORSDOF 3
ENDMDL
MODEL 9
REMARK VINA RESULT:      -5.1      1.926      4.260
REMARK  Name = 
REMARK                            x       y       z     vdW  Elec       q    Type
REMARK                         _______ _______ _______ _____ _____    ______ ____
ROOT
ATOM      1  C   LIG    1       25.485 -26.614 -11.701  0.00  0.00    +0.100 C 
ENDROOT
BRANCH   1   6
ATOM      2 CL   LIG    1       30.037 -29.249  -8.603  0.00  0.00    -0.084 Cl
ATOM      3  C   LIG    1       28.726 -28.523  -9.446  0.00  0.00    +0.041 A 
ATOM      4  C   LIG    1       27.949 -27.552  -8.829  0.00  0.00    +0.020 A 
ATOM      5  C   LIG    1       26.883 -26.951  -9.516  0.00  0.00    +0.006 A 
ATOM      6  C   LIG    1       26.584 -27.295 -10.845  0.00  0.00    -0.036 A 
ATOM      7  C   LIG    1       27.398 -28.283 -11.441  0.00  0.00    +0.006 A 
ATOM      8  C   LIG    1       28.449 -28.900 -10.752  0.00  0.00    +0.020 A 
ENDBRANCH   1   6
BRANCH   1   9
ATOM      9  C   LIG    1       24.248 -27.525 -11.905  0.00  0.00    -0.036 A 
ATOM     10  C   LIG    1       23.163 -27.586 -11.016  0.00  0.00    +0.006 A 
ATOM     11  C   LIG    1       22.050 -28.395 -11.286  0.00  0.00    +0.020 A 
ATOM     12  C   LIG    1       22.021 -29.193 -12.423  0.00  0.00    +0.041 A 
ATOM     13 CL   LIG    1       20.664 -30.199 -12.739  0.00  0.00    -0.084 Cl
ATOM     14  C   LIG    1       23.089 -29.172 -13.310  0.00  0.00    +0.020 A 
ATOM     15  C   LIG    1       24.177 -28.331 -13.062  0.00  0.00    +0.006 A 
ENDBRANCH   1   9
BRANCH   1  16
ATOM     16  C   LIG    1       25.199 -25.072 -11.480  0.00  0.00    +0.201 C 
ATOM     17 CL   LIG    1       24.061 -24.443 -12.748  0.00  0.00    -0.082 Cl
ATOM     18 CL   LIG    1       26.722 -24.105 -11.677  0.00  0.00    -0.082 Cl
ATOM     19 CL   LIG    1       24.495 -24.620  -9.885  0.00  0.00    -0.082 Cl
ENDBRANCH   1  16
TORSDOF 3
ENDMDL
