MODEL 1
REMARK VINA RESULT:      -8.9      0.000      0.000
REMARK  Name = 
REMARK                            x       y       z     vdW  Elec       q    Type
REMARK                         _______ _______ _______ _____ _____    ______ ____
ROOT
ATOM      1  C   LIG    1       19.246  47.999  15.957  0.00  0.00    +0.100 C 
ENDROOT
BRANCH   1   6
ATOM      2 CL   LIG    1       13.931  46.357  13.442  0.00  0.00    -0.084 Cl
ATOM      3  C   LIG    1       15.409  46.817  14.191  0.00  0.00    +0.041 A 
ATOM      4  C   LIG    1       16.056  45.945  15.056  0.00  0.00    +0.020 A 
ATOM      5  C   LIG    1       17.267  46.314  15.664  0.00  0.00    +0.006 A 
ATOM      6  C   LIG    1       17.867  47.556  15.400  0.00  0.00    -0.036 A 
ATOM      7  C   LIG    1       17.183  48.414  14.512  0.00  0.00    +0.006 A 
ATOM      8  C   LIG    1       15.965  48.059  13.921  0.00  0.00    +0.020 A 
ENDBRANCH   1   6
BRANCH   1   9
ATOM      9  C   LIG    1       20.160  48.597  14.858  0.00  0.00    -0.036 A 
ATOM     10  C   LIG    1       21.033  47.838  14.063  0.00  0.00    +0.006 A 
ATOM     11  C   LIG    1       21.796  48.436  13.050  0.00  0.00    +0.020 A 
ATOM     12  C   LIG    1       21.737  49.808  12.843  0.00  0.00    +0.041 A 
ATOM     13 CL   LIG    1       22.690  50.540  11.614  0.00  0.00    -0.084 Cl
ATOM     14  C   LIG    1       20.900  50.590  13.628  0.00  0.00    +0.020 A 
ATOM     15  C   LIG    1       20.107  49.987  14.607  0.00  0.00    +0.006 A 
ENDBRANCH   1   9
BRANCH   1  16
ATOM     16  C   LIG    1       19.301  48.694  17.378  0.00  0.00    +0.201 C 
ATOM     17 CL   LIG    1       20.979  49.289  17.736  0.00  0.00    -0.082 Cl
ATOM     18 CL   LIG    1       18.925  47.496  18.690  0.00  0.00    -0.082 Cl
ATOM     19 CL   LIG    1       18.195  50.095  17.617  0.00  0.00    -0.082 Cl
ENDBRANCH   1  16
TORSDOF 3
ENDMDL
MODEL 2
REMARK VINA RESULT:      -8.9      0.083      1.598
REMARK  Name = 
REMARK                            x       y       z     vdW  Elec       q    Type
REMARK                         _______ _______ _______ _____ _____    ______ ____
ROOT
ATOM      1  C   LIG    1       19.218  48.008  15.910  0.00  0.00    +0.100 C 
ENDROOT
BRANCH   1   6
ATOM      2 CL   LIG    1       13.874  46.363  13.461  0.00  0.00    -0.084 Cl
ATOM      3  C   LIG    1       15.360  46.825  14.191  0.00  0.00    +0.041 A 
ATOM      4  C   LIG    1       16.002  45.968  15.075  0.00  0.00    +0.020 A 
ATOM      5  C   LIG    1       17.220  46.338  15.668  0.00  0.00    +0.006 A 
ATOM      6  C   LIG    1       17.832  47.567  15.370  0.00  0.00    -0.036 A 
ATOM      7  C   LIG    1       17.153  48.410  14.465  0.00  0.00    +0.006 A 
ATOM      8  C   LIG    1       15.928  48.054  13.888  0.00  0.00    +0.020 A 
ENDBRANCH   1   6
BRANCH   1   9
ATOM      9  C   LIG    1       20.074  48.714  14.827  0.00  0.00    -0.036 A 
ATOM     10  C   LIG    1       20.055  50.097  14.590  0.00  0.00    +0.006 A 
ATOM     11  C   LIG    1       20.893  50.679  13.627  0.00  0.00    +0.020 A 
ATOM     12  C   LIG    1       21.730  49.884  12.853  0.00  0.00    +0.041 A 
ATOM     13 CL   LIG    1       22.740  50.599  11.660  0.00  0.00    -0.084 Cl
ATOM     14  C   LIG    1       21.754  48.510  13.048  0.00  0.00    +0.020 A 
ATOM     15  C   LIG    1       20.952  47.938  14.038  0.00  0.00    +0.006 A 
ENDBRANCH   1   9
BRANCH   1  16
ATOM     16  C   LIG    1       19.308  48.597  17.376  0.00  0.00    +0.201 C 
ATOM     17 CL   LIG    1       18.188  50.013  17.570  0.00  0.00    -0.082 Cl
ATOM     18 CL   LIG    1       20.971  49.249  17.702  0.00  0.00    -0.082 Cl
ATOM     19 CL   LIG    1       18.926  47.451  18.712  0.00  0.00    -0.082 Cl
ENDBRANCH   1  16
TORSDOF 3
ENDMDL
MODEL 3
REMARK VINA RESULT:      -7.9      0.921      5.491
REMARK  Name = 
REMARK                            x       y       z     vdW  Elec       q    Type
REMARK                         _______ _______ _______ _____ _____    ______ ____
ROOT
ATOM      1  C   LIG    1       18.464  49.304  15.548  0.00  0.00    +0.100 C 
ENDROOT
BRANCH   1   6
ATOM      2 CL   LIG    1       23.756  49.793  12.545  0.00  0.00    -0.084 Cl
ATOM      3  C   LIG    1       22.252  49.626  13.360  0.00  0.00    +0.041 A 
ATOM      4  C   LIG    1       21.891  48.407  13.920  0.00  0.00    +0.020 A 
ATOM      5  C   LIG    1       20.667  48.267  14.593  0.00  0.00    +0.006 A 
ATOM      6  C   LIG    1       19.787  49.352  14.740  0.00  0.00    -0.036 A 
ATOM      7  C   LIG    1       20.190  50.577  14.162  0.00  0.00    +0.006 A 
ATOM      8  C   LIG    1       21.399  50.714  13.472  0.00  0.00    +0.020 A 
ENDBRANCH   1   6
BRANCH   1   9
ATOM      9  C   LIG    1       17.432  48.328  14.928  0.00  0.00    -0.036 A 
ATOM     10  C   LIG    1       17.302  46.981  15.303  0.00  0.00    +0.006 A 
ATOM     11  C   LIG    1       16.311  46.165  14.738  0.00  0.00    +0.020 A 
ATOM     12  C   LIG    1       15.465  46.664  13.756  0.00  0.00    +0.041 A 
ATOM     13 CL   LIG    1       14.266  45.653  13.052  0.00  0.00    -0.084 Cl
ATOM     14  C   LIG    1       15.583  47.985  13.348  0.00  0.00    +0.020 A 
ATOM     15  C   LIG    1       16.541  48.810  13.943  0.00  0.00    +0.006 A 
ENDBRANCH   1   9
BRANCH   1  16
ATOM     16  C   LIG    1       18.538  49.345  17.128  0.00  0.00    +0.201 C 
ATOM     17 CL   LIG    1       17.195  50.361  17.808  0.00  0.00    -0.082 Cl
ATOM     18 CL   LIG    1       20.073  50.145  17.675  0.00  0.00    -0.082 Cl
ATOM     19 CL   LIG    1       18.453  47.752  17.964  0.00  0.00    -0.082 Cl
ENDBRANCH   1  16
TORSDOF 3
ENDMDL
MODEL 4
REMARK VINA RESULT:      -7.9      0.878      5.522
REMARK  Name = 
REMARK                            x       y       z     vdW  Elec       q    Type
REMARK                         _______ _______ _______ _____ _____    ______ ____
ROOT
ATOM      1  C   LIG    1       18.451  49.368  15.702  0.00  0.00    +0.100 C 
ENDROOT
BRANCH   1   6
ATOM      2 CL   LIG    1       23.358  49.233  12.074  0.00  0.00    -0.084 Cl
ATOM      3  C   LIG    1       21.998  49.299  13.123  0.00  0.00    +0.041 A 
ATOM      4  C   LIG    1       21.333  50.500  13.332  0.00  0.00    +0.020 A 
ATOM      5  C   LIG    1       20.217  50.557  14.182  0.00  0.00    +0.006 A 
ATOM      6  C   LIG    1       19.729  49.406  14.824  0.00  0.00    -0.036 A 
ATOM      7  C   LIG    1       20.428  48.203  14.584  0.00  0.00    +0.006 A 
ATOM      8  C   LIG    1       21.554  48.146  13.755  0.00  0.00    +0.020 A 
ENDBRANCH   1   6
BRANCH   1   9
ATOM      9  C   LIG    1       17.351  48.457  15.101  0.00  0.00    -0.036 A 
ATOM     10  C   LIG    1       16.976  47.217  15.644  0.00  0.00    +0.006 A 
ATOM     11  C   LIG    1       15.936  46.465  15.079  0.00  0.00    +0.020 A 
ATOM     12  C   LIG    1       15.284  46.913  13.937  0.00  0.00    +0.041 A 
ATOM     13 CL   LIG    1       14.025  45.977  13.236  0.00  0.00    -0.084 Cl
ATOM     14  C   LIG    1       15.648  48.124  13.364  0.00  0.00    +0.020 A 
ATOM     15  C   LIG    1       16.654  48.894  13.953  0.00  0.00    +0.006 A 
ENDBRANCH   1   9
BRANCH   1  16
ATOM     16  C   LIG    1       18.614  49.336  17.277  0.00  0.00    +0.201 C 
ATOM     17 CL   LIG    1       17.304  50.308  18.077  0.00  0.00    -0.082 Cl
ATOM     18 CL   LIG    1       20.171  50.125  17.775  0.00  0.00    -0.082 Cl
ATOM     19 CL   LIG    1       18.585  47.706  18.041  0.00  0.00    -0.082 Cl
ENDBRANCH   1  16
TORSDOF 3
ENDMDL
MODEL 5
REMARK VINA RESULT:      -7.4      1.343      1.983
REMARK  Name = 
REMARK                            x       y       z     vdW  Elec       q    Type
REMARK                         _______ _______ _______ _____ _____    ______ ____
ROOT
ATOM      1  C   LIG    1       18.325  47.802  16.612  0.00  0.00    +0.100 C 
ENDROOT
BRANCH   1   6
ATOM      2 CL   LIG    1       14.072  45.743  12.748  0.00  0.00    -0.084 Cl
ATOM      3  C   LIG    1       15.296  46.333  13.801  0.00  0.00    +0.041 A 
ATOM      4  C   LIG    1       15.661  47.672  13.768  0.00  0.00    +0.020 A 
ATOM      5  C   LIG    1       16.655  48.160  14.632  0.00  0.00    +0.006 A 
ATOM      6  C   LIG    1       17.288  47.322  15.564  0.00  0.00    -0.036 A 
ATOM      7  C   LIG    1       16.887  45.968  15.572  0.00  0.00    +0.006 A 
ATOM      8  C   LIG    1       15.912  45.473  14.698  0.00  0.00    +0.020 A 
ENDBRANCH   1   6
BRANCH   1   9
ATOM      9  C   LIG    1       19.610  48.365  15.954  0.00  0.00    -0.036 A 
ATOM     10  C   LIG    1       20.844  48.480  16.614  0.00  0.00    +0.006 A 
ATOM     11  C   LIG    1       21.983  48.951  15.944  0.00  0.00    +0.020 A 
ATOM     12  C   LIG    1       21.899  49.358  14.618  0.00  0.00    +0.041 A 
ATOM     13 CL   LIG    1       23.292  49.954  13.807  0.00  0.00    -0.084 Cl
ATOM     14  C   LIG    1       20.688  49.277  13.945  0.00  0.00    +0.020 A 
ATOM     15  C   LIG    1       19.565  48.766  14.601  0.00  0.00    +0.006 A 
ENDBRANCH   1   9
BRANCH   1  16
ATOM     16  C   LIG    1       17.804  48.555  17.904  0.00  0.00    +0.201 C 
ATOM     17 CL   LIG    1       18.959  48.331  19.287  0.00  0.00    -0.082 Cl
ATOM     18 CL   LIG    1       16.232  47.844  18.468  0.00  0.00    -0.082 Cl
ATOM     19 CL   LIG    1       17.543  50.329  17.732  0.00  0.00    -0.082 Cl
ENDBRANCH   1  16
TORSDOF 3
ENDMDL
MODEL 6
REMARK VINA RESULT:      -7.1      2.138      5.435
REMARK  Name = 
REMARK                            x       y       z     vdW  Elec       q    Type
REMARK                         _______ _______ _______ _____ _____    ______ ____
ROOT
ATOM      1  C   LIG    1       18.684  47.812  16.034  0.00  0.00    +0.100 C 
ENDROOT
BRANCH   1   6
ATOM      2 CL   LIG    1       16.720  50.986  20.864  0.00  0.00    -0.084 Cl
ATOM      3  C   LIG    1       17.314  50.094  19.521  0.00  0.00    +0.041 A 
ATOM      4  C   LIG    1       17.865  48.832  19.707  0.00  0.00    +0.020 A 
ATOM      5  C   LIG    1       18.345  48.096  18.612  0.00  0.00    +0.006 A 
ATOM      6  C   LIG    1       18.263  48.599  17.303  0.00  0.00    -0.036 A 
ATOM      7  C   LIG    1       17.693  49.882  17.152  0.00  0.00    +0.006 A 
ATOM      8  C   LIG    1       17.233  50.628  18.243  0.00  0.00    +0.020 A 
ENDBRANCH   1   6
BRANCH   1   9
ATOM      9  C   LIG    1       17.465  47.353  15.194  0.00  0.00    -0.036 A 
ATOM     10  C   LIG    1       16.808  48.165  14.256  0.00  0.00    +0.006 A 
ATOM     11  C   LIG    1       15.741  47.670  13.492  0.00  0.00    +0.020 A 
ATOM     12  C   LIG    1       15.282  46.373  13.683  0.00  0.00    +0.041 A 
ATOM     13 CL   LIG    1       13.960  45.778  12.759  0.00  0.00    -0.084 Cl
ATOM     14  C   LIG    1       15.896  45.553  14.620  0.00  0.00    +0.020 A 
ATOM     15  C   LIG    1       16.987  46.033  15.349  0.00  0.00    +0.006 A 
ENDBRANCH   1   9
BRANCH   1  16
ATOM     16  C   LIG    1       19.955  48.299  15.227  0.00  0.00    +0.201 C 
ATOM     17 CL   LIG    1       20.492  47.029  14.046  0.00  0.00    -0.082 Cl
ATOM     18 CL   LIG    1       21.365  48.546  16.343  0.00  0.00    -0.082 Cl
ATOM     19 CL   LIG    1       19.759  49.825  14.289  0.00  0.00    -0.082 Cl
ENDBRANCH   1  16
TORSDOF 3
ENDMDL
MODEL 7
REMARK VINA RESULT:      -7.0      2.129      5.383
REMARK  Name = 
REMARK                            x       y       z     vdW  Elec       q    Type
REMARK                         _______ _______ _______ _____ _____    ______ ____
ROOT
ATOM      1  C   LIG    1       18.750  47.732  16.111  0.00  0.00    +0.100 C 
ENDROOT
BRANCH   1   6
ATOM      2 CL   LIG    1       16.705  51.015  20.833  0.00  0.00    -0.084 Cl
ATOM      3  C   LIG    1       17.322  50.092  19.520  0.00  0.00    +0.041 A 
ATOM      4  C   LIG    1       17.876  48.839  19.746  0.00  0.00    +0.020 A 
ATOM      5  C   LIG    1       18.374  48.078  18.676  0.00  0.00    +0.006 A 
ATOM      6  C   LIG    1       18.308  48.548  17.354  0.00  0.00    -0.036 A 
ATOM      7  C   LIG    1       17.735  49.824  17.163  0.00  0.00    +0.006 A 
ATOM      8  C   LIG    1       17.257  50.594  18.229  0.00  0.00    +0.020 A 
ENDBRANCH   1   6
BRANCH   1   9
ATOM      9  C   LIG    1       17.544  47.218  15.284  0.00  0.00    -0.036 A 
ATOM     10  C   LIG    1       17.017  45.921  15.388  0.00  0.00    +0.006 A 
ATOM     11  C   LIG    1       15.890  45.536  14.647  0.00  0.00    +0.020 A 
ATOM     12  C   LIG    1       15.299  46.422  13.755  0.00  0.00    +0.041 A 
ATOM     13 CL   LIG    1       13.931  45.939  12.834  0.00  0.00    -0.084 Cl
ATOM     14  C   LIG    1       15.811  47.705  13.614  0.00  0.00    +0.020 A 
ATOM     15  C   LIG    1       16.907  48.101  14.385  0.00  0.00    +0.006 A 
ENDBRANCH   1   9
BRANCH   1  16
ATOM     16  C   LIG    1       20.012  48.223  15.291  0.00  0.00    +0.201 C 
ATOM     17 CL   LIG    1       19.620  49.728  14.352  0.00  0.00    -0.082 Cl
ATOM     18 CL   LIG    1       20.486  46.989  14.047  0.00  0.00    -0.082 Cl
ATOM     19 CL   LIG    1       21.489  48.588  16.255  0.00  0.00    -0.082 Cl
ENDBRANCH   1  16
TORSDOF 3
ENDMDL
MODEL 8
REMARK VINA RESULT:      -6.7      2.350      6.132
REMARK  Name = 
REMARK                            x       y       z     vdW  Elec       q    Type
REMARK                         _______ _______ _______ _____ _____    ______ ____
ROOT
ATOM      1  C   LIG    1       19.390  48.083  15.874  0.00  0.00    +0.100 C 
ENDROOT
BRANCH   1   6
ATOM      2 CL   LIG    1       23.004  51.588  12.423  0.00  0.00    -0.084 Cl
ATOM      3  C   LIG    1       21.981  50.636  13.423  0.00  0.00    +0.041 A 
ATOM      4  C   LIG    1       20.652  50.994  13.609  0.00  0.00    +0.020 A 
ATOM      5  C   LIG    1       19.811  50.215  14.419  0.00  0.00    +0.006 A 
ATOM      6  C   LIG    1       20.277  49.046  15.043  0.00  0.00    -0.036 A 
ATOM      7  C   LIG    1       21.632  48.710  14.827  0.00  0.00    +0.006 A 
ATOM      8  C   LIG    1       22.479  49.496  14.038  0.00  0.00    +0.020 A 
ENDBRANCH   1   6
BRANCH   1   9
ATOM      9  C   LIG    1       18.692  48.801  17.058  0.00  0.00    -0.036 A 
ATOM     10  C   LIG    1       17.842  49.908  16.912  0.00  0.00    +0.006 A 
ATOM     11  C   LIG    1       17.200  50.479  18.021  0.00  0.00    +0.020 A 
ATOM     12  C   LIG    1       17.433  49.985  19.299  0.00  0.00    +0.041 A 
ATOM     13 CL   LIG    1       16.661  50.702  20.657  0.00  0.00    -0.084 Cl
ATOM     14  C   LIG    1       18.286  48.905  19.477  0.00  0.00    +0.020 A 
ATOM     15  C   LIG    1       18.889  48.309  18.367  0.00  0.00    +0.006 A 
ENDBRANCH   1   9
BRANCH   1  16
ATOM     16  C   LIG    1       18.541  46.986  15.112  0.00  0.00    +0.201 C 
ATOM     17 CL   LIG    1       19.581  46.067  13.941  0.00  0.00    -0.082 Cl
ATOM     18 CL   LIG    1       17.250  47.765  14.102  0.00  0.00    -0.082 Cl
ATOM     19 CL   LIG    1       17.725  45.759  16.148  0.00  0.00    -0.082 Cl
ENDBRANCH   1  16
TORSDOF 3
ENDMDL
MODEL 9
REMARK VINA RESULT:      -6.6      2.086      5.572
REMARK  Name = 
REMARK                            x       y       z     vdW  Elec       q    Type
REMARK                         _______ _______ _______ _____ _____    ______ ____
ROOT
ATOM      1  C   LIG    1       17.754  48.458  17.181  0.00  0.00    +0.100 C 
ENDROOT
BRANCH   1   6
ATOM      2 CL   LIG    1       23.711  49.493  16.342  0.00  0.00    -0.084 Cl
ATOM      3  C   LIG    1       22.025  49.220  16.538  0.00  0.00    +0.041 A 
ATOM      4  C   LIG    1       21.346  48.379  15.667  0.00  0.00    +0.020 A 
ATOM      5  C   LIG    1       19.971  48.147  15.828  0.00  0.00    +0.006 A 
ATOM      6  C   LIG    1       19.250  48.736  16.880  0.00  0.00    -0.036 A 
ATOM      7  C   LIG    1       19.975  49.581  17.749  0.00  0.00    +0.006 A 
ATOM      8  C   LIG    1       21.341  49.832  17.579  0.00  0.00    +0.020 A 
ENDBRANCH   1   6
BRANCH   1   9
ATOM      9  C   LIG    1       17.057  47.684  16.033  0.00  0.00    -0.036 A 
ATOM     10  C   LIG    1       16.793  46.306  16.063  0.00  0.00    +0.006 A 
ATOM     11  C   LIG    1       16.112  45.675  15.011  0.00  0.00    +0.020 A 
ATOM     12  C   LIG    1       15.724  46.401  13.891  0.00  0.00    +0.041 A 
ATOM     13 CL   LIG    1       14.909  45.620  12.596  0.00  0.00    -0.084 Cl
ATOM     14  C   LIG    1       15.991  47.761  13.822  0.00  0.00    +0.020 A 
ATOM     15  C   LIG    1       16.630  48.396  14.891  0.00  0.00    +0.006 A 
ENDBRANCH   1   9
BRANCH   1  16
ATOM     16  C   LIG    1       17.338  48.061  18.656  0.00  0.00    +0.201 C 
ATOM     17 CL   LIG    1       18.262  46.600  19.213  0.00  0.00    -0.082 Cl
ATOM     18 CL   LIG    1       15.590  47.578  18.719  0.00  0.00    -0.082 Cl
ATOM     19 CL   LIG    1       17.575  49.330  19.912  0.00  0.00    -0.082 Cl
ENDBRANCH   1  16
TORSDOF 3
ENDMDL
