REMARK  Name = 
REMARK                            x       y       z     vdW  Elec       q    Type
REMARK                         _______ _______ _______ _____ _____    ______ ____
ROOT
ATOM      1  C   LIG    1        6.953   0.097  -0.414  0.00  0.00    +0.100 C 
ENDROOT
BRANCH   1   6
ATOM      2 CL   LIG    1        0.903   0.033   0.394  0.00  0.00    -0.084 Cl
ATOM      3  C   LIG    1        2.612   0.038   0.209  0.00  0.00    +0.041 A 
ATOM      4  C   LIG    1        3.333  -1.142   0.336  0.00  0.00    +0.020 A 
ATOM      5  C   LIG    1        4.728  -1.144   0.178  0.00  0.00    +0.006 A 
ATOM      6  C   LIG    1        5.429   0.033  -0.133  0.00  0.00    -0.036 A 
ATOM      7  C   LIG    1        4.662   1.212  -0.259  0.00  0.00    +0.006 A 
ATOM      8  C   LIG    1        3.274   1.222  -0.081  0.00  0.00    +0.020 A 
ENDBRANCH   1   6
BRANCH   1   9
ATOM      9  C   LIG    1        7.708   0.961   0.628  0.00  0.00    -0.036 A 
ATOM     10  C   LIG    1        8.417   0.434   1.719  0.00  0.00    +0.006 A 
ATOM     11  C   LIG    1        9.122   1.270   2.597  0.00  0.00    +0.020 A 
ATOM     12  C   LIG    1        9.093   2.649   2.429  0.00  0.00    +0.041 A 
ATOM     13 CL   LIG    1        9.941   3.671   3.520  0.00  0.00    -0.084 Cl
ATOM     14  C   LIG    1        8.382   3.202   1.373  0.00  0.00    +0.020 A 
ATOM     15  C   LIG    1        7.717   2.365   0.473  0.00  0.00    +0.006 A 
ENDBRANCH   1   9
BRANCH   1  16
ATOM     16  C   LIG    1        7.688  -1.214  -0.911  0.00  0.00    +0.201 C 
ATOM     17 CL   LIG    1        9.388  -0.840  -1.429  0.00  0.00    -0.082 Cl
ATOM     18 CL   LIG    1        6.871  -1.884  -2.387  0.00  0.00    -0.082 Cl
ATOM     19 CL   LIG    1        7.797  -2.559   0.282  0.00  0.00    -0.082 Cl
ENDBRANCH   1  16
TORSDOF 3
