MODEL 1
REMARK VINA RESULT:      -3.9      0.000      0.000
REMARK  Name = 
REMARK                            x       y       z     vdW  Elec       q    Type
REMARK                         _______ _______ _______ _____ _____    ______ ____
ROOT
ATOM      1  O   LIG    1        0.745  -1.722  19.711  0.00  0.00    -0.275 OA
ATOM      2  C   LIG    1       -0.021  -0.837  20.068  0.00  0.00    +0.228 C 
ATOM      3  C   LIG    1       -0.262   0.444  19.311  0.00  0.00    +0.172 C 
ATOM      4  S   LIG    1       -1.479   1.369  20.290  0.00  0.00    -0.093 S 
ATOM      5  C   LIG    1       -1.583   0.135  21.516  0.00  0.00    +0.113 C 
ATOM      6  S   LIG    1       -2.532   0.180  22.872  0.00  0.00    -0.028 S 
ATOM      7  N   LIG    1       -0.762  -0.901  21.213  0.00  0.00    -0.274 N 
ATOM      8  H   LIG    1       -0.692  -1.710  21.814  0.00  0.00    +0.156 HD
ENDROOT
TORSDOF 0
ENDMDL
MODEL 2
REMARK VINA RESULT:      -3.7      2.869      3.630
REMARK  Name = 
REMARK                            x       y       z     vdW  Elec       q    Type
REMARK                         _______ _______ _______ _____ _____    ______ ____
ROOT
ATOM      1  O   LIG    1       -3.168   0.373  23.494  0.00  0.00    -0.275 OA
ATOM      2  C   LIG    1       -2.328   0.145  22.634  0.00  0.00    +0.228 C 
ATOM      3  C   LIG    1       -1.574  -1.152  22.495  0.00  0.00    +0.172 C 
ATOM      4  S   LIG    1       -0.477  -0.929  21.066  0.00  0.00    -0.093 S 
ATOM      5  C   LIG    1       -1.022   0.699  20.771  0.00  0.00    +0.113 C 
ATOM      6  S   LIG    1       -0.495   1.705  19.567  0.00  0.00    -0.028 S 
ATOM      7  N   LIG    1       -1.964   1.053  21.681  0.00  0.00    -0.274 N 
ATOM      8  H   LIG    1       -2.395   1.966  21.664  0.00  0.00    +0.156 HD
ENDROOT
TORSDOF 0
ENDMDL
MODEL 3
REMARK VINA RESULT:      -3.4      8.584      8.959
REMARK  Name = 
REMARK                            x       y       z     vdW  Elec       q    Type
REMARK                         _______ _______ _______ _____ _____    ______ ____
ROOT
ATOM      1  O   LIG    1       -3.547  -4.151  16.751  0.00  0.00    -0.275 OA
ATOM      2  C   LIG    1       -4.351  -4.348  15.850  0.00  0.00    +0.228 C 
ATOM      3  C   LIG    1       -5.833  -4.090  15.952  0.00  0.00    +0.172 C 
ATOM      4  S   LIG    1       -6.522  -4.552  14.338  0.00  0.00    -0.093 S 
ATOM      5  C   LIG    1       -4.971  -5.015  13.692  0.00  0.00    +0.113 C 
ATOM      6  S   LIG    1       -4.678  -5.596  12.171  0.00  0.00    -0.028 S 
ATOM      7  N   LIG    1       -4.001  -4.834  14.623  0.00  0.00    -0.274 N 
ATOM      8  H   LIG    1       -3.035  -5.051  14.424  0.00  0.00    +0.156 HD
ENDROOT
TORSDOF 0
ENDMDL
MODEL 4
REMARK VINA RESULT:      -3.4      8.751      8.951
REMARK  Name = 
REMARK                            x       y       z     vdW  Elec       q    Type
REMARK                         _______ _______ _______ _____ _____    ______ ____
ROOT
ATOM      1  O   LIG    1       -3.623  -4.358  16.445  0.00  0.00    -0.275 OA
ATOM      2  C   LIG    1       -4.291  -4.502  15.430  0.00  0.00    +0.228 C 
ATOM      3  C   LIG    1       -3.719  -4.715  14.051  0.00  0.00    +0.172 C 
ATOM      4  S   LIG    1       -5.152  -4.866  12.946  0.00  0.00    -0.093 S 
ATOM      5  C   LIG    1       -6.301  -4.656  14.239  0.00  0.00    +0.113 C 
ATOM      6  S   LIG    1       -7.950  -4.658  14.092  0.00  0.00    -0.028 S 
ATOM      7  N   LIG    1       -5.656  -4.486  15.420  0.00  0.00    -0.274 N 
ATOM      8  H   LIG    1       -6.165  -4.349  16.281  0.00  0.00    +0.156 HD
ENDROOT
TORSDOF 0
ENDMDL
MODEL 5
REMARK VINA RESULT:      -3.4      9.844     10.023
REMARK  Name = 
REMARK                            x       y       z     vdW  Elec       q    Type
REMARK                         _______ _______ _______ _____ _____    ______ ____
ROOT
ATOM      1  O   LIG    1       -6.635  -4.768  16.925  0.00  0.00    -0.275 OA
ATOM      2  C   LIG    1       -6.786  -4.460  15.751  0.00  0.00    +0.228 C 
ATOM      3  C   LIG    1       -5.665  -4.109  14.806  0.00  0.00    +0.172 C 
ATOM      4  S   LIG    1       -6.461  -3.745  13.216  0.00  0.00    -0.093 S 
ATOM      5  C   LIG    1       -8.063  -4.044  13.833  0.00  0.00    +0.113 C 
ATOM      6  S   LIG    1       -9.477  -3.929  12.980  0.00  0.00    -0.028 S 
ATOM      7  N   LIG    1       -8.006  -4.395  15.142  0.00  0.00    -0.274 N 
ATOM      8  H   LIG    1       -8.843  -4.606  15.666  0.00  0.00    +0.156 HD
ENDROOT
TORSDOF 0
ENDMDL
MODEL 6
REMARK VINA RESULT:      -3.4      8.925      9.130
REMARK  Name = 
REMARK                            x       y       z     vdW  Elec       q    Type
REMARK                         _______ _______ _______ _____ _____    ______ ____
ROOT
ATOM      1  O   LIG    1       -3.530  -4.694  14.193  0.00  0.00    -0.275 OA
ATOM      2  C   LIG    1       -4.654  -4.567  14.657  0.00  0.00    +0.228 C 
ATOM      3  C   LIG    1       -4.971  -4.501  16.130  0.00  0.00    +0.172 C 
ATOM      4  S   LIG    1       -6.773  -4.308  16.233  0.00  0.00    -0.093 S 
ATOM      5  C   LIG    1       -6.979  -4.328  14.503  0.00  0.00    +0.113 C 
ATOM      6  S   LIG    1       -8.412  -4.198  13.687  0.00  0.00    -0.028 S 
ATOM      7  N   LIG    1       -5.778  -4.468  13.888  0.00  0.00    -0.274 N 
ATOM      8  H   LIG    1       -5.704  -4.500  12.881  0.00  0.00    +0.156 HD
ENDROOT
TORSDOF 0
ENDMDL
MODEL 7
REMARK VINA RESULT:      -3.3     14.015     14.378
REMARK  Name = 
REMARK                            x       y       z     vdW  Elec       q    Type
REMARK                         _______ _______ _______ _____ _____    ______ ____
ROOT
ATOM      1  O   LIG    1       -8.063  -2.249   9.056  0.00  0.00    -0.275 OA
ATOM      2  C   LIG    1       -7.971  -3.467   9.000  0.00  0.00    +0.228 C 
ATOM      3  C   LIG    1       -8.861  -4.357   8.170  0.00  0.00    +0.172 C 
ATOM      4  S   LIG    1       -8.273  -6.049   8.465  0.00  0.00    -0.093 S 
ATOM      5  C   LIG    1       -7.018  -5.532   9.557  0.00  0.00    +0.113 C 
ATOM      6  S   LIG    1       -5.937  -6.512  10.340  0.00  0.00    -0.028 S 
ATOM      7  N   LIG    1       -7.036  -4.182   9.692  0.00  0.00    -0.274 N 
ATOM      8  H   LIG    1       -6.376  -3.705  10.289  0.00  0.00    +0.156 HD
ENDROOT
TORSDOF 0
ENDMDL
MODEL 8
REMARK VINA RESULT:      -3.3      9.057      9.151
REMARK  Name = 
REMARK                            x       y       z     vdW  Elec       q    Type
REMARK                         _______ _______ _______ _____ _____    ______ ____
ROOT
ATOM      1  O   LIG    1       -5.476  -4.650  11.954  0.00  0.00    -0.275 OA
ATOM      2  C   LIG    1       -5.273  -4.631  13.160  0.00  0.00    +0.228 C 
ATOM      3  C   LIG    1       -3.910  -4.688  13.801  0.00  0.00    +0.172 C 
ATOM      4  S   LIG    1       -4.208  -4.626  15.591  0.00  0.00    -0.093 S 
ATOM      5  C   LIG    1       -5.938  -4.542  15.404  0.00  0.00    +0.113 C 
ATOM      6  S   LIG    1       -7.051  -4.455  16.626  0.00  0.00    -0.028 S 
ATOM      7  N   LIG    1       -6.271  -4.558  14.089  0.00  0.00    -0.274 N 
ATOM      8  H   LIG    1       -7.235  -4.515  13.791  0.00  0.00    +0.156 HD
ENDROOT
TORSDOF 0
ENDMDL
MODEL 9
REMARK VINA RESULT:      -3.2     11.165     11.305
REMARK  Name = 
REMARK                            x       y       z     vdW  Elec       q    Type
REMARK                         _______ _______ _______ _____ _____    ______ ____
ROOT
ATOM      1  O   LIG    1      -10.542  -3.902  12.857  0.00  0.00    -0.275 OA
ATOM      2  C   LIG    1       -9.327  -3.956  12.987  0.00  0.00    +0.228 C 
ATOM      3  C   LIG    1       -8.340  -3.934  11.848  0.00  0.00    +0.172 C 
ATOM      4  S   LIG    1       -6.700  -4.036  12.619  0.00  0.00    -0.093 S 
ATOM      5  C   LIG    1       -7.350  -4.098  14.234  0.00  0.00    +0.113 C 
ATOM      6  S   LIG    1       -6.477  -4.207  15.637  0.00  0.00    -0.028 S 
ATOM      7  N   LIG    1       -8.705  -4.045  14.200  0.00  0.00    -0.274 N 
ATOM      8  H   LIG    1       -9.254  -4.070  15.047  0.00  0.00    +0.156 HD
ENDROOT
TORSDOF 0
ENDMDL
