MODEL 1
REMARK VINA RESULT:      -3.8      0.000      0.000
REMARK  Name = 
REMARK                            x       y       z     vdW  Elec       q    Type
REMARK                         _______ _______ _______ _____ _____    ______ ____
ROOT
ATOM      1  O   LIG    1       44.624  -5.798  15.650  0.00  0.00    -0.275 OA
ATOM      2  C   LIG    1       44.095  -4.778  16.070  0.00  0.00    +0.228 C 
ATOM      3  C   LIG    1       44.693  -3.870  17.113  0.00  0.00    +0.172 C 
ATOM      4  S   LIG    1       43.489  -2.530  17.343  0.00  0.00    -0.093 S 
ATOM      5  C   LIG    1       42.381  -3.187  16.170  0.00  0.00    +0.113 C 
ATOM      6  S   LIG    1       40.921  -2.540  15.735  0.00  0.00    -0.028 S 
ATOM      7  N   LIG    1       42.879  -4.332  15.640  0.00  0.00    -0.274 N 
ATOM      8  H   LIG    1       42.369  -4.852  14.940  0.00  0.00    +0.156 HD
ENDROOT
TORSDOF 0
ENDMDL
MODEL 2
REMARK VINA RESULT:      -3.7      3.884      4.370
REMARK  Name = 
REMARK                            x       y       z     vdW  Elec       q    Type
REMARK                         _______ _______ _______ _____ _____    ______ ____
ROOT
ATOM      1  O   LIG    1       48.388  -2.685  15.053  0.00  0.00    -0.275 OA
ATOM      2  C   LIG    1       47.853  -2.993  16.110  0.00  0.00    +0.228 C 
ATOM      3  C   LIG    1       48.305  -4.121  17.002  0.00  0.00    +0.172 C 
ATOM      4  S   LIG    1       47.162  -4.116  18.412  0.00  0.00    -0.093 S 
ATOM      5  C   LIG    1       46.248  -2.765  17.799  0.00  0.00    +0.113 C 
ATOM      6  S   LIG    1       44.934  -2.064  18.521  0.00  0.00    -0.028 S 
ATOM      7  N   LIG    1       46.765  -2.344  16.617  0.00  0.00    -0.274 N 
ATOM      8  H   LIG    1       46.361  -1.567  16.115  0.00  0.00    +0.156 HD
ENDROOT
TORSDOF 0
ENDMDL
MODEL 3
REMARK VINA RESULT:      -3.7      2.444      3.158
REMARK  Name = 
REMARK                            x       y       z     vdW  Elec       q    Type
REMARK                         _______ _______ _______ _____ _____    ______ ____
ROOT
ATOM      1  O   LIG    1       40.514  -2.751  15.604  0.00  0.00    -0.275 OA
ATOM      2  C   LIG    1       41.639  -2.930  16.051  0.00  0.00    +0.228 C 
ATOM      3  C   LIG    1       42.297  -2.060  17.091  0.00  0.00    +0.172 C 
ATOM      4  S   LIG    1       43.935  -2.790  17.373  0.00  0.00    -0.093 S 
ATOM      5  C   LIG    1       43.679  -4.067  16.216  0.00  0.00    +0.113 C 
ATOM      6  S   LIG    1       44.754  -5.263  15.826  0.00  0.00    -0.028 S 
ATOM      7  N   LIG    1       42.448  -3.956  15.656  0.00  0.00    -0.274 N 
ATOM      8  H   LIG    1       42.127  -4.614  14.961  0.00  0.00    +0.156 HD
ENDROOT
TORSDOF 0
ENDMDL
MODEL 4
REMARK VINA RESULT:      -3.7      1.928      2.390
REMARK  Name = 
REMARK                            x       y       z     vdW  Elec       q    Type
REMARK                         _______ _______ _______ _____ _____    ______ ____
ROOT
ATOM      1  O   LIG    1       46.044  -5.147  17.262  0.00  0.00    -0.275 OA
ATOM      2  C   LIG    1       45.076  -4.419  17.088  0.00  0.00    +0.228 C 
ATOM      3  C   LIG    1       44.029  -4.625  16.024  0.00  0.00    +0.172 C 
ATOM      4  S   LIG    1       42.846  -3.264  16.233  0.00  0.00    -0.093 S 
ATOM      5  C   LIG    1       43.719  -2.574  17.573  0.00  0.00    +0.113 C 
ATOM      6  S   LIG    1       43.298  -1.214  18.418  0.00  0.00    -0.028 S 
ATOM      7  N   LIG    1       44.822  -3.314  17.848  0.00  0.00    -0.274 N 
ATOM      8  H   LIG    1       45.450  -3.062  18.598  0.00  0.00    +0.156 HD
ENDROOT
TORSDOF 0
ENDMDL
MODEL 5
REMARK VINA RESULT:      -3.6      3.079      3.755
REMARK  Name = 
REMARK                            x       y       z     vdW  Elec       q    Type
REMARK                         _______ _______ _______ _____ _____    ______ ____
ROOT
ATOM      1  O   LIG    1       42.219  -2.889  16.606  0.00  0.00    -0.275 OA
ATOM      2  C   LIG    1       43.169  -2.618  17.329  0.00  0.00    +0.228 C 
ATOM      3  C   LIG    1       43.242  -1.416  18.235  0.00  0.00    +0.172 C 
ATOM      4  S   LIG    1       44.855  -1.523  19.060  0.00  0.00    -0.093 S 
ATOM      5  C   LIG    1       45.293  -2.996  18.240  0.00  0.00    +0.113 C 
ATOM      6  S   LIG    1       46.708  -3.835  18.423  0.00  0.00    -0.028 S 
ATOM      7  N   LIG    1       44.297  -3.384  17.404  0.00  0.00    -0.274 N 
ATOM      8  H   LIG    1       44.377  -4.221  16.845  0.00  0.00    +0.156 HD
ENDROOT
TORSDOF 0
ENDMDL
MODEL 6
REMARK VINA RESULT:      -3.6      3.496      3.656
REMARK  Name = 
REMARK                            x       y       z     vdW  Elec       q    Type
REMARK                         _______ _______ _______ _____ _____    ______ ____
ROOT
ATOM      1  O   LIG    1       47.319  -4.130  19.647  0.00  0.00    -0.275 OA
ATOM      2  C   LIG    1       46.407  -3.796  18.903  0.00  0.00    +0.228 C 
ATOM      3  C   LIG    1       46.055  -4.490  17.613  0.00  0.00    +0.172 C 
ATOM      4  S   LIG    1       44.637  -3.580  16.939  0.00  0.00    -0.093 S 
ATOM      5  C   LIG    1       44.601  -2.450  18.265  0.00  0.00    +0.113 C 
ATOM      6  S   LIG    1       43.538  -1.195  18.452  0.00  0.00    -0.028 S 
ATOM      7  N   LIG    1       45.584  -2.736  19.155  0.00  0.00    -0.274 N 
ATOM      8  H   LIG    1       45.714  -2.183  19.990  0.00  0.00    +0.156 HD
ENDROOT
TORSDOF 0
ENDMDL
MODEL 7
REMARK VINA RESULT:      -3.6      3.197      3.598
REMARK  Name = 
REMARK                            x       y       z     vdW  Elec       q    Type
REMARK                         _______ _______ _______ _____ _____    ______ ____
ROOT
ATOM      1  O   LIG    1       42.803  -0.915  18.693  0.00  0.00    -0.275 OA
ATOM      2  C   LIG    1       43.616  -1.760  18.345  0.00  0.00    +0.228 C 
ATOM      3  C   LIG    1       45.011  -1.888  18.901  0.00  0.00    +0.172 C 
ATOM      4  S   LIG    1       45.757  -3.297  18.033  0.00  0.00    -0.093 S 
ATOM      5  C   LIG    1       44.328  -3.599  17.082  0.00  0.00    +0.113 C 
ATOM      6  S   LIG    1       44.141  -4.793  15.951  0.00  0.00    -0.028 S 
ATOM      7  N   LIG    1       43.357  -2.706  17.395  0.00  0.00    -0.274 N 
ATOM      8  H   LIG    1       42.455  -2.731  16.941  0.00  0.00    +0.156 HD
ENDROOT
TORSDOF 0
ENDMDL
MODEL 8
REMARK VINA RESULT:      -3.5      3.362      4.130
REMARK  Name = 
REMARK                            x       y       z     vdW  Elec       q    Type
REMARK                         _______ _______ _______ _____ _____    ______ ____
ROOT
ATOM      1  O   LIG    1       43.401  -1.915  14.624  0.00  0.00    -0.275 OA
ATOM      2  C   LIG    1       44.294  -2.649  15.026  0.00  0.00    +0.228 C 
ATOM      3  C   LIG    1       44.074  -4.005  15.645  0.00  0.00    +0.172 C 
ATOM      4  S   LIG    1       45.729  -4.634  16.045  0.00  0.00    -0.093 S 
ATOM      5  C   LIG    1       46.529  -3.211  15.436  0.00  0.00    +0.113 C 
ATOM      6  S   LIG    1       48.162  -2.939  15.417  0.00  0.00    -0.028 S 
ATOM      7  N   LIG    1       45.618  -2.324  14.963  0.00  0.00    -0.274 N 
ATOM      8  H   LIG    1       45.903  -1.439  14.569  0.00  0.00    +0.156 HD
ENDROOT
TORSDOF 0
ENDMDL
MODEL 9
REMARK VINA RESULT:      -3.5      3.013      3.123
REMARK  Name = 
REMARK                            x       y       z     vdW  Elec       q    Type
REMARK                         _______ _______ _______ _____ _____    ______ ____
ROOT
ATOM      1  O   LIG    1       48.035  -3.171  16.869  0.00  0.00    -0.275 OA
ATOM      2  C   LIG    1       46.860  -2.887  17.055  0.00  0.00    +0.228 C 
ATOM      3  C   LIG    1       46.125  -3.089  18.355  0.00  0.00    +0.172 C 
ATOM      4  S   LIG    1       44.435  -2.495  18.059  0.00  0.00    -0.093 S 
ATOM      5  C   LIG    1       44.767  -2.063  16.404  0.00  0.00    +0.113 C 
ATOM      6  S   LIG    1       43.694  -1.403  15.331  0.00  0.00    -0.028 S 
ATOM      7  N   LIG    1       46.058  -2.343  16.094  0.00  0.00    -0.274 N 
ATOM      8  H   LIG    1       46.429  -2.157  15.173  0.00  0.00    +0.156 HD
ENDROOT
TORSDOF 0
ENDMDL
