MODEL 1
REMARK VINA RESULT:      -3.4      0.000      0.000
REMARK  Name = 
REMARK                            x       y       z     vdW  Elec       q    Type
REMARK                         _______ _______ _______ _____ _____    ______ ____
ROOT
ATOM      1  O   LIG    1       27.136  -3.770  27.453  0.00  0.00    -0.275 OA
ATOM      2  C   LIG    1       27.964  -2.920  27.154  0.00  0.00    +0.228 C 
ATOM      3  C   LIG    1       27.637  -1.588  26.528  0.00  0.00    +0.172 C 
ATOM      4  S   LIG    1       29.230  -0.746  26.311  0.00  0.00    -0.093 S 
ATOM      5  C   LIG    1       30.139  -2.070  26.987  0.00  0.00    +0.113 C 
ATOM      6  S   LIG    1       31.782  -2.133  27.175  0.00  0.00    -0.028 S 
ATOM      7  N   LIG    1       29.305  -3.075  27.353  0.00  0.00    -0.274 N 
ATOM      8  H   LIG    1       29.659  -3.927  27.766  0.00  0.00    +0.156 HD
ENDROOT
TORSDOF 0
ENDMDL
MODEL 2
REMARK VINA RESULT:      -3.3      2.632      3.076
REMARK  Name = 
REMARK                            x       y       z     vdW  Elec       q    Type
REMARK                         _______ _______ _______ _____ _____    ______ ____
ROOT
ATOM      1  O   LIG    1       25.318  -0.662  26.595  0.00  0.00    -0.275 OA
ATOM      2  C   LIG    1       26.523  -0.664  26.806  0.00  0.00    +0.228 C 
ATOM      3  C   LIG    1       27.456  -1.790  26.439  0.00  0.00    +0.172 C 
ATOM      4  S   LIG    1       29.105  -1.254  26.978  0.00  0.00    -0.093 S 
ATOM      5  C   LIG    1       28.521   0.267  27.596  0.00  0.00    +0.113 C 
ATOM      6  S   LIG    1       29.434   1.447  28.313  0.00  0.00    -0.028 S 
ATOM      7  N   LIG    1       27.181   0.369  27.410  0.00  0.00    -0.274 N 
ATOM      8  H   LIG    1       26.670   1.187  27.708  0.00  0.00    +0.156 HD
ENDROOT
TORSDOF 0
ENDMDL
MODEL 3
REMARK VINA RESULT:      -3.3      3.229      3.539
REMARK  Name = 
REMARK                            x       y       z     vdW  Elec       q    Type
REMARK                         _______ _______ _______ _____ _____    ______ ____
ROOT
ATOM      1  O   LIG    1       29.350   0.940  28.434  0.00  0.00    -0.275 OA
ATOM      2  C   LIG    1       28.458   0.228  27.992  0.00  0.00    +0.228 C 
ATOM      3  C   LIG    1       27.176   0.737  27.385  0.00  0.00    +0.172 C 
ATOM      4  S   LIG    1       26.241  -0.742  26.904  0.00  0.00    -0.093 S 
ATOM      5  C   LIG    1       27.472  -1.833  27.478  0.00  0.00    +0.113 C 
ATOM      6  S   LIG    1       27.418  -3.486  27.422  0.00  0.00    -0.028 S 
ATOM      7  N   LIG    1       28.515  -1.136  27.995  0.00  0.00    -0.274 N 
ATOM      8  H   LIG    1       29.324  -1.607  28.376  0.00  0.00    +0.156 HD
ENDROOT
TORSDOF 0
ENDMDL
MODEL 4
REMARK VINA RESULT:      -3.3      2.255      2.421
REMARK  Name = 
REMARK                            x       y       z     vdW  Elec       q    Type
REMARK                         _______ _______ _______ _____ _____    ______ ____
ROOT
ATOM      1  O   LIG    1       25.532  -0.742  26.449  0.00  0.00    -0.275 OA
ATOM      2  C   LIG    1       26.674  -0.554  26.845  0.00  0.00    +0.228 C 
ATOM      3  C   LIG    1       27.182   0.747  27.411  0.00  0.00    +0.172 C 
ATOM      4  S   LIG    1       28.923   0.450  27.832  0.00  0.00    -0.093 S 
ATOM      5  C   LIG    1       28.879  -1.204  27.288  0.00  0.00    +0.113 C 
ATOM      6  S   LIG    1       30.140  -2.277  27.315  0.00  0.00    -0.028 S 
ATOM      7  N   LIG    1       27.644  -1.515  26.823  0.00  0.00    -0.274 N 
ATOM      8  H   LIG    1       27.433  -2.436  26.465  0.00  0.00    +0.156 HD
ENDROOT
TORSDOF 0
ENDMDL
MODEL 5
REMARK VINA RESULT:      -3.3      6.147      6.958
REMARK  Name = 
REMARK                            x       y       z     vdW  Elec       q    Type
REMARK                         _______ _______ _______ _____ _____    ______ ____
ROOT
ATOM      1  O   LIG    1       35.222   2.206  27.639  0.00  0.00    -0.275 OA
ATOM      2  C   LIG    1       34.308   1.844  28.368  0.00  0.00    +0.228 C 
ATOM      3  C   LIG    1       34.490   1.287  29.757  0.00  0.00    +0.172 C 
ATOM      4  S   LIG    1       32.817   0.927  30.362  0.00  0.00    -0.093 S 
ATOM      5  C   LIG    1       32.057   1.476  28.894  0.00  0.00    +0.113 C 
ATOM      6  S   LIG    1       30.431   1.494  28.582  0.00  0.00    -0.028 S 
ATOM      7  N   LIG    1       32.993   1.902  28.009  0.00  0.00    -0.274 N 
ATOM      8  H   LIG    1       32.733   2.256  27.100  0.00  0.00    +0.156 HD
ENDROOT
TORSDOF 0
ENDMDL
MODEL 6
REMARK VINA RESULT:      -3.2      2.216      2.447
REMARK  Name = 
REMARK                            x       y       z     vdW  Elec       q    Type
REMARK                         _______ _______ _______ _____ _____    ______ ____
ROOT
ATOM      1  O   LIG    1       25.530  -0.681  26.640  0.00  0.00    -0.275 OA
ATOM      2  C   LIG    1       26.612  -1.205  26.866  0.00  0.00    +0.228 C 
ATOM      3  C   LIG    1       26.809  -2.432  27.719  0.00  0.00    +0.172 C 
ATOM      4  S   LIG    1       28.595  -2.757  27.703  0.00  0.00    -0.093 S 
ATOM      5  C   LIG    1       28.939  -1.390  26.679  0.00  0.00    +0.113 C 
ATOM      6  S   LIG    1       30.432  -0.923  26.139  0.00  0.00    -0.028 S 
ATOM      7  N   LIG    1       27.793  -0.734  26.368  0.00  0.00    -0.274 N 
ATOM      8  H   LIG    1       27.801   0.087  25.780  0.00  0.00    +0.156 HD
ENDROOT
TORSDOF 0
ENDMDL
MODEL 7
REMARK VINA RESULT:      -3.2      2.388      2.686
REMARK  Name = 
REMARK                            x       y       z     vdW  Elec       q    Type
REMARK                         _______ _______ _______ _____ _____    ______ ____
ROOT
ATOM      1  O   LIG    1       29.684  -2.652  28.099  0.00  0.00    -0.275 OA
ATOM      2  C   LIG    1       30.418  -2.180  27.241  0.00  0.00    +0.228 C 
ATOM      3  C   LIG    1       30.500  -0.716  26.894  0.00  0.00    +0.172 C 
ATOM      4  S   LIG    1       31.738  -0.596  25.571  0.00  0.00    -0.093 S 
ATOM      5  C   LIG    1       32.039  -2.312  25.556  0.00  0.00    +0.113 C 
ATOM      6  S   LIG    1       33.105  -3.110  24.573  0.00  0.00    -0.028 S 
ATOM      7  N   LIG    1       31.265  -2.934  26.481  0.00  0.00    -0.274 N 
ATOM      8  H   LIG    1       31.307  -3.935  26.613  0.00  0.00    +0.156 HD
ENDROOT
TORSDOF 0
ENDMDL
MODEL 8
REMARK VINA RESULT:      -3.1      3.239      3.965
REMARK  Name = 
REMARK                            x       y       z     vdW  Elec       q    Type
REMARK                         _______ _______ _______ _____ _____    ______ ____
ROOT
ATOM      1  O   LIG    1       33.176  -3.241  24.984  0.00  0.00    -0.275 OA
ATOM      2  C   LIG    1       32.472  -2.551  25.709  0.00  0.00    +0.228 C 
ATOM      3  C   LIG    1       32.747  -1.110  26.051  0.00  0.00    +0.172 C 
ATOM      4  S   LIG    1       31.391  -0.599  27.144  0.00  0.00    -0.093 S 
ATOM      5  C   LIG    1       30.623  -2.162  27.092  0.00  0.00    +0.113 C 
ATOM      6  S   LIG    1       29.228  -2.593  27.871  0.00  0.00    -0.028 S 
ATOM      7  N   LIG    1       31.333  -3.010  26.307  0.00  0.00    -0.274 N 
ATOM      8  H   LIG    1       31.035  -3.964  26.160  0.00  0.00    +0.156 HD
ENDROOT
TORSDOF 0
ENDMDL
MODEL 9
REMARK VINA RESULT:      -3.1      2.536      3.231
REMARK  Name = 
REMARK                            x       y       z     vdW  Elec       q    Type
REMARK                         _______ _______ _______ _____ _____    ______ ____
ROOT
ATOM      1  O   LIG    1       32.101  -2.417  27.065  0.00  0.00    -0.275 OA
ATOM      2  C   LIG    1       30.942  -2.064  27.232  0.00  0.00    +0.228 C 
ATOM      3  C   LIG    1       30.501  -0.637  27.437  0.00  0.00    +0.172 C 
ATOM      4  S   LIG    1       28.697  -0.705  27.626  0.00  0.00    -0.093 S 
ATOM      5  C   LIG    1       28.640  -2.437  27.444  0.00  0.00    +0.113 C 
ATOM      6  S   LIG    1       27.281  -3.381  27.491  0.00  0.00    -0.028 S 
ATOM      7  N   LIG    1       29.888  -2.932  27.254  0.00  0.00    -0.274 N 
ATOM      8  H   LIG    1       30.047  -3.922  27.129  0.00  0.00    +0.156 HD
ENDROOT
TORSDOF 0
ENDMDL
