MODEL 1
REMARK VINA RESULT:      -3.9      0.000      0.000
REMARK  Name = 
REMARK                            x       y       z     vdW  Elec       q    Type
REMARK                         _______ _______ _______ _____ _____    ______ ____
ROOT
ATOM      1  O   LIG    1       71.465  53.304  87.358  0.00  0.00    -0.275 OA
ATOM      2  C   LIG    1       70.823  54.130  87.994  0.00  0.00    +0.228 C 
ATOM      3  C   LIG    1       71.401  55.386  88.595  0.00  0.00    +0.172 C 
ATOM      4  S   LIG    1       70.010  56.221  89.409  0.00  0.00    -0.093 S 
ATOM      5  C   LIG    1       68.868  54.987  88.955  0.00  0.00    +0.113 C 
ATOM      6  S   LIG    1       67.254  54.964  89.322  0.00  0.00    -0.028 S 
ATOM      7  N   LIG    1       69.486  54.013  88.240  0.00  0.00    -0.274 N 
ATOM      8  H   LIG    1       68.976  53.214  87.892  0.00  0.00    +0.156 HD
ENDROOT
TORSDOF 0
ENDMDL
MODEL 2
REMARK VINA RESULT:      -3.8      3.032      3.782
REMARK  Name = 
REMARK                            x       y       z     vdW  Elec       q    Type
REMARK                         _______ _______ _______ _____ _____    ______ ____
ROOT
ATOM      1  O   LIG    1       66.621  55.171  90.064  0.00  0.00    -0.275 OA
ATOM      2  C   LIG    1       67.309  55.183  89.052  0.00  0.00    +0.228 C 
ATOM      3  C   LIG    1       66.929  55.870  87.766  0.00  0.00    +0.172 C 
ATOM      4  S   LIG    1       68.308  55.566  86.624  0.00  0.00    -0.093 S 
ATOM      5  C   LIG    1       69.208  54.641  87.795  0.00  0.00    +0.113 C 
ATOM      6  S   LIG    1       70.688  53.939  87.558  0.00  0.00    -0.028 S 
ATOM      7  N   LIG    1       68.524  54.566  88.963  0.00  0.00    -0.274 N 
ATOM      8  H   LIG    1       68.896  54.067  89.759  0.00  0.00    +0.156 HD
ENDROOT
TORSDOF 0
ENDMDL
MODEL 3
REMARK VINA RESULT:      -3.8      8.100      8.359
REMARK  Name = 
REMARK                            x       y       z     vdW  Elec       q    Type
REMARK                         _______ _______ _______ _____ _____    ______ ____
ROOT
ATOM      1  O   LIG    1       66.631  47.675  92.351  0.00  0.00    -0.275 OA
ATOM      2  C   LIG    1       67.509  48.298  92.932  0.00  0.00    +0.228 C 
ATOM      3  C   LIG    1       68.769  48.809  92.283  0.00  0.00    +0.172 C 
ATOM      4  S   LIG    1       69.691  49.651  93.601  0.00  0.00    -0.093 S 
ATOM      5  C   LIG    1       68.482  49.309  94.807  0.00  0.00    +0.113 C 
ATOM      6  S   LIG    1       68.537  49.750  96.401  0.00  0.00    -0.028 S 
ATOM      7  N   LIG    1       67.454  48.612  94.260  0.00  0.00    -0.274 N 
ATOM      8  H   LIG    1       66.660  48.325  94.814  0.00  0.00    +0.156 HD
ENDROOT
TORSDOF 0
ENDMDL
MODEL 4
REMARK VINA RESULT:      -3.6      2.464      3.119
REMARK  Name = 
REMARK                            x       y       z     vdW  Elec       q    Type
REMARK                         _______ _______ _______ _____ _____    ______ ____
ROOT
ATOM      1  O   LIG    1       72.924  51.563  86.766  0.00  0.00    -0.275 OA
ATOM      2  C   LIG    1       72.182  52.534  86.730  0.00  0.00    +0.228 C 
ATOM      3  C   LIG    1       71.408  52.978  85.515  0.00  0.00    +0.172 C 
ATOM      4  S   LIG    1       70.485  54.453  86.035  0.00  0.00    -0.093 S 
ATOM      5  C   LIG    1       71.115  54.401  87.658  0.00  0.00    +0.113 C 
ATOM      6  S   LIG    1       70.761  55.461  88.879  0.00  0.00    -0.028 S 
ATOM      7  N   LIG    1       71.959  53.349  87.803  0.00  0.00    -0.274 N 
ATOM      8  H   LIG    1       72.419  53.162  88.682  0.00  0.00    +0.156 HD
ENDROOT
TORSDOF 0
ENDMDL
MODEL 5
REMARK VINA RESULT:      -3.6      7.831      8.328
REMARK  Name = 
REMARK                            x       y       z     vdW  Elec       q    Type
REMARK                         _______ _______ _______ _____ _____    ______ ____
ROOT
ATOM      1  O   LIG    1       68.873  49.163  91.502  0.00  0.00    -0.275 OA
ATOM      2  C   LIG    1       68.329  48.957  92.579  0.00  0.00    +0.228 C 
ATOM      3  C   LIG    1       67.111  48.090  92.772  0.00  0.00    +0.172 C 
ATOM      4  S   LIG    1       66.750  48.143  94.550  0.00  0.00    -0.093 S 
ATOM      5  C   LIG    1       68.091  49.200  94.895  0.00  0.00    +0.113 C 
ATOM      6  S   LIG    1       68.517  49.786  96.384  0.00  0.00    -0.028 S 
ATOM      7  N   LIG    1       68.766  49.494  93.756  0.00  0.00    -0.274 N 
ATOM      8  H   LIG    1       69.576  50.097  93.765  0.00  0.00    +0.156 HD
ENDROOT
TORSDOF 0
ENDMDL
MODEL 6
REMARK VINA RESULT:      -3.6     10.106     10.461
REMARK  Name = 
REMARK                            x       y       z     vdW  Elec       q    Type
REMARK                         _______ _______ _______ _____ _____    ______ ____
ROOT
ATOM      1  O   LIG    1       69.773  47.642  98.691  0.00  0.00    -0.275 OA
ATOM      2  C   LIG    1       69.279  48.273  97.766  0.00  0.00    +0.228 C 
ATOM      3  C   LIG    1       67.891  48.860  97.775  0.00  0.00    +0.172 C 
ATOM      4  S   LIG    1       67.697  49.678  96.166  0.00  0.00    -0.093 S 
ATOM      5  C   LIG    1       69.295  49.237  95.632  0.00  0.00    +0.113 C 
ATOM      6  S   LIG    1       69.977  49.611  94.171  0.00  0.00    -0.028 S 
ATOM      7  N   LIG    1       69.934  48.526  96.595  0.00  0.00    -0.274 N 
ATOM      8  H   LIG    1       70.875  48.185  96.460  0.00  0.00    +0.156 HD
ENDROOT
TORSDOF 0
ENDMDL
MODEL 7
REMARK VINA RESULT:      -3.5     13.832     14.128
REMARK  Name = 
REMARK                            x       y       z     vdW  Elec       q    Type
REMARK                         _______ _______ _______ _____ _____    ______ ____
ROOT
ATOM      1  O   LIG    1       67.931  45.268 101.575  0.00  0.00    -0.275 OA
ATOM      2  C   LIG    1       68.235  45.965 100.616  0.00  0.00    +0.228 C 
ATOM      3  C   LIG    1       68.422  45.454  99.210  0.00  0.00    +0.172 C 
ATOM      4  S   LIG    1       68.857  46.909  98.216  0.00  0.00    -0.093 S 
ATOM      5  C   LIG    1       68.776  47.992  99.578  0.00  0.00    +0.113 C 
ATOM      6  S   LIG    1       69.056  49.623  99.549  0.00  0.00    -0.028 S 
ATOM      7  N   LIG    1       68.445  47.311 100.703  0.00  0.00    -0.274 N 
ATOM      8  H   LIG    1       68.352  47.779 101.593  0.00  0.00    +0.156 HD
ENDROOT
TORSDOF 0
ENDMDL
MODEL 8
REMARK VINA RESULT:      -3.4     10.663     10.945
REMARK  Name = 
REMARK                            x       y       z     vdW  Elec       q    Type
REMARK                         _______ _______ _______ _____ _____    ______ ____
ROOT
ATOM      1  O   LIG    1       70.183  47.708  94.334  0.00  0.00    -0.275 OA
ATOM      2  C   LIG    1       69.721  47.565  95.458  0.00  0.00    +0.228 C 
ATOM      3  C   LIG    1       68.802  46.444  95.871  0.00  0.00    +0.172 C 
ATOM      4  S   LIG    1       68.442  46.730  97.627  0.00  0.00    -0.093 S 
ATOM      5  C   LIG    1       69.424  48.168  97.701  0.00  0.00    +0.113 C 
ATOM      6  S   LIG    1       69.664  49.121  99.032  0.00  0.00    -0.028 S 
ATOM      7  N   LIG    1       69.985  48.417  96.492  0.00  0.00    -0.274 N 
ATOM      8  H   LIG    1       70.589  49.214  96.347  0.00  0.00    +0.156 HD
ENDROOT
TORSDOF 0
ENDMDL
MODEL 9
REMARK VINA RESULT:      -3.4      8.440      8.598
REMARK  Name = 
REMARK                            x       y       z     vdW  Elec       q    Type
REMARK                         _______ _______ _______ _____ _____    ______ ____
ROOT
ATOM      1  O   LIG    1       68.388  49.379  91.775  0.00  0.00    -0.275 OA
ATOM      2  C   LIG    1       68.847  48.996  92.843  0.00  0.00    +0.228 C 
ATOM      3  C   LIG    1       70.006  49.640  93.559  0.00  0.00    +0.172 C 
ATOM      4  S   LIG    1       70.246  48.669  95.074  0.00  0.00    -0.093 S 
ATOM      5  C   LIG    1       68.937  47.580  94.706  0.00  0.00    +0.113 C 
ATOM      6  S   LIG    1       68.439  46.301  95.632  0.00  0.00    -0.028 S 
ATOM      7  N   LIG    1       68.357  47.921  93.528  0.00  0.00    -0.274 N 
ATOM      8  H   LIG    1       67.578  47.398  93.155  0.00  0.00    +0.156 HD
ENDROOT
TORSDOF 0
ENDMDL
