MODEL 1
REMARK VINA RESULT:      -4.0      0.000      0.000
REMARK  Name = 
REMARK                            x       y       z     vdW  Elec       q    Type
REMARK                         _______ _______ _______ _____ _____    ______ ____
ROOT
ATOM      1  O   LIG    1       38.271  38.497   5.457  0.00  0.00    -0.275 OA
ATOM      2  C   LIG    1       37.970  37.317   5.337  0.00  0.00    +0.228 C 
ATOM      3  C   LIG    1       37.372  36.708   4.094  0.00  0.00    +0.172 C 
ATOM      4  S   LIG    1       37.137  34.949   4.477  0.00  0.00    -0.093 S 
ATOM      5  C   LIG    1       37.774  35.109   6.090  0.00  0.00    +0.113 C 
ATOM      6  S   LIG    1       37.928  33.896   7.206  0.00  0.00    -0.028 S 
ATOM      7  N   LIG    1       38.140  36.394   6.328  0.00  0.00    -0.274 N 
ATOM      8  H   LIG    1       38.531  36.673   7.216  0.00  0.00    +0.156 HD
ENDROOT
TORSDOF 0
ENDMDL
MODEL 2
REMARK VINA RESULT:      -3.7     13.030     13.597
REMARK  Name = 
REMARK                            x       y       z     vdW  Elec       q    Type
REMARK                         _______ _______ _______ _____ _____    ______ ____
ROOT
ATOM      1  O   LIG    1       43.254  24.592  14.045  0.00  0.00    -0.275 OA
ATOM      2  C   LIG    1       42.650  24.989  13.057  0.00  0.00    +0.228 C 
ATOM      3  C   LIG    1       41.151  24.979  12.908  0.00  0.00    +0.172 C 
ATOM      4  S   LIG    1       40.818  25.676  11.266  0.00  0.00    -0.093 S 
ATOM      5  C   LIG    1       42.507  25.912  10.910  0.00  0.00    +0.113 C 
ATOM      6  S   LIG    1       43.135  26.546   9.516  0.00  0.00    -0.028 S 
ATOM      7  N   LIG    1       43.271  25.497  11.952  0.00  0.00    -0.274 N 
ATOM      8  H   LIG    1       44.278  25.558  11.923  0.00  0.00    +0.156 HD
ENDROOT
TORSDOF 0
ENDMDL
MODEL 3
REMARK VINA RESULT:      -3.7     12.194     13.247
REMARK  Name = 
REMARK                            x       y       z     vdW  Elec       q    Type
REMARK                         _______ _______ _______ _____ _____    ______ ____
ROOT
ATOM      1  O   LIG    1       41.048  25.822  15.158  0.00  0.00    -0.275 OA
ATOM      2  C   LIG    1       41.390  25.829  13.983  0.00  0.00    +0.228 C 
ATOM      3  C   LIG    1       42.489  24.974  13.406  0.00  0.00    +0.172 C 
ATOM      4  S   LIG    1       42.556  25.392  11.640  0.00  0.00    -0.093 S 
ATOM      5  C   LIG    1       41.262  26.553  11.760  0.00  0.00    +0.113 C 
ATOM      6  S   LIG    1       40.645  27.461  10.522  0.00  0.00    -0.028 S 
ATOM      7  N   LIG    1       40.809  26.623  13.037  0.00  0.00    -0.274 N 
ATOM      8  H   LIG    1       40.057  27.247  13.294  0.00  0.00    +0.156 HD
ENDROOT
TORSDOF 0
ENDMDL
MODEL 4
REMARK VINA RESULT:      -3.7      4.525      5.168
REMARK  Name = 
REMARK                            x       y       z     vdW  Elec       q    Type
REMARK                         _______ _______ _______ _____ _____    ______ ____
ROOT
ATOM      1  O   LIG    1       36.175  34.138   9.268  0.00  0.00    -0.275 OA
ATOM      2  C   LIG    1       37.103  33.399   8.968  0.00  0.00    +0.228 C 
ATOM      3  C   LIG    1       37.712  33.303   7.592  0.00  0.00    +0.172 C 
ATOM      4  S   LIG    1       39.035  32.067   7.729  0.00  0.00    -0.093 S 
ATOM      5  C   LIG    1       38.732  31.779   9.420  0.00  0.00    +0.113 C 
ATOM      6  S   LIG    1       39.549  30.718  10.393  0.00  0.00    -0.028 S 
ATOM      7  N   LIG    1       37.709  32.557   9.855  0.00  0.00    -0.274 N 
ATOM      8  H   LIG    1       37.395  32.522  10.814  0.00  0.00    +0.156 HD
ENDROOT
TORSDOF 0
ENDMDL
MODEL 5
REMARK VINA RESULT:      -3.6      3.219      3.742
REMARK  Name = 
REMARK                            x       y       z     vdW  Elec       q    Type
REMARK                         _______ _______ _______ _____ _____    ______ ____
ROOT
ATOM      1  O   LIG    1       37.399  35.809   7.038  0.00  0.00    -0.275 OA
ATOM      2  C   LIG    1       37.728  34.677   7.367  0.00  0.00    +0.228 C 
ATOM      3  C   LIG    1       37.114  33.903   8.506  0.00  0.00    +0.172 C 
ATOM      4  S   LIG    1       37.976  32.306   8.532  0.00  0.00    -0.093 S 
ATOM      5  C   LIG    1       38.992  32.715   7.177  0.00  0.00    +0.113 C 
ATOM      6  S   LIG    1       40.153  31.751   6.498  0.00  0.00    -0.028 S 
ATOM      7  N   LIG    1       38.705  33.965   6.734  0.00  0.00    -0.274 N 
ATOM      8  H   LIG    1       39.198  34.371   5.951  0.00  0.00    +0.156 HD
ENDROOT
TORSDOF 0
ENDMDL
MODEL 6
REMARK VINA RESULT:      -3.6      5.983      6.478
REMARK  Name = 
REMARK                            x       y       z     vdW  Elec       q    Type
REMARK                         _______ _______ _______ _____ _____    ______ ____
ROOT
ATOM      1  O   LIG    1       34.356  37.862   0.954  0.00  0.00    -0.275 OA
ATOM      2  C   LIG    1       33.941  36.731   1.166  0.00  0.00    +0.228 C 
ATOM      3  C   LIG    1       33.285  36.285   2.447  0.00  0.00    +0.172 C 
ATOM      4  S   LIG    1       32.874  34.533   2.202  0.00  0.00    -0.093 S 
ATOM      5  C   LIG    1       33.531  34.499   0.588  0.00  0.00    +0.113 C 
ATOM      6  S   LIG    1       33.569  33.191  -0.425  0.00  0.00    -0.028 S 
ATOM      7  N   LIG    1       34.023  35.718   0.254  0.00  0.00    -0.274 N 
ATOM      8  H   LIG    1       34.445  35.885  -0.648  0.00  0.00    +0.156 HD
ENDROOT
TORSDOF 0
ENDMDL
MODEL 7
REMARK VINA RESULT:      -3.5     12.098     12.452
REMARK  Name = 
REMARK                            x       y       z     vdW  Elec       q    Type
REMARK                         _______ _______ _______ _____ _____    ______ ____
ROOT
ATOM      1  O   LIG    1       39.184  26.188   9.867  0.00  0.00    -0.275 OA
ATOM      2  C   LIG    1       40.196  25.998  10.528  0.00  0.00    +0.228 C 
ATOM      3  C   LIG    1       41.571  25.788   9.949  0.00  0.00    +0.172 C 
ATOM      4  S   LIG    1       42.673  25.561  11.374  0.00  0.00    -0.093 S 
ATOM      5  C   LIG    1       41.381  25.737  12.530  0.00  0.00    +0.113 C 
ATOM      6  S   LIG    1       41.526  25.659  14.177  0.00  0.00    -0.028 S 
ATOM      7  N   LIG    1       40.203  25.952  11.892  0.00  0.00    -0.274 N 
ATOM      8  H   LIG    1       39.343  26.077  12.406  0.00  0.00    +0.156 HD
ENDROOT
TORSDOF 0
ENDMDL
MODEL 8
REMARK VINA RESULT:      -3.5      5.042      6.003
REMARK  Name = 
REMARK                            x       y       z     vdW  Elec       q    Type
REMARK                         _______ _______ _______ _____ _____    ______ ____
ROOT
ATOM      1  O   LIG    1       41.203  30.122   5.239  0.00  0.00    -0.275 OA
ATOM      2  C   LIG    1       40.514  30.731   6.046  0.00  0.00    +0.228 C 
ATOM      3  C   LIG    1       40.084  30.191   7.386  0.00  0.00    +0.172 C 
ATOM      4  S   LIG    1       39.095  31.508   8.149  0.00  0.00    -0.093 S 
ATOM      5  C   LIG    1       39.286  32.580   6.789  0.00  0.00    +0.113 C 
ATOM      6  S   LIG    1       38.654  34.104   6.648  0.00  0.00    -0.028 S 
ATOM      7  N   LIG    1       40.041  31.993   5.828  0.00  0.00    -0.274 N 
ATOM      8  H   LIG    1       40.257  32.470   4.964  0.00  0.00    +0.156 HD
ENDROOT
TORSDOF 0
ENDMDL
MODEL 9
REMARK VINA RESULT:      -3.5      2.309      2.431
REMARK  Name = 
REMARK                            x       y       z     vdW  Elec       q    Type
REMARK                         _______ _______ _______ _____ _____    ______ ____
ROOT
ATOM      1  O   LIG    1       36.606  35.529   3.544  0.00  0.00    -0.275 OA
ATOM      2  C   LIG    1       37.187  35.401   4.614  0.00  0.00    +0.228 C 
ATOM      3  C   LIG    1       37.324  36.488   5.649  0.00  0.00    +0.172 C 
ATOM      4  S   LIG    1       38.265  35.747   7.014  0.00  0.00    -0.093 S 
ATOM      5  C   LIG    1       38.408  34.206   6.214  0.00  0.00    +0.113 C 
ATOM      6  S   LIG    1       39.176  32.864   6.806  0.00  0.00    -0.028 S 
ATOM      7  N   LIG    1       37.792  34.242   5.006  0.00  0.00    -0.274 N 
ATOM      8  H   LIG    1       37.774  33.434   4.401  0.00  0.00    +0.156 HD
ENDROOT
TORSDOF 0
ENDMDL
