MODEL 1
REMARK VINA RESULT:      -3.6      0.000      0.000
REMARK  Name = 
REMARK                            x       y       z     vdW  Elec       q    Type
REMARK                         _______ _______ _______ _____ _____    ______ ____
ROOT
ATOM      1  O   LIG    1        1.855   5.510  21.751  0.00  0.00    -0.275 OA
ATOM      2  C   LIG    1        2.425   4.430  21.673  0.00  0.00    +0.228 C 
ATOM      3  C   LIG    1        2.877   3.612  22.855  0.00  0.00    +0.172 C 
ATOM      4  S   LIG    1        3.649   2.126  22.155  0.00  0.00    -0.093 S 
ATOM      5  C   LIG    1        3.360   2.625  20.511  0.00  0.00    +0.113 C 
ATOM      6  S   LIG    1        3.781   1.788  19.146  0.00  0.00    -0.028 S 
ATOM      7  N   LIG    1        2.727   3.824  20.487  0.00  0.00    -0.274 N 
ATOM      8  H   LIG    1        2.478   4.270  19.615  0.00  0.00    +0.156 HD
ENDROOT
TORSDOF 0
ENDMDL
MODEL 2
REMARK VINA RESULT:      -3.6      7.341      7.676
REMARK  Name = 
REMARK                            x       y       z     vdW  Elec       q    Type
REMARK                         _______ _______ _______ _____ _____    ______ ____
ROOT
ATOM      1  O   LIG    1       -0.318  -2.834  27.122  0.00  0.00    -0.275 OA
ATOM      2  C   LIG    1        0.147  -2.822  25.990  0.00  0.00    +0.228 C 
ATOM      3  C   LIG    1        0.455  -4.054  25.178  0.00  0.00    +0.172 C 
ATOM      4  S   LIG    1        1.112  -3.446  23.599  0.00  0.00    -0.093 S 
ATOM      5  C   LIG    1        0.959  -1.773  24.061  0.00  0.00    +0.113 C 
ATOM      6  S   LIG    1        1.365  -0.461  23.137  0.00  0.00    -0.028 S 
ATOM      7  N   LIG    1        0.448  -1.675  25.314  0.00  0.00    -0.274 N 
ATOM      8  H   LIG    1        0.290  -0.777  25.748  0.00  0.00    +0.156 HD
ENDROOT
TORSDOF 0
ENDMDL
MODEL 3
REMARK VINA RESULT:      -3.5      2.595      3.190
REMARK  Name = 
REMARK                            x       y       z     vdW  Elec       q    Type
REMARK                         _______ _______ _______ _____ _____    ______ ____
ROOT
ATOM      1  O   LIG    1        3.760   1.361  19.478  0.00  0.00    -0.275 OA
ATOM      2  C   LIG    1        3.455   1.853  20.555  0.00  0.00    +0.228 C 
ATOM      3  C   LIG    1        3.642   1.178  21.890  0.00  0.00    +0.172 C 
ATOM      4  S   LIG    1        3.026   2.357  23.125  0.00  0.00    -0.093 S 
ATOM      5  C   LIG    1        2.600   3.547  21.927  0.00  0.00    +0.113 C 
ATOM      6  S   LIG    1        1.924   5.030  22.218  0.00  0.00    -0.028 S 
ATOM      7  N   LIG    1        2.899   3.094  20.684  0.00  0.00    -0.274 N 
ATOM      8  H   LIG    1        2.719   3.653  19.863  0.00  0.00    +0.156 HD
ENDROOT
TORSDOF 0
ENDMDL
MODEL 4
REMARK VINA RESULT:      -3.5      1.818      1.900
REMARK  Name = 
REMARK                            x       y       z     vdW  Elec       q    Type
REMARK                         _______ _______ _______ _____ _____    ______ ____
ROOT
ATOM      1  O   LIG    1        3.783   4.509  20.288  0.00  0.00    -0.275 OA
ATOM      2  C   LIG    1        3.583   3.544  21.015  0.00  0.00    +0.228 C 
ATOM      3  C   LIG    1        3.285   3.630  22.490  0.00  0.00    +0.172 C 
ATOM      4  S   LIG    1        3.078   1.914  23.047  0.00  0.00    -0.093 S 
ATOM      5  C   LIG    1        3.371   1.256  21.461  0.00  0.00    +0.113 C 
ATOM      6  S   LIG    1        3.372  -0.348  21.052  0.00  0.00    -0.028 S 
ATOM      7  N   LIG    1        3.608   2.253  20.572  0.00  0.00    -0.274 N 
ATOM      8  H   LIG    1        3.798   2.056  19.600  0.00  0.00    +0.156 HD
ENDROOT
TORSDOF 0
ENDMDL
MODEL 5
REMARK VINA RESULT:      -3.4      2.527      2.626
REMARK  Name = 
REMARK                            x       y       z     vdW  Elec       q    Type
REMARK                         _______ _______ _______ _____ _____    ______ ____
ROOT
ATOM      1  O   LIG    1        3.756   3.534  22.614  0.00  0.00    -0.275 OA
ATOM      2  C   LIG    1        3.423   2.384  22.358  0.00  0.00    +0.228 C 
ATOM      3  C   LIG    1        2.161   1.727  22.853  0.00  0.00    +0.172 C 
ATOM      4  S   LIG    1        2.185   0.045  22.170  0.00  0.00    -0.093 S 
ATOM      5  C   LIG    1        3.707   0.286  21.357  0.00  0.00    +0.113 C 
ATOM      6  S   LIG    1        4.512  -0.829  20.436  0.00  0.00    -0.028 S 
ATOM      7  N   LIG    1        4.167   1.543  21.581  0.00  0.00    -0.274 N 
ATOM      8  H   LIG    1        5.040   1.860  21.186  0.00  0.00    +0.156 HD
ENDROOT
TORSDOF 0
ENDMDL
MODEL 6
REMARK VINA RESULT:      -3.3      3.564      4.175
REMARK  Name = 
REMARK                            x       y       z     vdW  Elec       q    Type
REMARK                         _______ _______ _______ _____ _____    ______ ____
ROOT
ATOM      1  O   LIG    1        4.747  -0.399  20.527  0.00  0.00    -0.275 OA
ATOM      2  C   LIG    1        3.890   0.135  21.218  0.00  0.00    +0.228 C 
ATOM      3  C   LIG    1        2.612  -0.529  21.663  0.00  0.00    +0.172 C 
ATOM      4  S   LIG    1        1.736   0.714  22.655  0.00  0.00    -0.093 S 
ATOM      5  C   LIG    1        2.981   1.914  22.440  0.00  0.00    +0.113 C 
ATOM      6  S   LIG    1        2.978   3.449  23.058  0.00  0.00    -0.028 S 
ATOM      7  N   LIG    1        3.988   1.417  21.678  0.00  0.00    -0.274 N 
ATOM      8  H   LIG    1        4.798   1.975  21.449  0.00  0.00    +0.156 HD
ENDROOT
TORSDOF 0
ENDMDL
MODEL 7
REMARK VINA RESULT:      -3.3      2.294      2.801
REMARK  Name = 
REMARK                            x       y       z     vdW  Elec       q    Type
REMARK                         _______ _______ _______ _____ _____    ______ ____
ROOT
ATOM      1  O   LIG    1        2.861   4.469  23.505  0.00  0.00    -0.275 OA
ATOM      2  C   LIG    1        2.890   3.387  22.934  0.00  0.00    +0.228 C 
ATOM      3  C   LIG    1        3.726   3.082  21.717  0.00  0.00    +0.172 C 
ATOM      4  S   LIG    1        3.379   1.347  21.308  0.00  0.00    -0.093 S 
ATOM      5  C   LIG    1        2.262   1.151  22.631  0.00  0.00    +0.113 C 
ATOM      6  S   LIG    1        1.429  -0.227  23.012  0.00  0.00    -0.028 S 
ATOM      7  N   LIG    1        2.157   2.307  23.334  0.00  0.00    -0.274 N 
ATOM      8  H   LIG    1        1.551   2.379  24.139  0.00  0.00    +0.156 HD
ENDROOT
TORSDOF 0
ENDMDL
MODEL 8
REMARK VINA RESULT:      -3.2     12.551     13.088
REMARK  Name = 
REMARK                            x       y       z     vdW  Elec       q    Type
REMARK                         _______ _______ _______ _____ _____    ______ ____
ROOT
ATOM      1  O   LIG    1        7.090  -3.579  32.831  0.00  0.00    -0.275 OA
ATOM      2  C   LIG    1        7.592  -3.937  31.774  0.00  0.00    +0.228 C 
ATOM      3  C   LIG    1        8.981  -4.506  31.634  0.00  0.00    +0.172 C 
ATOM      4  S   LIG    1        9.188  -4.860  29.866  0.00  0.00    -0.093 S 
ATOM      5  C   LIG    1        7.593  -4.290  29.460  0.00  0.00    +0.113 C 
ATOM      6  S   LIG    1        6.922  -4.255  27.947  0.00  0.00    -0.028 S 
ATOM      7  N   LIG    1        6.946  -3.864  30.574  0.00  0.00    -0.274 N 
ATOM      8  H   LIG    1        6.006  -3.499  30.528  0.00  0.00    +0.156 HD
ENDROOT
TORSDOF 0
ENDMDL
MODEL 9
REMARK VINA RESULT:      -3.2      3.521      3.661
REMARK  Name = 
REMARK                            x       y       z     vdW  Elec       q    Type
REMARK                         _______ _______ _______ _____ _____    ______ ____
ROOT
ATOM      1  O   LIG    1        0.742  -0.399  23.519  0.00  0.00    -0.275 OA
ATOM      2  C   LIG    1        1.673   0.154  22.949  0.00  0.00    +0.228 C 
ATOM      3  C   LIG    1        2.353   1.408  23.437  0.00  0.00    +0.172 C 
ATOM      4  S   LIG    1        3.648   1.768  22.216  0.00  0.00    -0.093 S 
ATOM      5  C   LIG    1        3.251   0.384  21.235  0.00  0.00    +0.113 C 
ATOM      6  S   LIG    1        3.999  -0.064  19.828  0.00  0.00    -0.028 S 
ATOM      7  N   LIG    1        2.219  -0.303  21.784  0.00  0.00    -0.274 N 
ATOM      8  H   LIG    1        1.853  -1.138  21.349  0.00  0.00    +0.156 HD
ENDROOT
TORSDOF 0
ENDMDL
