MODEL 1
REMARK VINA RESULT:      -3.8      0.000      0.000
REMARK  Name = 
REMARK                            x       y       z     vdW  Elec       q    Type
REMARK                         _______ _______ _______ _____ _____    ______ ____
ROOT
ATOM      1  O   LIG    1       18.983   0.792  22.988  0.00  0.00    -0.275 OA
ATOM      2  C   LIG    1       18.524   1.926  23.004  0.00  0.00    +0.228 C 
ATOM      3  C   LIG    1       19.351   3.186  23.003  0.00  0.00    +0.172 C 
ATOM      4  S   LIG    1       18.158   4.554  23.028  0.00  0.00    -0.093 S 
ATOM      5  C   LIG    1       16.780   3.488  23.041  0.00  0.00    +0.113 C 
ATOM      6  S   LIG    1       15.190   3.946  23.067  0.00  0.00    -0.028 S 
ATOM      7  N   LIG    1       17.185   2.194  23.026  0.00  0.00    -0.274 N 
ATOM      8  H   LIG    1       16.519   1.435  23.030  0.00  0.00    +0.156 HD
ENDROOT
TORSDOF 0
ENDMDL
MODEL 2
REMARK VINA RESULT:      -3.8      2.468      3.095
REMARK  Name = 
REMARK                            x       y       z     vdW  Elec       q    Type
REMARK                         _______ _______ _______ _____ _____    ______ ____
ROOT
ATOM      1  O   LIG    1       15.481   3.501  23.470  0.00  0.00    -0.275 OA
ATOM      2  C   LIG    1       16.624   3.290  23.088  0.00  0.00    +0.228 C 
ATOM      3  C   LIG    1       17.588   4.358  22.639  0.00  0.00    +0.172 C 
ATOM      4  S   LIG    1       19.115   3.482  22.193  0.00  0.00    -0.093 S 
ATOM      5  C   LIG    1       18.453   1.918  22.585  0.00  0.00    +0.113 C 
ATOM      6  S   LIG    1       19.236   0.465  22.457  0.00  0.00    -0.028 S 
ATOM      7  N   LIG    1       17.175   2.043  23.021  0.00  0.00    -0.274 N 
ATOM      8  H   LIG    1       16.632   1.236  23.294  0.00  0.00    +0.156 HD
ENDROOT
TORSDOF 0
ENDMDL
MODEL 3
REMARK VINA RESULT:      -3.7      3.296      3.678
REMARK  Name = 
REMARK                            x       y       z     vdW  Elec       q    Type
REMARK                         _______ _______ _______ _____ _____    ______ ____
ROOT
ATOM      1  O   LIG    1       18.532   5.073  21.914  0.00  0.00    -0.275 OA
ATOM      2  C   LIG    1       18.529   4.851  23.117  0.00  0.00    +0.228 C 
ATOM      3  C   LIG    1       18.582   3.477  23.735  0.00  0.00    +0.172 C 
ATOM      4  S   LIG    1       18.555   3.746  25.530  0.00  0.00    -0.093 S 
ATOM      5  C   LIG    1       18.480   5.479  25.372  0.00  0.00    +0.113 C 
ATOM      6  S   LIG    1       18.419   6.573  26.613  0.00  0.00    -0.028 S 
ATOM      7  N   LIG    1       18.476   5.834  24.063  0.00  0.00    -0.274 N 
ATOM      8  H   LIG    1       18.436   6.803  23.781  0.00  0.00    +0.156 HD
ENDROOT
TORSDOF 0
ENDMDL
MODEL 4
REMARK VINA RESULT:      -3.7     12.808     13.567
REMARK  Name = 
REMARK                            x       y       z     vdW  Elec       q    Type
REMARK                         _______ _______ _______ _____ _____    ______ ____
ROOT
ATOM      1  O   LIG    1        7.135   9.801  27.462  0.00  0.00    -0.275 OA
ATOM      2  C   LIG    1        6.570   8.730  27.642  0.00  0.00    +0.228 C 
ATOM      3  C   LIG    1        5.341   8.542  28.493  0.00  0.00    +0.172 C 
ATOM      4  S   LIG    1        4.945   6.772  28.395  0.00  0.00    -0.093 S 
ATOM      5  C   LIG    1        6.292   6.424  27.346  0.00  0.00    +0.113 C 
ATOM      6  S   LIG    1        6.697   4.941  26.734  0.00  0.00    -0.028 S 
ATOM      7  N   LIG    1        6.991   7.557  27.085  0.00  0.00    -0.274 N 
ATOM      8  H   LIG    1        7.808   7.545  26.491  0.00  0.00    +0.156 HD
ENDROOT
TORSDOF 0
ENDMDL
MODEL 5
REMARK VINA RESULT:      -3.6      2.975      3.406
REMARK  Name = 
REMARK                            x       y       z     vdW  Elec       q    Type
REMARK                         _______ _______ _______ _____ _____    ______ ____
ROOT
ATOM      1  O   LIG    1       14.817   3.985  22.775  0.00  0.00    -0.275 OA
ATOM      2  C   LIG    1       15.850   3.864  23.418  0.00  0.00    +0.228 C 
ATOM      3  C   LIG    1       17.131   3.278  22.880  0.00  0.00    +0.172 C 
ATOM      4  S   LIG    1       18.316   3.350  24.253  0.00  0.00    -0.093 S 
ATOM      5  C   LIG    1       17.165   4.072  25.344  0.00  0.00    +0.113 C 
ATOM      6  S   LIG    1       17.444   4.496  26.920  0.00  0.00    -0.028 S 
ATOM      7  N   LIG    1       15.973   4.249  24.722  0.00  0.00    -0.274 N 
ATOM      8  H   LIG    1       15.185   4.657  25.204  0.00  0.00    +0.156 HD
ENDROOT
TORSDOF 0
ENDMDL
MODEL 6
REMARK VINA RESULT:      -3.6     13.550     13.977
REMARK  Name = 
REMARK                            x       y       z     vdW  Elec       q    Type
REMARK                         _______ _______ _______ _____ _____    ______ ____
ROOT
ATOM      1  O   LIG    1       10.360   1.782  37.328  0.00  0.00    -0.275 OA
ATOM      2  C   LIG    1       10.785   1.998  36.201  0.00  0.00    +0.228 C 
ATOM      3  C   LIG    1       11.995   2.839  35.888  0.00  0.00    +0.172 C 
ATOM      4  S   LIG    1       12.157   2.810  34.080  0.00  0.00    -0.093 S 
ATOM      5  C   LIG    1       10.757   1.795  33.868  0.00  0.00    +0.113 C 
ATOM      6  S   LIG    1       10.153   1.250  32.427  0.00  0.00    -0.028 S 
ATOM      7  N   LIG    1       10.205   1.496  35.071  0.00  0.00    -0.274 N 
ATOM      8  H   LIG    1        9.383   0.914  35.141  0.00  0.00    +0.156 HD
ENDROOT
TORSDOF 0
ENDMDL
MODEL 7
REMARK VINA RESULT:      -3.6      3.884      4.228
REMARK  Name = 
REMARK                            x       y       z     vdW  Elec       q    Type
REMARK                         _______ _______ _______ _____ _____    ______ ____
ROOT
ATOM      1  O   LIG    1       19.036   6.964  26.262  0.00  0.00    -0.275 OA
ATOM      2  C   LIG    1       18.509   6.019  25.692  0.00  0.00    +0.228 C 
ATOM      3  C   LIG    1       17.676   4.963  26.372  0.00  0.00    +0.172 C 
ATOM      4  S   LIG    1       17.157   3.826  25.055  0.00  0.00    -0.093 S 
ATOM      5  C   LIG    1       17.990   4.720  23.813  0.00  0.00    +0.113 C 
ATOM      6  S   LIG    1       18.039   4.344  22.202  0.00  0.00    -0.028 S 
ATOM      7  N   LIG    1       18.614   5.800  24.348  0.00  0.00    -0.274 N 
ATOM      8  H   LIG    1       19.149   6.435  23.774  0.00  0.00    +0.156 HD
ENDROOT
TORSDOF 0
ENDMDL
MODEL 8
REMARK VINA RESULT:      -3.5     12.308     12.857
REMARK  Name = 
REMARK                            x       y       z     vdW  Elec       q    Type
REMARK                         _______ _______ _______ _____ _____    ______ ____
ROOT
ATOM      1  O   LIG    1        7.635   4.929  26.568  0.00  0.00    -0.275 OA
ATOM      2  C   LIG    1        6.935   5.829  27.012  0.00  0.00    +0.228 C 
ATOM      3  C   LIG    1        5.675   5.620  27.813  0.00  0.00    +0.172 C 
ATOM      4  S   LIG    1        5.063   7.284  28.203  0.00  0.00    -0.093 S 
ATOM      5  C   LIG    1        6.372   8.074  27.368  0.00  0.00    +0.113 C 
ATOM      6  S   LIG    1        6.596   9.707  27.223  0.00  0.00    -0.028 S 
ATOM      7  N   LIG    1        7.213   7.154  26.833  0.00  0.00    -0.274 N 
ATOM      8  H   LIG    1        8.031   7.431  26.310  0.00  0.00    +0.156 HD
ENDROOT
TORSDOF 0
ENDMDL
MODEL 9
REMARK VINA RESULT:      -3.5      2.760      3.442
REMARK  Name = 
REMARK                            x       y       z     vdW  Elec       q    Type
REMARK                         _______ _______ _______ _____ _____    ______ ____
ROOT
ATOM      1  O   LIG    1       14.764   3.870  22.899  0.00  0.00    -0.275 OA
ATOM      2  C   LIG    1       15.889   3.885  23.381  0.00  0.00    +0.228 C 
ATOM      3  C   LIG    1       16.197   3.680  24.843  0.00  0.00    +0.172 C 
ATOM      4  S   LIG    1       18.003   3.800  24.983  0.00  0.00    -0.093 S 
ATOM      5  C   LIG    1       18.219   4.087  23.278  0.00  0.00    +0.113 C 
ATOM      6  S   LIG    1       19.661   4.325  22.501  0.00  0.00    -0.028 S 
ATOM      7  N   LIG    1       17.019   4.092  22.645  0.00  0.00    -0.274 N 
ATOM      8  H   LIG    1       16.952   4.244  21.649  0.00  0.00    +0.156 HD
ENDROOT
TORSDOF 0
ENDMDL
