MODEL 1
REMARK VINA RESULT:      -2.1      0.000      0.000
REMARK  Name = 
REMARK                            x       y       z     vdW  Elec       q    Type
REMARK                         _______ _______ _______ _____ _____    ______ ____
ROOT
ATOM      1  O   LIG    1       15.197  -0.895  49.939  0.00  0.00    -0.275 OA
ATOM      2  C   LIG    1       14.904   0.069  50.632  0.00  0.00    +0.228 C 
ATOM      3  C   LIG    1       13.496   0.536  50.900  0.00  0.00    +0.172 C 
ATOM      4  S   LIG    1       13.658   1.987  51.979  0.00  0.00    -0.093 S 
ATOM      5  C   LIG    1       15.398   1.900  52.007  0.00  0.00    +0.113 C 
ATOM      6  S   LIG    1       16.416   2.924  52.815  0.00  0.00    -0.028 S 
ATOM      7  N   LIG    1       15.830   0.854  51.258  0.00  0.00    -0.274 N 
ATOM      8  H   LIG    1       16.814   0.649  51.159  0.00  0.00    +0.156 HD
ENDROOT
TORSDOF 0
ENDMDL
MODEL 2
REMARK VINA RESULT:      -1.9      2.307      3.105
REMARK  Name = 
REMARK                            x       y       z     vdW  Elec       q    Type
REMARK                         _______ _______ _______ _____ _____    ______ ____
ROOT
ATOM      1  O   LIG    1       17.217   2.343  52.696  0.00  0.00    -0.275 OA
ATOM      2  C   LIG    1       16.156   1.939  52.238  0.00  0.00    +0.228 C 
ATOM      3  C   LIG    1       14.811   2.557  52.516  0.00  0.00    +0.172 C 
ATOM      4  S   LIG    1       13.613   1.561  51.584  0.00  0.00    -0.093 S 
ATOM      5  C   LIG    1       14.836   0.495  50.951  0.00  0.00    +0.113 C 
ATOM      6  S   LIG    1       14.585  -0.790  49.939  0.00  0.00    -0.028 S 
ATOM      7  N   LIG    1       16.061   0.860  51.405  0.00  0.00    -0.274 N 
ATOM      8  H   LIG    1       16.893   0.353  51.140  0.00  0.00    +0.156 HD
ENDROOT
TORSDOF 0
ENDMDL
MODEL 3
REMARK VINA RESULT:      -1.5      3.961      4.343
REMARK  Name = 
REMARK                            x       y       z     vdW  Elec       q    Type
REMARK                         _______ _______ _______ _____ _____    ______ ____
ROOT
ATOM      1  O   LIG    1       18.727   0.924  54.024  0.00  0.00    -0.275 OA
ATOM      2  C   LIG    1       18.326   1.806  53.277  0.00  0.00    +0.228 C 
ATOM      3  C   LIG    1       17.085   2.628  53.511  0.00  0.00    +0.172 C 
ATOM      4  S   LIG    1       16.983   3.770  52.103  0.00  0.00    -0.093 S 
ATOM      5  C   LIG    1       18.435   3.152  51.364  0.00  0.00    +0.113 C 
ATOM      6  S   LIG    1       19.109   3.673  49.945  0.00  0.00    -0.028 S 
ATOM      7  N   LIG    1       18.963   2.158  52.122  0.00  0.00    -0.274 N 
ATOM      8  H   LIG    1       19.810   1.682  51.847  0.00  0.00    +0.156 HD
ENDROOT
TORSDOF 0
ENDMDL
MODEL 4
REMARK VINA RESULT:      -1.4      4.350      5.237
REMARK  Name = 
REMARK                            x       y       z     vdW  Elec       q    Type
REMARK                         _______ _______ _______ _____ _____    ______ ____
ROOT
ATOM      1  O   LIG    1       21.189   3.092  51.113  0.00  0.00    -0.275 OA
ATOM      2  C   LIG    1       20.023   3.435  51.256  0.00  0.00    +0.228 C 
ATOM      3  C   LIG    1       19.516   4.842  51.069  0.00  0.00    +0.172 C 
ATOM      4  S   LIG    1       17.733   4.767  51.403  0.00  0.00    -0.093 S 
ATOM      5  C   LIG    1       17.764   3.058  51.739  0.00  0.00    +0.113 C 
ATOM      6  S   LIG    1       16.466   2.120  52.159  0.00  0.00    -0.028 S 
ATOM      7  N   LIG    1       19.024   2.574  51.608  0.00  0.00    -0.274 N 
ATOM      8  H   LIG    1       19.231   1.598  51.765  0.00  0.00    +0.156 HD
ENDROOT
TORSDOF 0
ENDMDL
MODEL 5
REMARK VINA RESULT:      -1.4      2.900      3.041
REMARK  Name = 
REMARK                            x       y       z     vdW  Elec       q    Type
REMARK                         _______ _______ _______ _____ _____    ______ ____
ROOT
ATOM      1  O   LIG    1       13.458   3.285  52.621  0.00  0.00    -0.275 OA
ATOM      2  C   LIG    1       13.950   2.195  52.364  0.00  0.00    +0.228 C 
ATOM      3  C   LIG    1       13.716   1.427  51.088  0.00  0.00    +0.172 C 
ATOM      4  S   LIG    1       14.685  -0.099  51.251  0.00  0.00    -0.093 S 
ATOM      5  C   LIG    1       15.278   0.324  52.834  0.00  0.00    +0.113 C 
ATOM      6  S   LIG    1       16.297  -0.583  53.772  0.00  0.00    -0.028 S 
ATOM      7  N   LIG    1       14.784   1.529  53.216  0.00  0.00    -0.274 N 
ATOM      8  H   LIG    1       15.022   1.935  54.109  0.00  0.00    +0.156 HD
ENDROOT
TORSDOF 0
ENDMDL
MODEL 6
REMARK VINA RESULT:      -1.4      5.383      5.936
REMARK  Name = 
REMARK                            x       y       z     vdW  Elec       q    Type
REMARK                         _______ _______ _______ _____ _____    ______ ____
ROOT
ATOM      1  O   LIG    1       17.739   2.629  51.519  0.00  0.00    -0.275 OA
ATOM      2  C   LIG    1       18.737   3.246  51.170  0.00  0.00    +0.228 C 
ATOM      3  C   LIG    1       18.719   4.518  50.361  0.00  0.00    +0.172 C 
ATOM      4  S   LIG    1       20.460   4.984  50.145  0.00  0.00    -0.093 S 
ATOM      5  C   LIG    1       21.046   3.610  51.041  0.00  0.00    +0.113 C 
ATOM      6  S   LIG    1       22.632   3.243  51.343  0.00  0.00    -0.028 S 
ATOM      7  N   LIG    1       20.008   2.852  51.475  0.00  0.00    -0.274 N 
ATOM      8  H   LIG    1       20.160   2.012  52.015  0.00  0.00    +0.156 HD
ENDROOT
TORSDOF 0
ENDMDL
MODEL 7
REMARK VINA RESULT:      -1.3      3.128      3.402
REMARK  Name = 
REMARK                            x       y       z     vdW  Elec       q    Type
REMARK                         _______ _______ _______ _____ _____    ______ ____
ROOT
ATOM      1  O   LIG    1       13.438   2.634  52.836  0.00  0.00    -0.275 OA
ATOM      2  C   LIG    1       14.657   2.677  52.739  0.00  0.00    +0.228 C 
ATOM      3  C   LIG    1       15.591   1.582  53.183  0.00  0.00    +0.172 C 
ATOM      4  S   LIG    1       17.262   2.179  52.799  0.00  0.00    -0.093 S 
ATOM      5  C   LIG    1       16.684   3.687  52.146  0.00  0.00    +0.113 C 
ATOM      6  S   LIG    1       17.617   4.907  51.527  0.00  0.00    -0.028 S 
ATOM      7  N   LIG    1       15.330   3.740  52.209  0.00  0.00    -0.274 N 
ATOM      8  H   LIG    1       14.820   4.545  51.873  0.00  0.00    +0.156 HD
ENDROOT
TORSDOF 0
ENDMDL
MODEL 8
REMARK VINA RESULT:      -1.3      5.095      5.577
REMARK  Name = 
REMARK                            x       y       z     vdW  Elec       q    Type
REMARK                         _______ _______ _______ _____ _____    ______ ____
ROOT
ATOM      1  O   LIG    1       17.386   3.204  51.996  0.00  0.00    -0.275 OA
ATOM      2  C   LIG    1       17.624   4.254  51.415  0.00  0.00    +0.228 C 
ATOM      3  C   LIG    1       18.818   4.490  50.525  0.00  0.00    +0.172 C 
ATOM      4  S   LIG    1       18.659   6.201  49.938  0.00  0.00    -0.093 S 
ATOM      5  C   LIG    1       17.180   6.474  50.816  0.00  0.00    +0.113 C 
ATOM      6  S   LIG    1       16.300   7.876  50.839  0.00  0.00    -0.028 S 
ATOM      7  N   LIG    1       16.826   5.359  51.503  0.00  0.00    -0.274 N 
ATOM      8  H   LIG    1       15.992   5.334  52.071  0.00  0.00    +0.156 HD
ENDROOT
TORSDOF 0
ENDMDL
MODEL 9
REMARK VINA RESULT:      -1.3      5.714      6.120
REMARK  Name = 
REMARK                            x       y       z     vdW  Elec       q    Type
REMARK                         _______ _______ _______ _____ _____    ______ ____
ROOT
ATOM      1  O   LIG    1       16.763   7.998  50.223  0.00  0.00    -0.275 OA
ATOM      2  C   LIG    1       17.033   6.903  50.697  0.00  0.00    +0.228 C 
ATOM      3  C   LIG    1       16.475   6.369  51.992  0.00  0.00    +0.172 C 
ATOM      4  S   LIG    1       17.208   4.721  52.196  0.00  0.00    -0.093 S 
ATOM      5  C   LIG    1       18.116   4.827  50.713  0.00  0.00    +0.113 C 
ATOM      6  S   LIG    1       19.125   3.668  50.099  0.00  0.00    -0.028 S 
ATOM      7  N   LIG    1       17.885   6.017  50.104  0.00  0.00    -0.274 N 
ATOM      8  H   LIG    1       18.330   6.254  49.229  0.00  0.00    +0.156 HD
ENDROOT
TORSDOF 0
ENDMDL
