MODEL 1
REMARK VINA RESULT:      -4.0      0.000      0.000
REMARK  Name = 
REMARK                            x       y       z     vdW  Elec       q    Type
REMARK                         _______ _______ _______ _____ _____    ______ ____
ROOT
ATOM      1  O   LIG    1       26.474  -0.582  17.383  0.00  0.00    -0.275 OA
ATOM      2  C   LIG    1       26.236   0.618  17.355  0.00  0.00    +0.228 C 
ATOM      3  C   LIG    1       26.299   1.532  18.551  0.00  0.00    +0.172 C 
ATOM      4  S   LIG    1       25.859   3.181  17.930  0.00  0.00    -0.093 S 
ATOM      5  C   LIG    1       25.636   2.619  16.296  0.00  0.00    +0.113 C 
ATOM      6  S   LIG    1       25.195   3.542  14.996  0.00  0.00    -0.028 S 
ATOM      7  N   LIG    1       25.877   1.286  16.219  0.00  0.00    -0.274 N 
ATOM      8  H   LIG    1       25.796   0.787  15.345  0.00  0.00    +0.156 HD
ENDROOT
TORSDOF 0
ENDMDL
MODEL 2
REMARK VINA RESULT:      -3.9      2.448      3.085
REMARK  Name = 
REMARK                            x       y       z     vdW  Elec       q    Type
REMARK                         _______ _______ _______ _____ _____    ______ ____
ROOT
ATOM      1  O   LIG    1       25.239   3.139  15.252  0.00  0.00    -0.275 OA
ATOM      2  C   LIG    1       25.612   2.581  16.275  0.00  0.00    +0.228 C 
ATOM      3  C   LIG    1       25.788   3.263  17.608  0.00  0.00    +0.172 C 
ATOM      4  S   LIG    1       26.348   1.967  18.749  0.00  0.00    -0.093 S 
ATOM      5  C   LIG    1       26.323   0.731  17.521  0.00  0.00    +0.113 C 
ATOM      6  S   LIG    1       26.724  -0.862  17.728  0.00  0.00    -0.028 S 
ATOM      7  N   LIG    1       25.920   1.253  16.336  0.00  0.00    -0.274 N 
ATOM      8  H   LIG    1       25.845   0.679  15.508  0.00  0.00    +0.156 HD
ENDROOT
TORSDOF 0
ENDMDL
MODEL 3
REMARK VINA RESULT:      -3.7      2.692      3.121
REMARK  Name = 
REMARK                            x       y       z     vdW  Elec       q    Type
REMARK                         _______ _______ _______ _____ _____    ______ ____
ROOT
ATOM      1  O   LIG    1       25.330   2.945  15.183  0.00  0.00    -0.275 OA
ATOM      2  C   LIG    1       25.655   2.745  16.346  0.00  0.00    +0.228 C 
ATOM      3  C   LIG    1       25.955   1.389  16.931  0.00  0.00    +0.172 C 
ATOM      4  S   LIG    1       26.379   1.691  18.671  0.00  0.00    -0.093 S 
ATOM      5  C   LIG    1       26.154   3.413  18.534  0.00  0.00    +0.113 C 
ATOM      6  S   LIG    1       26.349   4.524  19.746  0.00  0.00    -0.028 S 
ATOM      7  N   LIG    1       25.787   3.742  17.270  0.00  0.00    -0.274 N 
ATOM      8  H   LIG    1       25.612   4.701  17.007  0.00  0.00    +0.156 HD
ENDROOT
TORSDOF 0
ENDMDL
MODEL 4
REMARK VINA RESULT:      -3.5      2.456      2.620
REMARK  Name = 
REMARK                            x       y       z     vdW  Elec       q    Type
REMARK                         _______ _______ _______ _____ _____    ______ ____
ROOT
ATOM      1  O   LIG    1       26.045   3.946  19.748  0.00  0.00    -0.275 OA
ATOM      2  C   LIG    1       25.990   3.282  18.722  0.00  0.00    +0.228 C 
ATOM      3  C   LIG    1       26.228   1.795  18.649  0.00  0.00    +0.172 C 
ATOM      4  S   LIG    1       26.015   1.351  16.902  0.00  0.00    -0.093 S 
ATOM      5  C   LIG    1       25.664   2.989  16.422  0.00  0.00    +0.113 C 
ATOM      6  S   LIG    1       25.327   3.508  14.887  0.00  0.00    -0.028 S 
ATOM      7  N   LIG    1       25.702   3.814  17.498  0.00  0.00    -0.274 N 
ATOM      8  H   LIG    1       25.522   4.804  17.408  0.00  0.00    +0.156 HD
ENDROOT
TORSDOF 0
ENDMDL
MODEL 5
REMARK VINA RESULT:      -3.5      3.458      4.573
REMARK  Name = 
REMARK                            x       y       z     vdW  Elec       q    Type
REMARK                         _______ _______ _______ _____ _____    ______ ____
ROOT
ATOM      1  O   LIG    1       27.041  -1.310  17.561  0.00  0.00    -0.275 OA
ATOM      2  C   LIG    1       27.026  -0.623  18.574  0.00  0.00    +0.228 C 
ATOM      3  C   LIG    1       26.332   0.710  18.695  0.00  0.00    +0.172 C 
ATOM      4  S   LIG    1       26.635   1.265  20.397  0.00  0.00    -0.093 S 
ATOM      5  C   LIG    1       27.567  -0.150  20.803  0.00  0.00    +0.113 C 
ATOM      6  S   LIG    1       28.272  -0.471  22.265  0.00  0.00    -0.028 S 
ATOM      7  N   LIG    1       27.645  -0.984  19.736  0.00  0.00    -0.274 N 
ATOM      8  H   LIG    1       28.149  -1.858  19.788  0.00  0.00    +0.156 HD
ENDROOT
TORSDOF 0
ENDMDL
MODEL 6
REMARK VINA RESULT:      -3.4      6.431      7.066
REMARK  Name = 
REMARK                            x       y       z     vdW  Elec       q    Type
REMARK                         _______ _______ _______ _____ _____    ______ ____
ROOT
ATOM      1  O   LIG    1       31.829  -1.273  23.310  0.00  0.00    -0.275 OA
ATOM      2  C   LIG    1       30.778  -0.833  22.862  0.00  0.00    +0.228 C 
ATOM      3  C   LIG    1       29.417  -1.421  23.135  0.00  0.00    +0.172 C 
ATOM      4  S   LIG    1       28.242  -0.374  22.230  0.00  0.00    -0.093 S 
ATOM      5  C   LIG    1       29.492   0.668  21.607  0.00  0.00    +0.113 C 
ATOM      6  S   LIG    1       29.272   1.976  20.617  0.00  0.00    -0.028 S 
ATOM      7  N   LIG    1       30.709   0.260  22.048  0.00  0.00    -0.274 N 
ATOM      8  H   LIG    1       31.553   0.749  21.786  0.00  0.00    +0.156 HD
ENDROOT
TORSDOF 0
ENDMDL
MODEL 7
REMARK VINA RESULT:      -3.4      3.122      3.981
REMARK  Name = 
REMARK                            x       y       z     vdW  Elec       q    Type
REMARK                         _______ _______ _______ _____ _____    ______ ____
ROOT
ATOM      1  O   LIG    1       25.662   3.295  17.699  0.00  0.00    -0.275 OA
ATOM      2  C   LIG    1       25.993   2.138  17.920  0.00  0.00    +0.228 C 
ATOM      3  C   LIG    1       26.086   1.058  16.872  0.00  0.00    +0.172 C 
ATOM      4  S   LIG    1       26.619  -0.436  17.756  0.00  0.00    -0.093 S 
ATOM      5  C   LIG    1       26.678   0.373  19.298  0.00  0.00    +0.113 C 
ATOM      6  S   LIG    1       27.100  -0.310  20.745  0.00  0.00    -0.028 S 
ATOM      7  N   LIG    1       26.323   1.675  19.161  0.00  0.00    -0.274 N 
ATOM      8  H   LIG    1       26.301   2.299  19.955  0.00  0.00    +0.156 HD
ENDROOT
TORSDOF 0
ENDMDL
MODEL 8
REMARK VINA RESULT:      -3.3      5.770      6.266
REMARK  Name = 
REMARK                            x       y       z     vdW  Elec       q    Type
REMARK                         _______ _______ _______ _____ _____    ______ ____
ROOT
ATOM      1  O   LIG    1       31.772   0.263  22.403  0.00  0.00    -0.275 OA
ATOM      2  C   LIG    1       30.761   0.652  21.835  0.00  0.00    +0.228 C 
ATOM      3  C   LIG    1       30.636   1.972  21.117  0.00  0.00    +0.172 C 
ATOM      4  S   LIG    1       28.940   2.016  20.469  0.00  0.00    -0.093 S 
ATOM      5  C   LIG    1       28.540   0.452  21.122  0.00  0.00    +0.113 C 
ATOM      6  S   LIG    1       27.084  -0.323  20.984  0.00  0.00    -0.028 S 
ATOM      7  N   LIG    1       29.605  -0.071  21.780  0.00  0.00    -0.274 N 
ATOM      8  H   LIG    1       29.555  -0.977  22.225  0.00  0.00    +0.156 HD
ENDROOT
TORSDOF 0
ENDMDL
MODEL 9
REMARK VINA RESULT:      -3.3      6.614      7.322
REMARK  Name = 
REMARK                            x       y       z     vdW  Elec       q    Type
REMARK                         _______ _______ _______ _____ _____    ______ ____
ROOT
ATOM      1  O   LIG    1       30.383  -1.722  24.379  0.00  0.00    -0.275 OA
ATOM      2  C   LIG    1       30.382  -0.913  23.461  0.00  0.00    +0.228 C 
ATOM      3  C   LIG    1       31.607  -0.206  22.941  0.00  0.00    +0.172 C 
ATOM      4  S   LIG    1       31.021   0.859  21.593  0.00  0.00    -0.093 S 
ATOM      5  C   LIG    1       29.363   0.360  21.781  0.00  0.00    +0.113 C 
ATOM      6  S   LIG    1       28.074   0.887  20.886  0.00  0.00    -0.028 S 
ATOM      7  N   LIG    1       29.254  -0.546  22.786  0.00  0.00    -0.274 N 
ATOM      8  H   LIG    1       28.362  -0.947  23.037  0.00  0.00    +0.156 HD
ENDROOT
TORSDOF 0
ENDMDL
