MODEL 1
REMARK VINA RESULT:      -4.0      0.000      0.000
REMARK  Name = 
REMARK                            x       y       z     vdW  Elec       q    Type
REMARK                         _______ _______ _______ _____ _____    ______ ____
ROOT
ATOM      1  O   LIG    1       10.460  20.866  23.822  0.00  0.00    -0.275 OA
ATOM      2  C   LIG    1        9.586  21.225  24.600  0.00  0.00    +0.228 C 
ATOM      3  C   LIG    1        9.352  22.652  25.026  0.00  0.00    +0.172 C 
ATOM      4  S   LIG    1        7.946  22.596  26.172  0.00  0.00    -0.093 S 
ATOM      5  C   LIG    1        7.772  20.868  26.036  0.00  0.00    +0.113 C 
ATOM      6  S   LIG    1        6.647  19.933  26.811  0.00  0.00    -0.028 S 
ATOM      7  N   LIG    1        8.704  20.365  25.188  0.00  0.00    -0.274 N 
ATOM      8  H   LIG    1        8.753  19.377  24.987  0.00  0.00    +0.156 HD
ENDROOT
TORSDOF 0
ENDMDL
MODEL 2
REMARK VINA RESULT:      -3.9      3.402      4.344
REMARK  Name = 
REMARK                            x       y       z     vdW  Elec       q    Type
REMARK                         _______ _______ _______ _____ _____    ______ ____
ROOT
ATOM      1  O   LIG    1        7.914  20.268  30.206  0.00  0.00    -0.275 OA
ATOM      2  C   LIG    1        7.483  20.217  29.062  0.00  0.00    +0.228 C 
ATOM      3  C   LIG    1        6.113  19.713  28.685  0.00  0.00    +0.172 C 
ATOM      4  S   LIG    1        6.017  19.868  26.879  0.00  0.00    -0.093 S 
ATOM      5  C   LIG    1        7.627  20.519  26.745  0.00  0.00    +0.113 C 
ATOM      6  S   LIG    1        8.388  20.967  25.345  0.00  0.00    -0.028 S 
ATOM      7  N   LIG    1        8.200  20.615  27.971  0.00  0.00    -0.274 N 
ATOM      8  H   LIG    1        9.137  20.974  28.086  0.00  0.00    +0.156 HD
ENDROOT
TORSDOF 0
ENDMDL
MODEL 3
REMARK VINA RESULT:      -3.9      2.752      3.259
REMARK  Name = 
REMARK                            x       y       z     vdW  Elec       q    Type
REMARK                         _______ _______ _______ _____ _____    ______ ____
ROOT
ATOM      1  O   LIG    1        6.679  19.883  26.570  0.00  0.00    -0.275 OA
ATOM      2  C   LIG    1        7.422  20.753  26.135  0.00  0.00    +0.228 C 
ATOM      3  C   LIG    1        8.627  20.497  25.268  0.00  0.00    +0.172 C 
ATOM      4  S   LIG    1        9.339  22.131  24.924  0.00  0.00    -0.093 S 
ATOM      5  C   LIG    1        8.127  22.968  25.855  0.00  0.00    +0.113 C 
ATOM      6  S   LIG    1        8.027  24.604  26.083  0.00  0.00    -0.028 S 
ATOM      7  N   LIG    1        7.247  22.084  26.387  0.00  0.00    -0.274 N 
ATOM      8  H   LIG    1        6.474  22.392  26.958  0.00  0.00    +0.156 HD
ENDROOT
TORSDOF 0
ENDMDL
MODEL 4
REMARK VINA RESULT:      -3.8      2.441      3.166
REMARK  Name = 
REMARK                            x       y       z     vdW  Elec       q    Type
REMARK                         _______ _______ _______ _____ _____    ______ ____
ROOT
ATOM      1  O   LIG    1        6.587  19.515  26.876  0.00  0.00    -0.275 OA
ATOM      2  C   LIG    1        7.244  20.458  26.457  0.00  0.00    +0.228 C 
ATOM      3  C   LIG    1        6.994  21.901  26.812  0.00  0.00    +0.172 C 
ATOM      4  S   LIG    1        8.256  22.851  25.916  0.00  0.00    -0.093 S 
ATOM      5  C   LIG    1        8.963  21.429  25.198  0.00  0.00    +0.113 C 
ATOM      6  S   LIG    1       10.257  21.395  24.167  0.00  0.00    -0.028 S 
ATOM      7  N   LIG    1        8.300  20.317  25.603  0.00  0.00    -0.274 N 
ATOM      8  H   LIG    1        8.572  19.398  25.285  0.00  0.00    +0.156 HD
ENDROOT
TORSDOF 0
ENDMDL
MODEL 5
REMARK VINA RESULT:      -3.7      4.258      5.180
REMARK  Name = 
REMARK                            x       y       z     vdW  Elec       q    Type
REMARK                         _______ _______ _______ _____ _____    ______ ____
ROOT
ATOM      1  O   LIG    1        3.129  19.295  25.930  0.00  0.00    -0.275 OA
ATOM      2  C   LIG    1        3.939  19.739  26.732  0.00  0.00    +0.228 C 
ATOM      3  C   LIG    1        3.635  20.051  28.175  0.00  0.00    +0.172 C 
ATOM      4  S   LIG    1        5.189  20.671  28.879  0.00  0.00    -0.093 S 
ATOM      5  C   LIG    1        6.057  20.502  27.378  0.00  0.00    +0.113 C 
ATOM      6  S   LIG    1        7.649  20.872  27.122  0.00  0.00    -0.028 S 
ATOM      7  N   LIG    1        5.239  20.012  26.413  0.00  0.00    -0.274 N 
ATOM      8  H   LIG    1        5.573  19.848  25.475  0.00  0.00    +0.156 HD
ENDROOT
TORSDOF 0
ENDMDL
MODEL 6
REMARK VINA RESULT:      -3.5      2.896      3.554
REMARK  Name = 
REMARK                            x       y       z     vdW  Elec       q    Type
REMARK                         _______ _______ _______ _____ _____    ______ ____
ROOT
ATOM      1  O   LIG    1        8.478  20.858  25.908  0.00  0.00    -0.275 OA
ATOM      2  C   LIG    1        7.705  20.508  26.790  0.00  0.00    +0.228 C 
ATOM      3  C   LIG    1        6.316  19.973  26.550  0.00  0.00    +0.172 C 
ATOM      4  S   LIG    1        5.638  19.617  28.196  0.00  0.00    -0.093 S 
ATOM      5  C   LIG    1        7.081  20.146  29.017  0.00  0.00    +0.113 C 
ATOM      6  S   LIG    1        7.325  20.158  30.654  0.00  0.00    -0.028 S 
ATOM      7  N   LIG    1        8.009  20.560  28.120  0.00  0.00    -0.274 N 
ATOM      8  H   LIG    1        8.912  20.902  28.417  0.00  0.00    +0.156 HD
ENDROOT
TORSDOF 0
ENDMDL
MODEL 7
REMARK VINA RESULT:      -3.5     15.233     15.725
REMARK  Name = 
REMARK                            x       y       z     vdW  Elec       q    Type
REMARK                         _______ _______ _______ _____ _____    ______ ____
ROOT
ATOM      1  O   LIG    1       -4.424  25.574  26.511  0.00  0.00    -0.275 OA
ATOM      2  C   LIG    1       -5.054  25.864  27.519  0.00  0.00    +0.228 C 
ATOM      3  C   LIG    1       -5.283  24.936  28.685  0.00  0.00    +0.172 C 
ATOM      4  S   LIG    1       -6.265  25.885  29.880  0.00  0.00    -0.093 S 
ATOM      5  C   LIG    1       -6.312  27.304  28.870  0.00  0.00    +0.113 C 
ATOM      6  S   LIG    1       -7.062  28.736  29.229  0.00  0.00    -0.028 S 
ATOM      7  N   LIG    1       -5.637  27.083  27.715  0.00  0.00    -0.274 N 
ATOM      8  H   LIG    1       -5.559  27.799  27.007  0.00  0.00    +0.156 HD
ENDROOT
TORSDOF 0
ENDMDL
MODEL 8
REMARK VINA RESULT:      -3.4     10.287     11.235
REMARK  Name = 
REMARK                            x       y       z     vdW  Elec       q    Type
REMARK                         _______ _______ _______ _____ _____    ______ ____
ROOT
ATOM      1  O   LIG    1        2.688  19.211  35.188  0.00  0.00    -0.275 OA
ATOM      2  C   LIG    1        2.464  18.288  34.416  0.00  0.00    +0.228 C 
ATOM      3  C   LIG    1        1.486  17.171  34.677  0.00  0.00    +0.172 C 
ATOM      4  S   LIG    1        1.562  16.103  33.211  0.00  0.00    -0.093 S 
ATOM      5  C   LIG    1        2.761  17.093  32.424  0.00  0.00    +0.113 C 
ATOM      6  S   LIG    1        3.437  16.816  30.939  0.00  0.00    -0.028 S 
ATOM      7  N   LIG    1        3.082  18.154  33.206  0.00  0.00    -0.274 N 
ATOM      8  H   LIG    1        3.764  18.837  32.910  0.00  0.00    +0.156 HD
ENDROOT
TORSDOF 0
ENDMDL
MODEL 9
REMARK VINA RESULT:      -3.4      4.523      5.306
REMARK  Name = 
REMARK                            x       y       z     vdW  Elec       q    Type
REMARK                         _______ _______ _______ _____ _____    ______ ____
ROOT
ATOM      1  O   LIG    1        4.007  20.699  29.615  0.00  0.00    -0.275 OA
ATOM      2  C   LIG    1        5.181  20.563  29.298  0.00  0.00    +0.228 C 
ATOM      3  C   LIG    1        6.315  20.374  30.272  0.00  0.00    +0.172 C 
ATOM      4  S   LIG    1        7.812  20.225  29.256  0.00  0.00    -0.093 S 
ATOM      5  C   LIG    1        6.939  20.406  27.760  0.00  0.00    +0.113 C 
ATOM      6  S   LIG    1        7.591  20.391  26.238  0.00  0.00    -0.028 S 
ATOM      7  N   LIG    1        5.614  20.566  28.003  0.00  0.00    -0.274 N 
ATOM      8  H   LIG    1        4.952  20.686  27.250  0.00  0.00    +0.156 HD
ENDROOT
TORSDOF 0
ENDMDL
