MODEL 1
REMARK VINA RESULT:      -3.9      0.000      0.000
REMARK  Name = 
REMARK                            x       y       z     vdW  Elec       q    Type
REMARK                         _______ _______ _______ _____ _____    ______ ____
ROOT
ATOM      1  O   LIG    1       22.444 -18.060  18.581  0.00  0.00    -0.275 OA
ATOM      2  C   LIG    1       21.343 -17.533  18.673  0.00  0.00    +0.228 C 
ATOM      3  C   LIG    1       21.110 -16.106  19.098  0.00  0.00    +0.172 C 
ATOM      4  S   LIG    1       19.310 -15.871  19.052  0.00  0.00    -0.093 S 
ATOM      5  C   LIG    1       19.006 -17.506  18.532  0.00  0.00    +0.113 C 
ATOM      6  S   LIG    1       17.524 -18.177  18.231  0.00  0.00    -0.028 S 
ATOM      7  N   LIG    1       20.174 -18.183  18.400  0.00  0.00    -0.274 N 
ATOM      8  H   LIG    1       20.191 -19.149  18.105  0.00  0.00    +0.156 HD
ENDROOT
TORSDOF 0
ENDMDL
MODEL 2
REMARK VINA RESULT:      -3.9      2.502      3.074
REMARK  Name = 
REMARK                            x       y       z     vdW  Elec       q    Type
REMARK                         _______ _______ _______ _____ _____    ______ ____
ROOT
ATOM      1  O   LIG    1       18.024 -18.279  19.006  0.00  0.00    -0.275 OA
ATOM      2  C   LIG    1       19.089 -17.677  18.969  0.00  0.00    +0.228 C 
ATOM      3  C   LIG    1       19.253 -16.207  19.256  0.00  0.00    +0.172 C 
ATOM      4  S   LIG    1       21.025 -15.865  19.058  0.00  0.00    -0.093 S 
ATOM      5  C   LIG    1       21.402 -17.515  18.646  0.00  0.00    +0.113 C 
ATOM      6  S   LIG    1       22.902 -18.115  18.286  0.00  0.00    -0.028 S 
ATOM      7  N   LIG    1       20.277 -18.273  18.658  0.00  0.00    -0.274 N 
ATOM      8  H   LIG    1       20.306 -19.259  18.442  0.00  0.00    +0.156 HD
ENDROOT
TORSDOF 0
ENDMDL
MODEL 3
REMARK VINA RESULT:      -3.7      1.968      2.366
REMARK  Name = 
REMARK                            x       y       z     vdW  Elec       q    Type
REMARK                         _______ _______ _______ _____ _____    ______ ____
ROOT
ATOM      1  O   LIG    1       23.441 -19.788  18.152  0.00  0.00    -0.275 OA
ATOM      2  C   LIG    1       22.928 -18.690  18.313  0.00  0.00    +0.228 C 
ATOM      3  C   LIG    1       23.693 -17.405  18.500  0.00  0.00    +0.172 C 
ATOM      4  S   LIG    1       22.436 -16.109  18.688  0.00  0.00    -0.093 S 
ATOM      5  C   LIG    1       21.110 -17.229  18.528  0.00  0.00    +0.113 C 
ATOM      6  S   LIG    1       19.499 -16.853  18.586  0.00  0.00    -0.028 S 
ATOM      7  N   LIG    1       21.577 -18.489  18.345  0.00  0.00    -0.274 N 
ATOM      8  H   LIG    1       20.948 -19.271  18.233  0.00  0.00    +0.156 HD
ENDROOT
TORSDOF 0
ENDMDL
MODEL 4
REMARK VINA RESULT:      -3.7      3.041      3.432
REMARK  Name = 
REMARK                            x       y       z     vdW  Elec       q    Type
REMARK                         _______ _______ _______ _____ _____    ______ ____
ROOT
ATOM      1  O   LIG    1       19.381 -17.349  18.796  0.00  0.00    -0.275 OA
ATOM      2  C   LIG    1       20.602 -17.321  18.714  0.00  0.00    +0.228 C 
ATOM      3  C   LIG    1       21.448 -16.095  18.948  0.00  0.00    +0.172 C 
ATOM      4  S   LIG    1       23.164 -16.632  18.697  0.00  0.00    -0.093 S 
ATOM      5  C   LIG    1       22.707 -18.272  18.332  0.00  0.00    +0.113 C 
ATOM      6  S   LIG    1       23.735 -19.514  17.957  0.00  0.00    -0.028 S 
ATOM      7  N   LIG    1       21.359 -18.411  18.395  0.00  0.00    -0.274 N 
ATOM      8  H   LIG    1       20.913 -19.299  18.212  0.00  0.00    +0.156 HD
ENDROOT
TORSDOF 0
ENDMDL
MODEL 5
REMARK VINA RESULT:      -3.6     14.798     15.256
REMARK  Name = 
REMARK                            x       y       z     vdW  Elec       q    Type
REMARK                         _______ _______ _______ _____ _____    ______ ____
ROOT
ATOM      1  O   LIG    1       30.091 -21.563  25.909  0.00  0.00    -0.275 OA
ATOM      2  C   LIG    1       30.492 -22.599  26.420  0.00  0.00    +0.228 C 
ATOM      3  C   LIG    1       30.002 -23.153  27.734  0.00  0.00    +0.172 C 
ATOM      4  S   LIG    1       30.931 -24.691  27.993  0.00  0.00    -0.093 S 
ATOM      5  C   LIG    1       31.821 -24.525  26.505  0.00  0.00    +0.113 C 
ATOM      6  S   LIG    1       32.966 -25.572  25.928  0.00  0.00    -0.028 S 
ATOM      7  N   LIG    1       31.448 -23.394  25.855  0.00  0.00    -0.274 N 
ATOM      8  H   LIG    1       31.861 -23.136  24.971  0.00  0.00    +0.156 HD
ENDROOT
TORSDOF 0
ENDMDL
MODEL 6
REMARK VINA RESULT:      -3.5      2.166      2.557
REMARK  Name = 
REMARK                            x       y       z     vdW  Elec       q    Type
REMARK                         _______ _______ _______ _____ _____    ______ ____
ROOT
ATOM      1  O   LIG    1       21.401 -15.773  19.501  0.00  0.00    -0.275 OA
ATOM      2  C   LIG    1       20.253 -16.132  19.281  0.00  0.00    +0.228 C 
ATOM      3  C   LIG    1       19.841 -17.550  18.978  0.00  0.00    +0.172 C 
ATOM      4  S   LIG    1       18.042 -17.497  18.742  0.00  0.00    -0.093 S 
ATOM      5  C   LIG    1       17.952 -15.780  19.025  0.00  0.00    +0.113 C 
ATOM      6  S   LIG    1       16.580 -14.854  18.996  0.00  0.00    -0.028 S 
ATOM      7  N   LIG    1       19.186 -15.279  19.280  0.00  0.00    -0.274 N 
ATOM      8  H   LIG    1       19.326 -14.297  19.469  0.00  0.00    +0.156 HD
ENDROOT
TORSDOF 0
ENDMDL
MODEL 7
REMARK VINA RESULT:      -3.5      4.163      4.967
REMARK  Name = 
REMARK                            x       y       z     vdW  Elec       q    Type
REMARK                         _______ _______ _______ _____ _____    ______ ____
ROOT
ATOM      1  O   LIG    1       15.318 -14.795  20.895  0.00  0.00    -0.275 OA
ATOM      2  C   LIG    1       16.084 -15.457  20.206  0.00  0.00    +0.228 C 
ATOM      3  C   LIG    1       15.895 -16.915  19.874  0.00  0.00    +0.172 C 
ATOM      4  S   LIG    1       17.313 -17.367  18.834  0.00  0.00    -0.093 S 
ATOM      5  C   LIG    1       18.000 -15.767  18.898  0.00  0.00    +0.113 C 
ATOM      6  S   LIG    1       19.401 -15.274  18.166  0.00  0.00    -0.028 S 
ATOM      7  N   LIG    1       17.220 -14.948  19.646  0.00  0.00    -0.274 N 
ATOM      8  H   LIG    1       17.465 -13.979  19.793  0.00  0.00    +0.156 HD
ENDROOT
TORSDOF 0
ENDMDL
MODEL 8
REMARK VINA RESULT:      -3.4      5.625      6.463
REMARK  Name = 
REMARK                            x       y       z     vdW  Elec       q    Type
REMARK                         _______ _______ _______ _____ _____    ______ ____
ROOT
ATOM      1  O   LIG    1       22.295 -14.748  18.782  0.00  0.00    -0.275 OA
ATOM      2  C   LIG    1       23.486 -14.736  18.503  0.00  0.00    +0.228 C 
ATOM      3  C   LIG    1       24.225 -15.875  17.850  0.00  0.00    +0.172 C 
ATOM      4  S   LIG    1       25.941 -15.308  17.675  0.00  0.00    -0.093 S 
ATOM      5  C   LIG    1       25.612 -13.760  18.403  0.00  0.00    +0.113 C 
ATOM      6  S   LIG    1       26.707 -12.543  18.652  0.00  0.00    -0.028 S 
ATOM      7  N   LIG    1       24.305 -13.672  18.754  0.00  0.00    -0.274 N 
ATOM      8  H   LIG    1       23.933 -12.841  19.192  0.00  0.00    +0.156 HD
ENDROOT
TORSDOF 0
ENDMDL
MODEL 9
REMARK VINA RESULT:      -3.4     14.652     15.028
REMARK  Name = 
REMARK                            x       y       z     vdW  Elec       q    Type
REMARK                         _______ _______ _______ _____ _____    ______ ____
ROOT
ATOM      1  O   LIG    1       28.533 -21.686  26.982  0.00  0.00    -0.275 OA
ATOM      2  C   LIG    1       29.383 -22.408  27.485  0.00  0.00    +0.228 C 
ATOM      3  C   LIG    1       30.514 -21.923  28.354  0.00  0.00    +0.172 C 
ATOM      4  S   LIG    1       31.448 -23.410  28.817  0.00  0.00    -0.093 S 
ATOM      5  C   LIG    1       30.397 -24.473  27.923  0.00  0.00    +0.113 C 
ATOM      6  S   LIG    1       30.542 -26.117  27.801  0.00  0.00    -0.028 S 
ATOM      7  N   LIG    1       29.411 -23.763  27.319  0.00  0.00    -0.274 N 
ATOM      8  H   LIG    1       28.706 -24.217  26.756  0.00  0.00    +0.156 HD
ENDROOT
TORSDOF 0
ENDMDL
