MODEL 1
REMARK VINA RESULT:      -3.7      0.000      0.000
REMARK  Name = 
REMARK                            x       y       z     vdW  Elec       q    Type
REMARK                         _______ _______ _______ _____ _____    ______ ____
ROOT
ATOM      1  O   LIG    1       17.248   1.875  -1.550  0.00  0.00    -0.275 OA
ATOM      2  C   LIG    1       16.181   2.124  -2.095  0.00  0.00    +0.228 C 
ATOM      3  C   LIG    1       15.243   3.227  -1.679  0.00  0.00    +0.172 C 
ATOM      4  S   LIG    1       13.840   3.134  -2.828  0.00  0.00    -0.093 S 
ATOM      5  C   LIG    1       14.508   1.779  -3.696  0.00  0.00    +0.113 C 
ATOM      6  S   LIG    1       13.819   1.010  -4.990  0.00  0.00    -0.028 S 
ATOM      7  N   LIG    1       15.703   1.421  -3.163  0.00  0.00    -0.274 N 
ATOM      8  H   LIG    1       16.237   0.652  -3.541  0.00  0.00    +0.156 HD
ENDROOT
TORSDOF 0
ENDMDL
MODEL 2
REMARK VINA RESULT:      -3.6      2.764      3.308
REMARK  Name = 
REMARK                            x       y       z     vdW  Elec       q    Type
REMARK                         _______ _______ _______ _____ _____    ______ ____
ROOT
ATOM      1  O   LIG    1       14.953   3.685  -2.448  0.00  0.00    -0.275 OA
ATOM      2  C   LIG    1       13.969   3.142  -2.932  0.00  0.00    +0.228 C 
ATOM      3  C   LIG    1       14.001   1.865  -3.732  0.00  0.00    +0.172 C 
ATOM      4  S   LIG    1       12.276   1.531  -4.189  0.00  0.00    -0.093 S 
ATOM      5  C   LIG    1       11.679   2.955  -3.382  0.00  0.00    +0.113 C 
ATOM      6  S   LIG    1       10.100   3.444  -3.302  0.00  0.00    -0.028 S 
ATOM      7  N   LIG    1       12.702   3.635  -2.807  0.00  0.00    -0.274 N 
ATOM      8  H   LIG    1       12.542   4.490  -2.293  0.00  0.00    +0.156 HD
ENDROOT
TORSDOF 0
ENDMDL
MODEL 3
REMARK VINA RESULT:      -3.6     13.000     13.357
REMARK  Name = 
REMARK                            x       y       z     vdW  Elec       q    Type
REMARK                         _______ _______ _______ _____ _____    ______ ____
ROOT
ATOM      1  O   LIG    1        4.037   9.643  -1.400  0.00  0.00    -0.275 OA
ATOM      2  C   LIG    1        3.564   8.614  -0.937  0.00  0.00    +0.228 C 
ATOM      3  C   LIG    1        2.251   8.530  -0.201  0.00  0.00    +0.172 C 
ATOM      4  S   LIG    1        2.055   6.783   0.250  0.00  0.00    -0.093 S 
ATOM      5  C   LIG    1        3.565   6.317  -0.483  0.00  0.00    +0.113 C 
ATOM      6  S   LIG    1        4.201   4.790  -0.528  0.00  0.00    -0.028 S 
ATOM      7  N   LIG    1        4.176   7.398  -1.030  0.00  0.00    -0.274 N 
ATOM      8  H   LIG    1        5.066   7.316  -1.500  0.00  0.00    +0.156 HD
ENDROOT
TORSDOF 0
ENDMDL
MODEL 4
REMARK VINA RESULT:      -3.6      2.868      3.510
REMARK  Name = 
REMARK                            x       y       z     vdW  Elec       q    Type
REMARK                         _______ _______ _______ _____ _____    ______ ____
ROOT
ATOM      1  O   LIG    1       11.756   1.920  -1.582  0.00  0.00    -0.275 OA
ATOM      2  C   LIG    1       12.832   1.969  -2.163  0.00  0.00    +0.228 C 
ATOM      3  C   LIG    1       13.012   1.796  -3.649  0.00  0.00    +0.172 C 
ATOM      4  S   LIG    1       14.795   1.966  -3.948  0.00  0.00    -0.093 S 
ATOM      5  C   LIG    1       15.158   2.224  -2.264  0.00  0.00    +0.113 C 
ATOM      6  S   LIG    1       16.658   2.481  -1.614  0.00  0.00    -0.028 S 
ATOM      7  N   LIG    1       14.020   2.187  -1.526  0.00  0.00    -0.274 N 
ATOM      8  H   LIG    1       14.039   2.318  -0.525  0.00  0.00    +0.156 HD
ENDROOT
TORSDOF 0
ENDMDL
MODEL 5
REMARK VINA RESULT:      -3.5     13.412     13.629
REMARK  Name = 
REMARK                            x       y       z     vdW  Elec       q    Type
REMARK                         _______ _______ _______ _____ _____    ______ ____
ROOT
ATOM      1  O   LIG    1        2.704   7.012   0.943  0.00  0.00    -0.275 OA
ATOM      2  C   LIG    1        3.102   7.582  -0.064  0.00  0.00    +0.228 C 
ATOM      3  C   LIG    1        2.801   7.142  -1.474  0.00  0.00    +0.172 C 
ATOM      4  S   LIG    1        3.634   8.345  -2.549  0.00  0.00    -0.093 S 
ATOM      5  C   LIG    1        4.268   9.259  -1.208  0.00  0.00    +0.113 C 
ATOM      6  S   LIG    1        5.210  10.616  -1.308  0.00  0.00    -0.028 S 
ATOM      7  N   LIG    1        3.881   8.703  -0.033  0.00  0.00    -0.274 N 
ATOM      8  H   LIG    1        4.157   9.102   0.853  0.00  0.00    +0.156 HD
ENDROOT
TORSDOF 0
ENDMDL
MODEL 6
REMARK VINA RESULT:      -3.5      3.754      4.490
REMARK  Name = 
REMARK                            x       y       z     vdW  Elec       q    Type
REMARK                         _______ _______ _______ _____ _____    ______ ____
ROOT
ATOM      1  O   LIG    1       10.243   3.799  -3.344  0.00  0.00    -0.275 OA
ATOM      2  C   LIG    1       11.308   3.207  -3.456  0.00  0.00    +0.228 C 
ATOM      3  C   LIG    1       11.520   1.980  -4.305  0.00  0.00    +0.172 C 
ATOM      4  S   LIG    1       13.270   1.540  -4.097  0.00  0.00    -0.093 S 
ATOM      5  C   LIG    1       13.581   2.866  -3.012  0.00  0.00    +0.113 C 
ATOM      6  S   LIG    1       15.030   3.226  -2.297  0.00  0.00    -0.028 S 
ATOM      7  N   LIG    1       12.451   3.592  -2.817  0.00  0.00    -0.274 N 
ATOM      8  H   LIG    1       12.445   4.402  -2.215  0.00  0.00    +0.156 HD
ENDROOT
TORSDOF 0
ENDMDL
MODEL 7
REMARK VINA RESULT:      -3.5     13.070     13.365
REMARK  Name = 
REMARK                            x       y       z     vdW  Elec       q    Type
REMARK                         _______ _______ _______ _____ _____    ______ ____
ROOT
ATOM      1  O   LIG    1        5.492  10.556  -1.510  0.00  0.00    -0.275 OA
ATOM      2  C   LIG    1        4.745   9.588  -1.558  0.00  0.00    +0.228 C 
ATOM      3  C   LIG    1        4.356   8.868  -2.824  0.00  0.00    +0.172 C 
ATOM      4  S   LIG    1        3.248   7.528  -2.303  0.00  0.00    -0.093 S 
ATOM      5  C   LIG    1        3.352   7.958  -0.618  0.00  0.00    +0.113 C 
ATOM      6  S   LIG    1        2.588   7.194   0.636  0.00  0.00    -0.028 S 
ATOM      7  N   LIG    1        4.164   9.033  -0.455  0.00  0.00    -0.274 N 
ATOM      8  H   LIG    1        4.342   9.423   0.460  0.00  0.00    +0.156 HD
ENDROOT
TORSDOF 0
ENDMDL
MODEL 8
REMARK VINA RESULT:      -3.5     14.265     14.554
REMARK  Name = 
REMARK                            x       y       z     vdW  Elec       q    Type
REMARK                         _______ _______ _______ _____ _____    ______ ____
ROOT
ATOM      1  O   LIG    1       -0.489   5.314  -0.220  0.00  0.00    -0.275 OA
ATOM      2  C   LIG    1        0.585   5.804  -0.539  0.00  0.00    +0.228 C 
ATOM      3  C   LIG    1        1.489   6.569   0.394  0.00  0.00    +0.172 C 
ATOM      4  S   LIG    1        2.926   7.053  -0.605  0.00  0.00    -0.093 S 
ATOM      5  C   LIG    1        2.307   6.298  -2.048  0.00  0.00    +0.113 C 
ATOM      6  S   LIG    1        3.045   6.266  -3.529  0.00  0.00    -0.028 S 
ATOM      7  N   LIG    1        1.105   5.720  -1.799  0.00  0.00    -0.274 N 
ATOM      8  H   LIG    1        0.597   5.233  -2.523  0.00  0.00    +0.156 HD
ENDROOT
TORSDOF 0
ENDMDL
MODEL 9
REMARK VINA RESULT:      -3.5     12.017     12.355
REMARK  Name = 
REMARK                            x       y       z     vdW  Elec       q    Type
REMARK                         _______ _______ _______ _____ _____    ______ ____
ROOT
ATOM      1  O   LIG    1        4.516   4.547  -0.219  0.00  0.00    -0.275 OA
ATOM      2  C   LIG    1        4.094   5.357  -1.033  0.00  0.00    +0.228 C 
ATOM      3  C   LIG    1        2.924   5.118  -1.952  0.00  0.00    +0.172 C 
ATOM      4  S   LIG    1        2.746   6.641  -2.924  0.00  0.00    -0.093 S 
ATOM      5  C   LIG    1        4.092   7.421  -2.140  0.00  0.00    +0.113 C 
ATOM      6  S   LIG    1        4.657   8.945  -2.451  0.00  0.00    -0.028 S 
ATOM      7  N   LIG    1        4.638   6.597  -1.210  0.00  0.00    -0.274 N 
ATOM      8  H   LIG    1        5.431   6.884  -0.655  0.00  0.00    +0.156 HD
ENDROOT
TORSDOF 0
ENDMDL
