MODEL 1
REMARK VINA RESULT:      -4.0      0.000      0.000
REMARK  Name = 
REMARK                            x       y       z     vdW  Elec       q    Type
REMARK                         _______ _______ _______ _____ _____    ______ ____
ROOT
ATOM      1  O   LIG    1        3.860  26.163   5.202  0.00  0.00    -0.275 OA
ATOM      2  C   LIG    1        3.574  27.335   5.407  0.00  0.00    +0.228 C 
ATOM      3  C   LIG    1        4.556  28.478   5.361  0.00  0.00    +0.172 C 
ATOM      4  S   LIG    1        3.590  29.968   5.735  0.00  0.00    -0.093 S 
ATOM      5  C   LIG    1        2.100  29.083   5.914  0.00  0.00    +0.113 C 
ATOM      6  S   LIG    1        0.619  29.723   6.284  0.00  0.00    -0.028 S 
ATOM      7  N   LIG    1        2.311  27.759   5.707  0.00  0.00    -0.274 N 
ATOM      8  H   LIG    1        1.557  27.090   5.770  0.00  0.00    +0.156 HD
ENDROOT
TORSDOF 0
ENDMDL
MODEL 2
REMARK VINA RESULT:      -3.8      1.367      2.208
REMARK  Name = 
REMARK                            x       y       z     vdW  Elec       q    Type
REMARK                         _______ _______ _______ _____ _____    ______ ____
ROOT
ATOM      1  O   LIG    1        3.893  26.158   5.213  0.00  0.00    -0.275 OA
ATOM      2  C   LIG    1        3.378  27.266   5.270  0.00  0.00    +0.228 C 
ATOM      3  C   LIG    1        1.907  27.517   5.484  0.00  0.00    +0.172 C 
ATOM      4  S   LIG    1        1.714  29.322   5.484  0.00  0.00    -0.093 S 
ATOM      5  C   LIG    1        3.413  29.607   5.224  0.00  0.00    +0.113 C 
ATOM      6  S   LIG    1        4.148  31.083   5.088  0.00  0.00    -0.028 S 
ATOM      7  N   LIG    1        4.081  28.429   5.144  0.00  0.00    -0.274 N 
ATOM      8  H   LIG    1        5.080  28.401   4.995  0.00  0.00    +0.156 HD
ENDROOT
TORSDOF 0
ENDMDL
MODEL 3
REMARK VINA RESULT:      -3.8      2.616      2.896
REMARK  Name = 
REMARK                            x       y       z     vdW  Elec       q    Type
REMARK                         _______ _______ _______ _____ _____    ______ ____
ROOT
ATOM      1  O   LIG    1        0.457  27.368   5.535  0.00  0.00    -0.275 OA
ATOM      2  C   LIG    1        0.811  28.468   5.135  0.00  0.00    +0.228 C 
ATOM      3  C   LIG    1        2.164  28.771   4.543  0.00  0.00    +0.172 C 
ATOM      4  S   LIG    1        2.132  30.538   4.129  0.00  0.00    -0.093 S 
ATOM      5  C   LIG    1        0.503  30.750   4.707  0.00  0.00    +0.113 C 
ATOM      6  S   LIG    1       -0.362  32.161   4.701  0.00  0.00    -0.028 S 
ATOM      7  N   LIG    1        0.013  29.575   5.177  0.00  0.00    -0.274 N 
ATOM      8  H   LIG    1       -0.922  29.509   5.554  0.00  0.00    +0.156 HD
ENDROOT
TORSDOF 0
ENDMDL
MODEL 4
REMARK VINA RESULT:      -3.7      1.867      2.025
REMARK  Name = 
REMARK                            x       y       z     vdW  Elec       q    Type
REMARK                         _______ _______ _______ _____ _____    ______ ____
ROOT
ATOM      1  O   LIG    1        5.388  28.942   5.331  0.00  0.00    -0.275 OA
ATOM      2  C   LIG    1        4.193  28.729   5.480  0.00  0.00    +0.228 C 
ATOM      3  C   LIG    1        3.496  27.448   5.097  0.00  0.00    +0.172 C 
ATOM      4  S   LIG    1        1.753  27.688   5.541  0.00  0.00    -0.093 S 
ATOM      5  C   LIG    1        2.021  29.301   6.142  0.00  0.00    +0.113 C 
ATOM      6  S   LIG    1        0.875  30.312   6.778  0.00  0.00    -0.028 S 
ATOM      7  N   LIG    1        3.329  29.638   6.019  0.00  0.00    -0.274 N 
ATOM      8  H   LIG    1        3.669  30.541   6.318  0.00  0.00    +0.156 HD
ENDROOT
TORSDOF 0
ENDMDL
MODEL 5
REMARK VINA RESULT:      -3.7      4.007      4.597
REMARK  Name = 
REMARK                            x       y       z     vdW  Elec       q    Type
REMARK                         _______ _______ _______ _____ _____    ______ ____
ROOT
ATOM      1  O   LIG    1       -0.790  32.328   4.363  0.00  0.00    -0.275 OA
ATOM      2  C   LIG    1       -0.172  31.554   5.081  0.00  0.00    +0.228 C 
ATOM      3  C   LIG    1        0.501  31.936   6.374  0.00  0.00    +0.172 C 
ATOM      4  S   LIG    1        1.250  30.408   7.006  0.00  0.00    -0.093 S 
ATOM      5  C   LIG    1        0.689  29.455   5.660  0.00  0.00    +0.113 C 
ATOM      6  S   LIG    1        0.952  27.837   5.430  0.00  0.00    -0.028 S 
ATOM      7  N   LIG    1       -0.014  30.228   4.795  0.00  0.00    -0.274 N 
ATOM      8  H   LIG    1       -0.417  29.842   3.954  0.00  0.00    +0.156 HD
ENDROOT
TORSDOF 0
ENDMDL
MODEL 6
REMARK VINA RESULT:      -3.6      2.227      2.355
REMARK  Name = 
REMARK                            x       y       z     vdW  Elec       q    Type
REMARK                         _______ _______ _______ _____ _____    ______ ____
ROOT
ATOM      1  O   LIG    1        0.566  27.413   5.563  0.00  0.00    -0.275 OA
ATOM      2  C   LIG    1        1.659  27.962   5.518  0.00  0.00    +0.228 C 
ATOM      3  C   LIG    1        2.976  27.241   5.392  0.00  0.00    +0.172 C 
ATOM      4  S   LIG    1        4.244  28.540   5.372  0.00  0.00    -0.093 S 
ATOM      5  C   LIG    1        3.077  29.825   5.521  0.00  0.00    +0.113 C 
ATOM      6  S   LIG    1        3.409  31.445   5.584  0.00  0.00    -0.028 S 
ATOM      7  N   LIG    1        1.821  29.317   5.580  0.00  0.00    -0.274 N 
ATOM      8  H   LIG    1        1.015  29.918   5.667  0.00  0.00    +0.156 HD
ENDROOT
TORSDOF 0
ENDMDL
MODEL 7
REMARK VINA RESULT:      -3.6      3.564      4.017
REMARK  Name = 
REMARK                            x       y       z     vdW  Elec       q    Type
REMARK                         _______ _______ _______ _____ _____    ______ ____
ROOT
ATOM      1  O   LIG    1        0.255  28.351   5.066  0.00  0.00    -0.275 OA
ATOM      2  C   LIG    1        0.308  29.544   5.332  0.00  0.00    +0.228 C 
ATOM      3  C   LIG    1        0.328  30.110   6.729  0.00  0.00    +0.172 C 
ATOM      4  S   LIG    1        0.414  31.912   6.524  0.00  0.00    -0.093 S 
ATOM      5  C   LIG    1        0.414  31.818   4.785  0.00  0.00    +0.113 C 
ATOM      6  S   LIG    1        0.476  33.096   3.735  0.00  0.00    -0.028 S 
ATOM      7  N   LIG    1        0.356  30.523   4.383  0.00  0.00    -0.274 N 
ATOM      8  H   LIG    1        0.347  30.277   3.403  0.00  0.00    +0.156 HD
ENDROOT
TORSDOF 0
ENDMDL
MODEL 8
REMARK VINA RESULT:      -3.5      2.913      3.749
REMARK  Name = 
REMARK                            x       y       z     vdW  Elec       q    Type
REMARK                         _______ _______ _______ _____ _____    ______ ____
ROOT
ATOM      1  O   LIG    1        0.273  30.830   4.804  0.00  0.00    -0.275 OA
ATOM      2  C   LIG    1        1.043  29.887   4.933  0.00  0.00    +0.228 C 
ATOM      3  C   LIG    1        0.625  28.440   4.990  0.00  0.00    +0.172 C 
ATOM      4  S   LIG    1        2.162  27.495   5.184  0.00  0.00    -0.093 S 
ATOM      5  C   LIG    1        3.161  28.922   5.183  0.00  0.00    +0.113 C 
ATOM      6  S   LIG    1        4.809  28.962   5.327  0.00  0.00    -0.028 S 
ATOM      7  N   LIG    1        2.396  30.033   5.045  0.00  0.00    -0.274 N 
ATOM      8  H   LIG    1        2.807  30.955   5.023  0.00  0.00    +0.156 HD
ENDROOT
TORSDOF 0
ENDMDL
MODEL 9
REMARK VINA RESULT:      -3.5      2.666      2.796
REMARK  Name = 
REMARK                            x       y       z     vdW  Elec       q    Type
REMARK                         _______ _______ _______ _____ _____    ______ ____
ROOT
ATOM      1  O   LIG    1        3.906  31.568   5.825  0.00  0.00    -0.275 OA
ATOM      2  C   LIG    1        3.710  30.372   5.658  0.00  0.00    +0.228 C 
ATOM      3  C   LIG    1        4.788  29.359   5.371  0.00  0.00    +0.172 C 
ATOM      4  S   LIG    1        3.933  27.764   5.220  0.00  0.00    -0.093 S 
ATOM      5  C   LIG    1        2.364  28.462   5.512  0.00  0.00    +0.113 C 
ATOM      6  S   LIG    1        0.923  27.647   5.551  0.00  0.00    -0.028 S 
ATOM      7  N   LIG    1        2.472  29.799   5.711  0.00  0.00    -0.274 N 
ATOM      8  H   LIG    1        1.659  30.370   5.895  0.00  0.00    +0.156 HD
ENDROOT
TORSDOF 0
ENDMDL
