MODEL 1
REMARK VINA RESULT:      -3.7      0.000      0.000
REMARK  Name = 
REMARK                            x       y       z     vdW  Elec       q    Type
REMARK                         _______ _______ _______ _____ _____    ______ ____
ROOT
ATOM      1  O   LIG    1      -47.281  14.010 -35.227  0.00  0.00    -0.275 OA
ATOM      2  C   LIG    1      -46.817  14.767 -34.385  0.00  0.00    +0.228 C 
ATOM      3  C   LIG    1      -47.014  16.261 -34.373  0.00  0.00    +0.172 C 
ATOM      4  S   LIG    1      -46.115  16.861 -32.914  0.00  0.00    -0.093 S 
ATOM      5  C   LIG    1      -45.585  15.266 -32.457  0.00  0.00    +0.113 C 
ATOM      6  S   LIG    1      -44.649  14.884 -31.147  0.00  0.00    -0.028 S 
ATOM      7  N   LIG    1      -46.051  14.344 -33.337  0.00  0.00    -0.274 N 
ATOM      8  H   LIG    1      -45.841  13.362 -33.229  0.00  0.00    +0.156 HD
ENDROOT
TORSDOF 0
ENDMDL
MODEL 2
REMARK VINA RESULT:      -3.7     14.925     15.237
REMARK  Name = 
REMARK                            x       y       z     vdW  Elec       q    Type
REMARK                         _______ _______ _______ _____ _____    ______ ____
ROOT
ATOM      1  O   LIG    1      -36.700   9.357 -43.412  0.00  0.00    -0.275 OA
ATOM      2  C   LIG    1      -36.128   8.694 -42.558  0.00  0.00    +0.228 C 
ATOM      3  C   LIG    1      -36.076   7.187 -42.536  0.00  0.00    +0.172 C 
ATOM      4  S   LIG    1      -35.104   6.754 -41.065  0.00  0.00    -0.093 S 
ATOM      5  C   LIG    1      -34.854   8.418 -40.614  0.00  0.00    +0.113 C 
ATOM      6  S   LIG    1      -34.010   8.958 -39.296  0.00  0.00    -0.028 S 
ATOM      7  N   LIG    1      -35.457   9.244 -41.505  0.00  0.00    -0.274 N 
ATOM      8  H   LIG    1      -35.416  10.248 -41.402  0.00  0.00    +0.156 HD
ENDROOT
TORSDOF 0
ENDMDL
MODEL 3
REMARK VINA RESULT:      -3.7     13.885     14.313
REMARK  Name = 
REMARK                            x       y       z     vdW  Elec       q    Type
REMARK                         _______ _______ _______ _____ _____    ______ ____
ROOT
ATOM      1  O   LIG    1      -37.540   7.628 -36.916  0.00  0.00    -0.275 OA
ATOM      2  C   LIG    1      -36.671   7.382 -37.741  0.00  0.00    +0.228 C 
ATOM      3  C   LIG    1      -35.440   6.556 -37.470  0.00  0.00    +0.172 C 
ATOM      4  S   LIG    1      -34.521   6.520 -39.035  0.00  0.00    -0.093 S 
ATOM      5  C   LIG    1      -35.696   7.501 -39.867  0.00  0.00    +0.113 C 
ATOM      6  S   LIG    1      -35.624   7.983 -41.449  0.00  0.00    -0.028 S 
ATOM      7  N   LIG    1      -36.711   7.833 -39.030  0.00  0.00    -0.274 N 
ATOM      8  H   LIG    1      -37.485   8.401 -39.342  0.00  0.00    +0.156 HD
ENDROOT
TORSDOF 0
ENDMDL
MODEL 4
REMARK VINA RESULT:      -3.7      2.589      3.297
REMARK  Name = 
REMARK                            x       y       z     vdW  Elec       q    Type
REMARK                         _______ _______ _______ _____ _____    ______ ____
ROOT
ATOM      1  O   LIG    1      -44.341  14.384 -30.515  0.00  0.00    -0.275 OA
ATOM      2  C   LIG    1      -44.956  14.993 -31.381  0.00  0.00    +0.228 C 
ATOM      3  C   LIG    1      -45.253  16.470 -31.342  0.00  0.00    +0.172 C 
ATOM      4  S   LIG    1      -46.175  16.822 -32.866  0.00  0.00    -0.093 S 
ATOM      5  C   LIG    1      -46.121  15.166 -33.404  0.00  0.00    +0.113 C 
ATOM      6  S   LIG    1      -46.773  14.571 -34.804  0.00  0.00    -0.028 S 
ATOM      7  N   LIG    1      -45.455  14.400 -32.505  0.00  0.00    -0.274 N 
ATOM      8  H   LIG    1      -45.325  13.409 -32.653  0.00  0.00    +0.156 HD
ENDROOT
TORSDOF 0
ENDMDL
MODEL 5
REMARK VINA RESULT:      -3.7     15.211     15.480
REMARK  Name = 
REMARK                            x       y       z     vdW  Elec       q    Type
REMARK                         _______ _______ _______ _____ _____    ______ ____
ROOT
ATOM      1  O   LIG    1      -33.939   9.493 -39.179  0.00  0.00    -0.275 OA
ATOM      2  C   LIG    1      -34.494   8.807 -40.026  0.00  0.00    +0.228 C 
ATOM      3  C   LIG    1      -34.576   7.303 -39.993  0.00  0.00    +0.172 C 
ATOM      4  S   LIG    1      -35.504   6.830 -41.480  0.00  0.00    -0.093 S 
ATOM      5  C   LIG    1      -35.704   8.479 -42.004  0.00  0.00    +0.113 C 
ATOM      6  S   LIG    1      -36.490   8.983 -43.371  0.00  0.00    -0.028 S 
ATOM      7  N   LIG    1      -35.117   9.328 -41.124  0.00  0.00    -0.274 N 
ATOM      8  H   LIG    1      -35.133  10.328 -41.268  0.00  0.00    +0.156 HD
ENDROOT
TORSDOF 0
ENDMDL
MODEL 6
REMARK VINA RESULT:      -3.6      2.957      3.646
REMARK  Name = 
REMARK                            x       y       z     vdW  Elec       q    Type
REMARK                         _______ _______ _______ _____ _____    ______ ____
ROOT
ATOM      1  O   LIG    1      -46.092  18.646 -31.591  0.00  0.00    -0.275 OA
ATOM      2  C   LIG    1      -45.859  17.461 -31.793  0.00  0.00    +0.228 C 
ATOM      3  C   LIG    1      -45.521  16.459 -30.719  0.00  0.00    +0.172 C 
ATOM      4  S   LIG    1      -45.282  14.880 -31.582  0.00  0.00    -0.093 S 
ATOM      5  C   LIG    1      -45.607  15.569 -33.149  0.00  0.00    +0.113 C 
ATOM      6  S   LIG    1      -45.597  14.762 -34.593  0.00  0.00    -0.028 S 
ATOM      7  N   LIG    1      -45.878  16.894 -33.034  0.00  0.00    -0.274 N 
ATOM      8  H   LIG    1      -46.090  17.458 -33.844  0.00  0.00    +0.156 HD
ENDROOT
TORSDOF 0
ENDMDL
MODEL 7
REMARK VINA RESULT:      -3.6     14.116     14.489
REMARK  Name = 
REMARK                            x       y       z     vdW  Elec       q    Type
REMARK                         _______ _______ _______ _____ _____    ______ ____
ROOT
ATOM      1  O   LIG    1      -37.581   7.849 -37.149  0.00  0.00    -0.275 OA
ATOM      2  C   LIG    1      -36.595   7.217 -37.504  0.00  0.00    +0.228 C 
ATOM      3  C   LIG    1      -35.793   7.507 -38.747  0.00  0.00    +0.172 C 
ATOM      4  S   LIG    1      -34.462   6.272 -38.768  0.00  0.00    -0.093 S 
ATOM      5  C   LIG    1      -34.994   5.523 -37.288  0.00  0.00    +0.113 C 
ATOM      6  S   LIG    1      -34.289   4.225 -36.540  0.00  0.00    -0.028 S 
ATOM      7  N   LIG    1      -36.094   6.155 -36.808  0.00  0.00    -0.274 N 
ATOM      8  H   LIG    1      -36.541   5.855 -35.953  0.00  0.00    +0.156 HD
ENDROOT
TORSDOF 0
ENDMDL
MODEL 8
REMARK VINA RESULT:      -3.5      3.054      3.556
REMARK  Name = 
REMARK                            x       y       z     vdW  Elec       q    Type
REMARK                         _______ _______ _______ _____ _____    ______ ____
ROOT
ATOM      1  O   LIG    1      -44.259  14.511 -30.572  0.00  0.00    -0.275 OA
ATOM      2  C   LIG    1      -44.865  15.319 -31.264  0.00  0.00    +0.228 C 
ATOM      3  C   LIG    1      -45.253  15.094 -32.703  0.00  0.00    +0.172 C 
ATOM      4  S   LIG    1      -46.123  16.602 -33.217  0.00  0.00    -0.093 S 
ATOM      5  C   LIG    1      -45.938  17.362 -31.660  0.00  0.00    +0.113 C 
ATOM      6  S   LIG    1      -46.482  18.866 -31.235  0.00  0.00    -0.028 S 
ATOM      7  N   LIG    1      -45.270  16.541 -30.811  0.00  0.00    -0.274 N 
ATOM      8  H   LIG    1      -45.072  16.818 -29.860  0.00  0.00    +0.156 HD
ENDROOT
TORSDOF 0
ENDMDL
MODEL 9
REMARK VINA RESULT:      -3.5     14.445     14.912
REMARK  Name = 
REMARK                            x       y       z     vdW  Elec       q    Type
REMARK                         _______ _______ _______ _____ _____    ______ ____
ROOT
ATOM      1  O   LIG    1      -37.554  19.994 -47.001  0.00  0.00    -0.275 OA
ATOM      2  C   LIG    1      -38.504  19.680 -46.297  0.00  0.00    +0.228 C 
ATOM      3  C   LIG    1      -38.819  18.273 -45.858  0.00  0.00    +0.172 C 
ATOM      4  S   LIG    1      -40.318  18.401 -44.842  0.00  0.00    -0.093 S 
ATOM      5  C   LIG    1      -40.429  20.128 -45.042  0.00  0.00    +0.113 C 
ATOM      6  S   LIG    1      -41.592  21.115 -44.397  0.00  0.00    -0.028 S 
ATOM      7  N   LIG    1      -39.411  20.580 -45.816  0.00  0.00    -0.274 N 
ATOM      8  H   LIG    1      -39.316  21.561 -46.038  0.00  0.00    +0.156 HD
ENDROOT
TORSDOF 0
ENDMDL
