MODEL 1
REMARK VINA RESULT:      -3.7      0.000      0.000
REMARK  Name = 
REMARK                            x       y       z     vdW  Elec       q    Type
REMARK                         _______ _______ _______ _____ _____    ______ ____
ROOT
ATOM      1  O   LIG    1       25.481 -32.541  -9.633  0.00  0.00    -0.275 OA
ATOM      2  C   LIG    1       25.363 -31.327  -9.728  0.00  0.00    +0.228 C 
ATOM      3  C   LIG    1       26.512 -30.363  -9.875  0.00  0.00    +0.172 C 
ATOM      4  S   LIG    1       25.758 -28.715  -9.973  0.00  0.00    -0.093 S 
ATOM      5  C   LIG    1       24.137 -29.335  -9.826  0.00  0.00    +0.113 C 
ATOM      6  S   LIG    1       22.744 -28.440  -9.820  0.00  0.00    -0.028 S 
ATOM      7  N   LIG    1       24.158 -30.686  -9.712  0.00  0.00    -0.274 N 
ATOM      8  H   LIG    1       23.305 -31.219  -9.617  0.00  0.00    +0.156 HD
ENDROOT
TORSDOF 0
ENDMDL
MODEL 2
REMARK VINA RESULT:      -3.6      6.571      6.926
REMARK  Name = 
REMARK                            x       y       z     vdW  Elec       q    Type
REMARK                         _______ _______ _______ _____ _____    ______ ____
ROOT
ATOM      1  O   LIG    1       25.327 -22.084 -13.049  0.00  0.00    -0.275 OA
ATOM      2  C   LIG    1       25.342 -23.206 -12.561  0.00  0.00    +0.228 C 
ATOM      3  C   LIG    1       26.574 -23.893 -12.030  0.00  0.00    +0.172 C 
ATOM      4  S   LIG    1       26.012 -25.513 -11.432  0.00  0.00    -0.093 S 
ATOM      5  C   LIG    1       24.354 -25.216 -11.878  0.00  0.00    +0.113 C 
ATOM      6  S   LIG    1       23.084 -26.256 -11.669  0.00  0.00    -0.028 S 
ATOM      7  N   LIG    1       24.229 -23.986 -12.436  0.00  0.00    -0.274 N 
ATOM      8  H   LIG    1       23.334 -23.643 -12.755  0.00  0.00    +0.156 HD
ENDROOT
TORSDOF 0
ENDMDL
MODEL 3
REMARK VINA RESULT:      -3.5      1.373      2.253
REMARK  Name = 
REMARK                            x       y       z     vdW  Elec       q    Type
REMARK                         _______ _______ _______ _____ _____    ______ ____
ROOT
ATOM      1  O   LIG    1       25.509 -32.556  -9.625  0.00  0.00    -0.275 OA
ATOM      2  C   LIG    1       25.283 -31.358  -9.723  0.00  0.00    +0.228 C 
ATOM      3  C   LIG    1       23.913 -30.754  -9.891  0.00  0.00    +0.172 C 
ATOM      4  S   LIG    1       24.175 -28.960  -9.976  0.00  0.00    -0.093 S 
ATOM      5  C   LIG    1       25.903 -29.101  -9.806  0.00  0.00    +0.113 C 
ATOM      6  S   LIG    1       26.989 -27.852  -9.782  0.00  0.00    -0.028 S 
ATOM      7  N   LIG    1       26.261 -30.405  -9.691  0.00  0.00    -0.274 N 
ATOM      8  H   LIG    1       27.227 -30.677  -9.583  0.00  0.00    +0.156 HD
ENDROOT
TORSDOF 0
ENDMDL
MODEL 4
REMARK VINA RESULT:      -3.5      6.295      6.960
REMARK  Name = 
REMARK                            x       y       z     vdW  Elec       q    Type
REMARK                         _______ _______ _______ _____ _____    ______ ____
ROOT
ATOM      1  O   LIG    1       25.154 -22.598 -13.385  0.00  0.00    -0.275 OA
ATOM      2  C   LIG    1       25.044 -23.624 -12.728  0.00  0.00    +0.228 C 
ATOM      3  C   LIG    1       23.892 -23.932 -11.807  0.00  0.00    +0.172 C 
ATOM      4  S   LIG    1       24.250 -25.569 -11.108  0.00  0.00    -0.093 S 
ATOM      5  C   LIG    1       25.748 -25.730 -11.984  0.00  0.00    +0.113 C 
ATOM      6  S   LIG    1       26.785 -27.018 -11.920  0.00  0.00    -0.028 S 
ATOM      7  N   LIG    1       25.966 -24.631 -12.750  0.00  0.00    -0.274 N 
ATOM      8  H   LIG    1       26.790 -24.549 -13.328  0.00  0.00    +0.156 HD
ENDROOT
TORSDOF 0
ENDMDL
MODEL 5
REMARK VINA RESULT:      -3.5      5.403      5.806
REMARK  Name = 
REMARK                            x       y       z     vdW  Elec       q    Type
REMARK                         _______ _______ _______ _____ _____    ______ ____
ROOT
ATOM      1  O   LIG    1       27.990 -24.626 -13.174  0.00  0.00    -0.275 OA
ATOM      2  C   LIG    1       27.096 -25.253 -12.623  0.00  0.00    +0.228 C 
ATOM      3  C   LIG    1       26.015 -24.637 -11.772  0.00  0.00    +0.172 C 
ATOM      4  S   LIG    1       24.975 -26.021 -11.225  0.00  0.00    -0.093 S 
ATOM      5  C   LIG    1       25.934 -27.208 -12.064  0.00  0.00    +0.113 C 
ATOM      6  S   LIG    1       25.664 -28.841 -12.094  0.00  0.00    -0.028 S 
ATOM      7  N   LIG    1       26.964 -26.609 -12.713  0.00  0.00    -0.274 N 
ATOM      8  H   LIG    1       27.627 -27.146 -13.254  0.00  0.00    +0.156 HD
ENDROOT
TORSDOF 0
ENDMDL
MODEL 6
REMARK VINA RESULT:      -3.4      1.850      2.014
REMARK  Name = 
REMARK                            x       y       z     vdW  Elec       q    Type
REMARK                         _______ _______ _______ _____ _____    ______ ____
ROOT
ATOM      1  O   LIG    1       26.865 -30.147  -9.475  0.00  0.00    -0.275 OA
ATOM      2  C   LIG    1       25.662 -30.253  -9.672  0.00  0.00    +0.228 C 
ATOM      3  C   LIG    1       24.952 -31.551  -9.963  0.00  0.00    +0.172 C 
ATOM      4  S   LIG    1       23.202 -31.116 -10.164  0.00  0.00    -0.093 S 
ATOM      5  C   LIG    1       23.484 -29.420  -9.884  0.00  0.00    +0.113 C 
ATOM      6  S   LIG    1       22.341 -28.223  -9.889  0.00  0.00    -0.028 S 
ATOM      7  N   LIG    1       24.802 -29.193  -9.654  0.00  0.00    -0.274 N 
ATOM      8  H   LIG    1       25.151 -28.263  -9.471  0.00  0.00    +0.156 HD
ENDROOT
TORSDOF 0
ENDMDL
MODEL 7
REMARK VINA RESULT:      -3.4      5.901      6.253
REMARK  Name = 
REMARK                            x       y       z     vdW  Elec       q    Type
REMARK                         _______ _______ _______ _____ _____    ______ ____
ROOT
ATOM      1  O   LIG    1       27.946 -24.635 -13.081  0.00  0.00    -0.275 OA
ATOM      2  C   LIG    1       26.802 -24.675 -12.649  0.00  0.00    +0.228 C 
ATOM      3  C   LIG    1       25.816 -23.538 -12.728  0.00  0.00    +0.172 C 
ATOM      4  S   LIG    1       24.298 -24.152 -11.943  0.00  0.00    -0.093 S 
ATOM      5  C   LIG    1       24.990 -25.712 -11.590  0.00  0.00    +0.113 C 
ATOM      6  S   LIG    1       24.229 -26.969 -10.828  0.00  0.00    -0.028 S 
ATOM      7  N   LIG    1       26.271 -25.771 -12.032  0.00  0.00    -0.274 N 
ATOM      8  H   LIG    1       26.830 -26.603 -11.913  0.00  0.00    +0.156 HD
ENDROOT
TORSDOF 0
ENDMDL
MODEL 8
REMARK VINA RESULT:      -3.4      5.825      6.418
REMARK  Name = 
REMARK                            x       y       z     vdW  Elec       q    Type
REMARK                         _______ _______ _______ _____ _____    ______ ____
ROOT
ATOM      1  O   LIG    1       23.594 -23.913 -11.705  0.00  0.00    -0.275 OA
ATOM      2  C   LIG    1       24.689 -24.375 -11.993  0.00  0.00    +0.228 C 
ATOM      3  C   LIG    1       25.758 -23.636 -12.757  0.00  0.00    +0.172 C 
ATOM      4  S   LIG    1       27.152 -24.791 -12.889  0.00  0.00    -0.093 S 
ATOM      5  C   LIG    1       26.323 -26.053 -12.019  0.00  0.00    +0.113 C 
ATOM      6  S   LIG    1       26.921 -27.555 -11.668  0.00  0.00    -0.028 S 
ATOM      7  N   LIG    1       25.085 -25.637 -11.652  0.00  0.00    -0.274 N 
ATOM      8  H   LIG    1       24.459 -26.240 -11.137  0.00  0.00    +0.156 HD
ENDROOT
TORSDOF 0
ENDMDL
MODEL 9
REMARK VINA RESULT:      -3.4      4.114      4.528
REMARK  Name = 
REMARK                            x       y       z     vdW  Elec       q    Type
REMARK                         _______ _______ _______ _____ _____    ______ ____
ROOT
ATOM      1  O   LIG    1       27.381 -29.299 -11.442  0.00  0.00    -0.275 OA
ATOM      2  C   LIG    1       26.939 -28.161 -11.362  0.00  0.00    +0.228 C 
ATOM      3  C   LIG    1       25.963 -27.693 -10.313  0.00  0.00    +0.172 C 
ATOM      4  S   LIG    1       25.662 -25.939 -10.672  0.00  0.00    -0.093 S 
ATOM      5  C   LIG    1       26.732 -25.932 -12.048  0.00  0.00    +0.113 C 
ATOM      6  S   LIG    1       27.062 -24.636 -13.023  0.00  0.00    -0.028 S 
ATOM      7  N   LIG    1       27.279 -27.160 -12.226  0.00  0.00    -0.274 N 
ATOM      8  H   LIG    1       27.927 -27.342 -12.979  0.00  0.00    +0.156 HD
ENDROOT
TORSDOF 0
ENDMDL
