MODEL 1
REMARK VINA RESULT:      -3.8      0.000      0.000
REMARK  Name = 
REMARK                            x       y       z     vdW  Elec       q    Type
REMARK                         _______ _______ _______ _____ _____    ______ ____
ROOT
ATOM      1  O   LIG    1       16.261  47.944  27.483  0.00  0.00    -0.275 OA
ATOM      2  C   LIG    1       15.153  47.515  27.777  0.00  0.00    +0.228 C 
ATOM      3  C   LIG    1       14.876  46.110  28.248  0.00  0.00    +0.172 C 
ATOM      4  S   LIG    1       13.085  46.037  28.538  0.00  0.00    -0.093 S 
ATOM      5  C   LIG    1       12.836  47.695  28.065  0.00  0.00    +0.113 C 
ATOM      6  S   LIG    1       11.389  48.496  28.033  0.00  0.00    -0.028 S 
ATOM      7  N   LIG    1       14.015  48.267  27.714  0.00  0.00    -0.274 N 
ATOM      8  H   LIG    1       14.063  49.229  27.411  0.00  0.00    +0.156 HD
ENDROOT
TORSDOF 0
ENDMDL
MODEL 2
REMARK VINA RESULT:      -3.8     16.523     16.809
REMARK  Name = 
REMARK                            x       y       z     vdW  Elec       q    Type
REMARK                         _______ _______ _______ _____ _____    ______ ____
ROOT
ATOM      1  O   LIG    1       23.017  51.884  12.468  0.00  0.00    -0.275 OA
ATOM      2  C   LIG    1       22.471  50.849  12.823  0.00  0.00    +0.228 C 
ATOM      3  C   LIG    1       22.869  49.469  12.367  0.00  0.00    +0.172 C 
ATOM      4  S   LIG    1       21.730  48.329  13.204  0.00  0.00    -0.093 S 
ATOM      5  C   LIG    1       20.882  49.614  14.021  0.00  0.00    +0.113 C 
ATOM      6  S   LIG    1       19.605  49.438  15.058  0.00  0.00    -0.028 S 
ATOM      7  N   LIG    1       21.416  50.816  13.690  0.00  0.00    -0.274 N 
ATOM      8  H   LIG    1       21.049  51.676  14.070  0.00  0.00    +0.156 HD
ENDROOT
TORSDOF 0
ENDMDL
MODEL 3
REMARK VINA RESULT:      -3.6     10.998     11.347
REMARK  Name = 
REMARK                            x       y       z     vdW  Elec       q    Type
REMARK                         _______ _______ _______ _____ _____    ______ ____
ROOT
ATOM      1  O   LIG    1       16.647  51.197  18.554  0.00  0.00    -0.275 OA
ATOM      2  C   LIG    1       17.390  50.229  18.462  0.00  0.00    +0.228 C 
ATOM      3  C   LIG    1       17.078  48.855  18.998  0.00  0.00    +0.172 C 
ATOM      4  S   LIG    1       18.516  47.829  18.580  0.00  0.00    -0.093 S 
ATOM      5  C   LIG    1       19.357  49.143  17.804  0.00  0.00    +0.113 C 
ATOM      6  S   LIG    1       20.852  49.066  17.096  0.00  0.00    -0.028 S 
ATOM      7  N   LIG    1       18.611  50.275  17.853  0.00  0.00    -0.274 N 
ATOM      8  H   LIG    1       18.942  51.140  17.451  0.00  0.00    +0.156 HD
ENDROOT
TORSDOF 0
ENDMDL
MODEL 4
REMARK VINA RESULT:      -3.6      1.660      2.840
REMARK  Name = 
REMARK                            x       y       z     vdW  Elec       q    Type
REMARK                         _______ _______ _______ _____ _____    ______ ____
ROOT
ATOM      1  O   LIG    1       15.169  49.776  28.085  0.00  0.00    -0.275 OA
ATOM      2  C   LIG    1       14.738  48.634  28.170  0.00  0.00    +0.228 C 
ATOM      3  C   LIG    1       13.278  48.263  28.123  0.00  0.00    +0.172 C 
ATOM      4  S   LIG    1       13.227  46.456  28.290  0.00  0.00    -0.093 S 
ATOM      5  C   LIG    1       14.959  46.315  28.404  0.00  0.00    +0.113 C 
ATOM      6  S   LIG    1       15.816  44.911  28.587  0.00  0.00    -0.028 S 
ATOM      7  N   LIG    1       15.539  47.539  28.321  0.00  0.00    -0.274 N 
ATOM      8  H   LIG    1       16.541  47.650  28.368  0.00  0.00    +0.156 HD
ENDROOT
TORSDOF 0
ENDMDL
MODEL 5
REMARK VINA RESULT:      -3.6      1.883      2.109
REMARK  Name = 
REMARK                            x       y       z     vdW  Elec       q    Type
REMARK                         _______ _______ _______ _____ _____    ______ ____
ROOT
ATOM      1  O   LIG    1       15.526  46.002  27.094  0.00  0.00    -0.275 OA
ATOM      2  C   LIG    1       15.181  47.116  27.465  0.00  0.00    +0.228 C 
ATOM      3  C   LIG    1       16.121  48.180  27.969  0.00  0.00    +0.172 C 
ATOM      4  S   LIG    1       15.073  49.607  28.370  0.00  0.00    -0.093 S 
ATOM      5  C   LIG    1       13.606  48.793  27.899  0.00  0.00    +0.113 C 
ATOM      6  S   LIG    1       12.077  49.424  27.952  0.00  0.00    -0.028 S 
ATOM      7  N   LIG    1       13.882  47.537  27.469  0.00  0.00    -0.274 N 
ATOM      8  H   LIG    1       13.150  46.916  27.154  0.00  0.00    +0.156 HD
ENDROOT
TORSDOF 0
ENDMDL
MODEL 6
REMARK VINA RESULT:      -3.6     15.656     15.997
REMARK  Name = 
REMARK                            x       y       z     vdW  Elec       q    Type
REMARK                         _______ _______ _______ _____ _____    ______ ____
ROOT
ATOM      1  O   LIG    1       23.335  50.868  13.186  0.00  0.00    -0.275 OA
ATOM      2  C   LIG    1       22.649  49.955  13.627  0.00  0.00    +0.228 C 
ATOM      3  C   LIG    1       22.204  48.755  12.831  0.00  0.00    +0.172 C 
ATOM      4  S   LIG    1       21.227  47.743  13.978  0.00  0.00    -0.093 S 
ATOM      5  C   LIG    1       21.441  48.854  15.303  0.00  0.00    +0.113 C 
ATOM      6  S   LIG    1       20.830  48.682  16.832  0.00  0.00    -0.028 S 
ATOM      7  N   LIG    1       22.195  49.912  14.913  0.00  0.00    -0.274 N 
ATOM      8  H   LIG    1       22.422  50.659  15.554  0.00  0.00    +0.156 HD
ENDROOT
TORSDOF 0
ENDMDL
MODEL 7
REMARK VINA RESULT:      -3.6      2.094      2.317
REMARK  Name = 
REMARK                            x       y       z     vdW  Elec       q    Type
REMARK                         _______ _______ _______ _____ _____    ______ ____
ROOT
ATOM      1  O   LIG    1       14.814  45.137  28.681  0.00  0.00    -0.275 OA
ATOM      2  C   LIG    1       14.016  46.019  28.395  0.00  0.00    +0.228 C 
ATOM      3  C   LIG    1       14.381  47.464  28.167  0.00  0.00    +0.172 C 
ATOM      4  S   LIG    1       12.821  48.306  27.777  0.00  0.00    -0.093 S 
ATOM      5  C   LIG    1       11.877  46.849  27.927  0.00  0.00    +0.113 C 
ATOM      6  S   LIG    1       10.240  46.718  27.719  0.00  0.00    -0.028 S 
ATOM      7  N   LIG    1       12.676  45.801  28.247  0.00  0.00    -0.274 N 
ATOM      8  H   LIG    1       12.299  44.873  28.374  0.00  0.00    +0.156 HD
ENDROOT
TORSDOF 0
ENDMDL
MODEL 8
REMARK VINA RESULT:      -3.5     15.421     15.750
REMARK  Name = 
REMARK                            x       y       z     vdW  Elec       q    Type
REMARK                         _______ _______ _______ _____ _____    ______ ____
ROOT
ATOM      1  O   LIG    1       20.827  48.941  16.931  0.00  0.00    -0.275 OA
ATOM      2  C   LIG    1       21.179  48.821  15.765  0.00  0.00    +0.228 C 
ATOM      3  C   LIG    1       20.697  47.740  14.832  0.00  0.00    +0.172 C 
ATOM      4  S   LIG    1       21.536  48.049  13.252  0.00  0.00    -0.093 S 
ATOM      5  C   LIG    1       22.388  49.442  13.859  0.00  0.00    +0.113 C 
ATOM      6  S   LIG    1       23.447  50.388  13.009  0.00  0.00    -0.028 S 
ATOM      7  N   LIG    1       22.065  49.663  15.158  0.00  0.00    -0.274 N 
ATOM      8  H   LIG    1       22.466  50.432  15.675  0.00  0.00    +0.156 HD
ENDROOT
TORSDOF 0
ENDMDL
MODEL 9
REMARK VINA RESULT:      -3.5     10.231     10.455
REMARK  Name = 
REMARK                            x       y       z     vdW  Elec       q    Type
REMARK                         _______ _______ _______ _____ _____    ______ ____
ROOT
ATOM      1  O   LIG    1       15.052  48.292  19.984  0.00  0.00    -0.275 OA
ATOM      2  C   LIG    1       15.963  48.113  19.187  0.00  0.00    +0.228 C 
ATOM      3  C   LIG    1       16.290  46.790  18.541  0.00  0.00    +0.172 C 
ATOM      4  S   LIG    1       17.714  47.111  17.463  0.00  0.00    -0.093 S 
ATOM      5  C   LIG    1       17.787  48.799  17.888  0.00  0.00    +0.113 C 
ATOM      6  S   LIG    1       18.875  49.907  17.315  0.00  0.00    -0.028 S 
ATOM      7  N   LIG    1       16.809  49.103  18.778  0.00  0.00    -0.274 N 
ATOM      8  H   LIG    1       16.699  50.041  19.138  0.00  0.00    +0.156 HD
ENDROOT
TORSDOF 0
ENDMDL
