REMARK  Name = 
REMARK                            x       y       z     vdW  Elec       q    Type
REMARK                         _______ _______ _______ _____ _____    ______ ____
ROOT
ATOM      1  O   LIG    1        1.318   0.092   0.556  0.00  0.00    -0.275 OA
ATOM      2  C   LIG    1        2.436  -0.004   0.068  0.00  0.00    +0.228 C 
ATOM      3  C   LIG    1        3.166  -1.304  -0.153  0.00  0.00    +0.172 C 
ATOM      4  S   LIG    1        4.758  -0.850  -0.898  0.00  0.00    -0.093 S 
ATOM      5  C   LIG    1        4.401   0.855  -0.872  0.00  0.00    +0.113 C 
ATOM      6  S   LIG    1        5.390   2.070  -1.406  0.00  0.00    -0.028 S 
ATOM      7  N   LIG    1        3.171   1.071  -0.342  0.00  0.00    -0.274 N 
ATOM      8  H   LIG    1        2.796   2.004  -0.248  0.00  0.00    +0.156 HD
ENDROOT
TORSDOF 0
