MODEL 1
REMARK VINA RESULT:      -4.8      0.000      0.000
REMARK  Name = 
REMARK                            x       y       z     vdW  Elec       q    Type
REMARK                         _______ _______ _______ _____ _____    ______ ____
ROOT
ATOM      1  C   LIG    1       -5.819  -4.229  14.529  0.00  0.00    +0.000 A 
ATOM      2  C   LIG    1       -4.528  -4.628  14.873  0.00  0.00    +0.004 A 
ATOM      3  C   LIG    1       -4.248  -5.033  16.178  0.00  0.00    +0.045 A 
ATOM      4  C   LIG    1       -5.263  -5.036  17.129  0.00  0.00    +0.117 A 
ATOM      5  C   LIG    1       -6.555  -4.641  16.796  0.00  0.00    +0.045 A 
ATOM      6  C   LIG    1       -6.833  -4.235  15.489  0.00  0.00    +0.004 A 
ENDROOT
BRANCH   4   7
ATOM      7  O   LIG    1       -4.946  -5.438  18.393  0.00  0.00    -0.507 OA
ATOM      8  H   LIG    1       -5.751  -5.409  18.936  0.00  0.00    +0.292 HD
ENDBRANCH   4   7
TORSDOF 1
ENDMDL
MODEL 2
REMARK VINA RESULT:      -4.8      1.400      1.989
REMARK  Name = 
REMARK                            x       y       z     vdW  Elec       q    Type
REMARK                         _______ _______ _______ _____ _____    ______ ____
ROOT
ATOM      1  C   LIG    1       -4.433  -4.503  14.277  0.00  0.00    +0.000 A 
ATOM      2  C   LIG    1       -4.284  -4.874  15.613  0.00  0.00    +0.004 A 
ATOM      3  C   LIG    1       -5.357  -4.750  16.495  0.00  0.00    +0.045 A 
ATOM      4  C   LIG    1       -6.573  -4.257  16.033  0.00  0.00    +0.117 A 
ATOM      5  C   LIG    1       -6.734  -3.886  14.702  0.00  0.00    +0.045 A 
ATOM      6  C   LIG    1       -5.658  -4.009  13.821  0.00  0.00    +0.004 A 
ENDROOT
BRANCH   4   7
ATOM      7  O   LIG    1       -7.596  -4.151  16.929  0.00  0.00    -0.507 OA
ATOM      8  H   LIG    1       -8.361  -4.639  16.582  0.00  0.00    +0.292 HD
ENDBRANCH   4   7
TORSDOF 1
ENDMDL
MODEL 3
REMARK VINA RESULT:      -4.8      0.076      1.829
REMARK  Name = 
REMARK                            x       y       z     vdW  Elec       q    Type
REMARK                         _______ _______ _______ _____ _____    ______ ____
ROOT
ATOM      1  C   LIG    1       -5.921  -4.260  14.516  0.00  0.00    +0.000 A 
ATOM      2  C   LIG    1       -6.885  -4.254  15.525  0.00  0.00    +0.004 A 
ATOM      3  C   LIG    1       -6.540  -4.645  16.819  0.00  0.00    +0.045 A 
ATOM      4  C   LIG    1       -5.234  -5.037  17.094  0.00  0.00    +0.117 A 
ATOM      5  C   LIG    1       -4.266  -5.045  16.095  0.00  0.00    +0.045 A 
ATOM      6  C   LIG    1       -4.612  -4.655  14.800  0.00  0.00    +0.004 A 
ENDROOT
BRANCH   4   7
ATOM      7  O   LIG    1       -4.941  -5.413  18.372  0.00  0.00    -0.507 OA
ATOM      8  H   LIG    1       -4.030  -5.749  18.392  0.00  0.00    +0.292 HD
ENDBRANCH   4   7
TORSDOF 1
ENDMDL
MODEL 4
REMARK VINA RESULT:      -4.7      7.805      8.239
REMARK  Name = 
REMARK                            x       y       z     vdW  Elec       q    Type
REMARK                         _______ _______ _______ _____ _____    ______ ____
ROOT
ATOM      1  C   LIG    1       -1.004   1.967  20.287  0.00  0.00    +0.000 A 
ATOM      2  C   LIG    1       -0.182   1.130  19.532  0.00  0.00    +0.004 A 
ATOM      3  C   LIG    1       -0.090  -0.226  19.848  0.00  0.00    +0.045 A 
ATOM      4  C   LIG    1       -0.822  -0.734  20.916  0.00  0.00    +0.117 A 
ATOM      5  C   LIG    1       -1.645   0.092  21.675  0.00  0.00    +0.045 A 
ATOM      6  C   LIG    1       -1.735   1.449  21.358  0.00  0.00    +0.004 A 
ENDROOT
BRANCH   4   7
ATOM      7  O   LIG    1       -0.702  -2.064  21.191  0.00  0.00    -0.507 OA
ATOM      8  H   LIG    1       -1.030  -2.567  20.428  0.00  0.00    +0.292 HD
ENDBRANCH   4   7
TORSDOF 1
ENDMDL
MODEL 5
REMARK VINA RESULT:      -4.6     13.935     14.405
REMARK  Name = 
REMARK                            x       y       z     vdW  Elec       q    Type
REMARK                         _______ _______ _______ _____ _____    ______ ____
ROOT
ATOM      1  C   LIG    1      -17.752 -10.819  20.243  0.00  0.00    +0.000 A 
ATOM      2  C   LIG    1      -17.899  -9.538  19.712  0.00  0.00    +0.004 A 
ATOM      3  C   LIG    1      -18.032  -8.441  20.563  0.00  0.00    +0.045 A 
ATOM      4  C   LIG    1      -18.016  -8.635  21.941  0.00  0.00    +0.117 A 
ATOM      5  C   LIG    1      -17.870  -9.908  22.482  0.00  0.00    +0.045 A 
ATOM      6  C   LIG    1      -17.738 -11.005  21.627  0.00  0.00    +0.004 A 
ENDROOT
BRANCH   4   7
ATOM      7  O   LIG    1      -18.150  -7.536  22.737  0.00  0.00    -0.507 OA
ATOM      8  H   LIG    1      -18.929  -7.035  22.442  0.00  0.00    +0.292 HD
ENDBRANCH   4   7
TORSDOF 1
ENDMDL
MODEL 6
REMARK VINA RESULT:      -4.6      7.849      8.443
REMARK  Name = 
REMARK                            x       y       z     vdW  Elec       q    Type
REMARK                         _______ _______ _______ _____ _____    ______ ____
ROOT
ATOM      1  C   LIG    1       -1.652   0.988  21.358  0.00  0.00    +0.000 A 
ATOM      2  C   LIG    1       -1.306  -0.364  21.373  0.00  0.00    +0.004 A 
ATOM      3  C   LIG    1       -0.473  -0.881  20.382  0.00  0.00    +0.045 A 
ATOM      4  C   LIG    1        0.009  -0.042  19.382  0.00  0.00    +0.117 A 
ATOM      5  C   LIG    1       -0.328   1.307  19.358  0.00  0.00    +0.045 A 
ATOM      6  C   LIG    1       -1.164   1.823  20.351  0.00  0.00    +0.004 A 
ENDROOT
BRANCH   4   7
ATOM      7  O   LIG    1        0.820  -0.589  18.432  0.00  0.00    -0.507 OA
ATOM      8  H   LIG    1        0.463  -0.365  17.557  0.00  0.00    +0.292 HD
ENDBRANCH   4   7
TORSDOF 1
ENDMDL
MODEL 7
REMARK VINA RESULT:      -4.6      7.881      8.336
REMARK  Name = 
REMARK                            x       y       z     vdW  Elec       q    Type
REMARK                         _______ _______ _______ _____ _____    ______ ____
ROOT
ATOM      1  C   LIG    1       -0.258   1.287  19.471  0.00  0.00    +0.000 A 
ATOM      2  C   LIG    1       -1.217   1.798  20.345  0.00  0.00    +0.004 A 
ATOM      3  C   LIG    1       -1.766   0.980  21.332  0.00  0.00    +0.045 A 
ATOM      4  C   LIG    1       -1.351  -0.344  21.437  0.00  0.00    +0.117 A 
ATOM      5  C   LIG    1       -0.394  -0.863  20.572  0.00  0.00    +0.045 A 
ATOM      6  C   LIG    1        0.154  -0.043  19.583  0.00  0.00    +0.004 A 
ENDROOT
BRANCH   4   7
ATOM      7  O   LIG    1       -1.915  -1.110  22.415  0.00  0.00    -0.507 OA
ATOM      8  H   LIG    1       -2.323  -1.887  22.000  0.00  0.00    +0.292 HD
ENDBRANCH   4   7
TORSDOF 1
ENDMDL
MODEL 8
REMARK VINA RESULT:      -4.5      7.992      8.539
REMARK  Name = 
REMARK                            x       y       z     vdW  Elec       q    Type
REMARK                         _______ _______ _______ _____ _____    ______ ____
ROOT
ATOM      1  C   LIG    1        0.111  -0.647  19.449  0.00  0.00    +0.000 A 
ATOM      2  C   LIG    1       -0.572  -1.002  20.613  0.00  0.00    +0.004 A 
ATOM      3  C   LIG    1       -1.266  -0.032  21.336  0.00  0.00    +0.045 A 
ATOM      4  C   LIG    1       -1.273   1.285  20.889  0.00  0.00    +0.117 A 
ATOM      5  C   LIG    1       -0.597   1.649  19.729  0.00  0.00    +0.045 A 
ATOM      6  C   LIG    1        0.099   0.677  19.007  0.00  0.00    +0.004 A 
ENDROOT
BRANCH   4   7
ATOM      7  O   LIG    1       -1.962   2.201  21.627  0.00  0.00    -0.507 OA
ATOM      8  H   LIG    1       -2.826   1.822  21.859  0.00  0.00    +0.292 HD
ENDBRANCH   4   7
TORSDOF 1
ENDMDL
MODEL 9
REMARK VINA RESULT:      -4.5      1.972      2.674
REMARK  Name = 
REMARK                            x       y       z     vdW  Elec       q    Type
REMARK                         _______ _______ _______ _____ _____    ______ ____
ROOT
ATOM      1  C   LIG    1       -4.319  -4.912  15.779  0.00  0.00    +0.000 A 
ATOM      2  C   LIG    1       -4.683  -4.786  14.438  0.00  0.00    +0.004 A 
ATOM      3  C   LIG    1       -6.016  -4.558  14.097  0.00  0.00    +0.045 A 
ATOM      4  C   LIG    1       -6.974  -4.457  15.100  0.00  0.00    +0.117 A 
ATOM      5  C   LIG    1       -6.622  -4.579  16.440  0.00  0.00    +0.045 A 
ATOM      6  C   LIG    1       -5.287  -4.808  16.780  0.00  0.00    +0.004 A 
ENDROOT
BRANCH   4   7
ATOM      7  O   LIG    1       -8.266  -4.235  14.722  0.00  0.00    -0.507 OA
ATOM      8  H   LIG    1       -8.413  -4.663  13.863  0.00  0.00    +0.292 HD
ENDBRANCH   4   7
TORSDOF 1
ENDMDL
