MODEL 1
REMARK VINA RESULT:      -5.1      0.000      0.000
REMARK  Name = 
REMARK                            x       y       z     vdW  Elec       q    Type
REMARK                         _______ _______ _______ _____ _____    ______ ____
ROOT
ATOM      1  C   LIG    1        2.699  29.807   4.571  0.00  0.00    +0.000 A 
ATOM      2  C   LIG    1        3.963  29.652   5.140  0.00  0.00    +0.004 A 
ATOM      3  C   LIG    1        4.401  28.387   5.529  0.00  0.00    +0.045 A 
ATOM      4  C   LIG    1        3.572  27.285   5.345  0.00  0.00    +0.117 A 
ATOM      5  C   LIG    1        2.309  27.428   4.778  0.00  0.00    +0.045 A 
ATOM      6  C   LIG    1        1.872  28.696   4.390  0.00  0.00    +0.004 A 
ENDROOT
BRANCH   4   7
ATOM      7  O   LIG    1        4.039  26.067   5.741  0.00  0.00    -0.507 OA
ATOM      8  H   LIG    1        4.099  25.492   4.960  0.00  0.00    +0.292 HD
ENDBRANCH   4   7
TORSDOF 1
ENDMDL
MODEL 2
REMARK VINA RESULT:      -5.1      0.042      1.829
REMARK  Name = 
REMARK                            x       y       z     vdW  Elec       q    Type
REMARK                         _______ _______ _______ _____ _____    ______ ____
ROOT
ATOM      1  C   LIG    1        2.687  29.791   4.553  0.00  0.00    +0.000 A 
ATOM      2  C   LIG    1        1.891  28.659   4.377  0.00  0.00    +0.004 A 
ATOM      3  C   LIG    1        2.362  27.408   4.772  0.00  0.00    +0.045 A 
ATOM      4  C   LIG    1        3.626  27.298   5.342  0.00  0.00    +0.117 A 
ATOM      5  C   LIG    1        4.428  28.420   5.524  0.00  0.00    +0.045 A 
ATOM      6  C   LIG    1        3.955  29.672   5.127  0.00  0.00    +0.004 A 
ENDROOT
BRANCH   4   7
ATOM      7  O   LIG    1        4.049  26.055   5.714  0.00  0.00    -0.507 OA
ATOM      8  H   LIG    1        3.609  25.817   6.547  0.00  0.00    +0.292 HD
ENDBRANCH   4   7
TORSDOF 1
ENDMDL
MODEL 3
REMARK VINA RESULT:      -5.0      8.201      9.271
REMARK  Name = 
REMARK                            x       y       z     vdW  Elec       q    Type
REMARK                         _______ _______ _______ _____ _____    ______ ____
ROOT
ATOM      1  C   LIG    1        4.634  21.924  13.406  0.00  0.00    +0.000 A 
ATOM      2  C   LIG    1        5.194  22.969  12.671  0.00  0.00    +0.004 A 
ATOM      3  C   LIG    1        4.722  23.249  11.389  0.00  0.00    +0.045 A 
ATOM      4  C   LIG    1        3.692  22.483  10.852  0.00  0.00    +0.117 A 
ATOM      5  C   LIG    1        3.126  21.439  11.578  0.00  0.00    +0.045 A 
ATOM      6  C   LIG    1        3.601  21.159  12.861  0.00  0.00    +0.004 A 
ENDROOT
BRANCH   4   7
ATOM      7  O   LIG    1        3.261  22.790   9.595  0.00  0.00    -0.507 OA
ATOM      8  H   LIG    1        3.704  22.199   8.965  0.00  0.00    +0.292 HD
ENDBRANCH   4   7
TORSDOF 1
ENDMDL
MODEL 4
REMARK VINA RESULT:      -4.6      8.538      9.611
REMARK  Name = 
REMARK                            x       y       z     vdW  Elec       q    Type
REMARK                         _______ _______ _______ _____ _____    ______ ____
ROOT
ATOM      1  C   LIG    1        3.186  22.003  10.753  0.00  0.00    +0.000 A 
ATOM      2  C   LIG    1        3.028  21.179  11.867  0.00  0.00    +0.004 A 
ATOM      3  C   LIG    1        3.880  21.317  12.963  0.00  0.00    +0.045 A 
ATOM      4  C   LIG    1        4.884  22.280  12.936  0.00  0.00    +0.117 A 
ATOM      5  C   LIG    1        5.050  23.108  11.830  0.00  0.00    +0.045 A 
ATOM      6  C   LIG    1        4.196  22.968  10.734  0.00  0.00    +0.004 A 
ENDROOT
BRANCH   4   7
ATOM      7  O   LIG    1        5.696  22.381  14.027  0.00  0.00    -0.507 OA
ATOM      8  H   LIG    1        5.986  23.304  14.110  0.00  0.00    +0.292 HD
ENDBRANCH   4   7
TORSDOF 1
ENDMDL
MODEL 5
REMARK VINA RESULT:      -4.6      8.405      8.485
REMARK  Name = 
REMARK                            x       y       z     vdW  Elec       q    Type
REMARK                         _______ _______ _______ _____ _____    ______ ____
ROOT
ATOM      1  C   LIG    1        1.733  21.382  10.148  0.00  0.00    +0.000 A 
ATOM      2  C   LIG    1        3.021  21.566  10.653  0.00  0.00    +0.004 A 
ATOM      3  C   LIG    1        4.128  21.214   9.883  0.00  0.00    +0.045 A 
ATOM      4  C   LIG    1        3.940  20.680   8.612  0.00  0.00    +0.117 A 
ATOM      5  C   LIG    1        2.661  20.494   8.098  0.00  0.00    +0.045 A 
ATOM      6  C   LIG    1        1.553  20.846   8.871  0.00  0.00    +0.004 A 
ENDROOT
BRANCH   4   7
ATOM      7  O   LIG    1        5.051  20.348   7.893  0.00  0.00    -0.507 OA
ATOM      8  H   LIG    1        5.201  19.393   7.982  0.00  0.00    +0.292 HD
ENDBRANCH   4   7
TORSDOF 1
ENDMDL
MODEL 6
REMARK VINA RESULT:      -4.6      7.412      8.633
REMARK  Name = 
REMARK                            x       y       z     vdW  Elec       q    Type
REMARK                         _______ _______ _______ _____ _____    ______ ____
ROOT
ATOM      1  C   LIG    1        5.039  22.228  12.216  0.00  0.00    +0.000 A 
ATOM      2  C   LIG    1        5.080  21.038  11.488  0.00  0.00    +0.004 A 
ATOM      3  C   LIG    1        4.533  20.986  10.207  0.00  0.00    +0.045 A 
ATOM      4  C   LIG    1        3.950  22.125   9.661  0.00  0.00    +0.117 A 
ATOM      5  C   LIG    1        3.904  23.317  10.377  0.00  0.00    +0.045 A 
ATOM      6  C   LIG    1        4.451  23.367  11.661  0.00  0.00    +0.004 A 
ENDROOT
BRANCH   4   7
ATOM      7  O   LIG    1        3.426  22.030   8.406  0.00  0.00    -0.507 OA
ATOM      8  H   LIG    1        4.070  21.578   7.837  0.00  0.00    +0.292 HD
ENDBRANCH   4   7
TORSDOF 1
ENDMDL
MODEL 7
REMARK VINA RESULT:      -4.6      1.915      2.852
REMARK  Name = 
REMARK                            x       y       z     vdW  Elec       q    Type
REMARK                         _______ _______ _______ _____ _____    ______ ____
ROOT
ATOM      1  C   LIG    1        4.056  28.590   5.361  0.00  0.00    +0.000 A 
ATOM      2  C   LIG    1        3.322  27.408   5.467  0.00  0.00    +0.004 A 
ATOM      3  C   LIG    1        1.959  27.406   5.172  0.00  0.00    +0.045 A 
ATOM      4  C   LIG    1        1.340  28.586   4.773  0.00  0.00    +0.117 A 
ATOM      5  C   LIG    1        2.062  29.770   4.662  0.00  0.00    +0.045 A 
ATOM      6  C   LIG    1        3.427  29.771   4.959  0.00  0.00    +0.004 A 
ENDROOT
BRANCH   4   7
ATOM      7  O   LIG    1        0.006  28.539   4.495  0.00  0.00    -0.507 OA
ATOM      8  H   LIG    1       -0.120  28.734   3.552  0.00  0.00    +0.292 HD
ENDBRANCH   4   7
TORSDOF 1
ENDMDL
MODEL 8
REMARK VINA RESULT:      -4.4      8.496      8.680
REMARK  Name = 
REMARK                            x       y       z     vdW  Elec       q    Type
REMARK                         _______ _______ _______ _____ _____    ______ ____
ROOT
ATOM      1  C   LIG    1        1.868  20.799   8.460  0.00  0.00    +0.000 A 
ATOM      2  C   LIG    1        3.130  20.380   8.039  0.00  0.00    +0.004 A 
ATOM      3  C   LIG    1        4.233  20.541   8.877  0.00  0.00    +0.045 A 
ATOM      4  C   LIG    1        4.065  21.121  10.130  0.00  0.00    +0.117 A 
ATOM      5  C   LIG    1        2.811  21.542  10.561  0.00  0.00    +0.045 A 
ATOM      6  C   LIG    1        1.708  21.380   9.720  0.00  0.00    +0.004 A 
ENDROOT
BRANCH   4   7
ATOM      7  O   LIG    1        5.170  21.261  10.917  0.00  0.00    -0.507 OA
ATOM      8  H   LIG    1        5.951  21.323  10.343  0.00  0.00    +0.292 HD
ENDBRANCH   4   7
TORSDOF 1
ENDMDL
MODEL 9
REMARK VINA RESULT:      -4.4      7.865      8.764
REMARK  Name = 
REMARK                            x       y       z     vdW  Elec       q    Type
REMARK                         _______ _______ _______ _____ _____    ______ ____
ROOT
ATOM      1  C   LIG    1        3.925  22.766  10.648  0.00  0.00    +0.000 A 
ATOM      2  C   LIG    1        4.840  22.086  11.452  0.00  0.00    +0.004 A 
ATOM      3  C   LIG    1        5.387  20.879  11.017  0.00  0.00    +0.045 A 
ATOM      4  C   LIG    1        5.016  20.361   9.781  0.00  0.00    +0.117 A 
ATOM      5  C   LIG    1        4.105  21.032   8.970  0.00  0.00    +0.045 A 
ATOM      6  C   LIG    1        3.557  22.240   9.408  0.00  0.00    +0.004 A 
ENDROOT
BRANCH   4   7
ATOM      7  O   LIG    1        5.574  19.179   9.395  0.00  0.00    -0.507 OA
ATOM      8  H   LIG    1        6.220  19.358   8.692  0.00  0.00    +0.292 HD
ENDBRANCH   4   7
TORSDOF 1
ENDMDL
