MODEL 1
REMARK VINA RESULT:      -8.3      0.000      0.000
REMARK  Name = 
REMARK                            x       y       z     vdW  Elec       q    Type
REMARK                         _______ _______ _______ _____ _____    ______ ____
ROOT
ATOM      1  C   LIG    1       -7.149  -4.973  12.630  0.00  0.00    +0.015 C 
ATOM      2  C   LIG    1       -6.234  -5.061  11.376  0.00  0.00    +0.021 C 
ATOM      3  C   LIG    1       -7.977  -6.288  12.594  0.00  0.00    +0.021 C 
ENDROOT
BRANCH   1   7
ATOM      4  C   LIG    1      -10.000  -1.668  12.665  0.00  0.00    +0.117 A 
ATOM      5  C   LIG    1       -8.667  -1.410  12.384  0.00  0.00    +0.046 A 
ATOM      6  C   LIG    1       -7.742  -2.460  12.348  0.00  0.00    +0.008 A 
ATOM      7  C   LIG    1       -8.141  -3.784  12.594  0.00  0.00    -0.037 A 
ATOM      8  C   LIG    1       -9.507  -4.010  12.868  0.00  0.00    +0.008 A 
ATOM      9  C   LIG    1      -10.434  -2.964  12.903  0.00  0.00    +0.046 A 
BRANCH   4  10
ATOM     10  O   LIG    1      -10.863  -0.613  12.709  0.00  0.00    -0.507 OA
ATOM     11  H   LIG    1      -11.549  -0.751  12.036  0.00  0.00    +0.292 HD
ENDBRANCH   4  10
ENDBRANCH   1   7
BRANCH   1  12
ATOM     12  C   LIG    1       -6.255  -4.842  13.889  0.00  0.00    -0.037 A 
ATOM     13  C   LIG    1       -4.851  -4.863  13.760  0.00  0.00    +0.008 A 
ATOM     14  C   LIG    1       -4.014  -4.667  14.862  0.00  0.00    +0.046 A 
ATOM     15  C   LIG    1       -4.568  -4.423  16.109  0.00  0.00    +0.117 A 
ATOM     16  C   LIG    1       -5.946  -4.393  16.276  0.00  0.00    +0.046 A 
ATOM     17  C   LIG    1       -6.783  -4.606  15.173  0.00  0.00    +0.008 A 
BRANCH  15  18
ATOM     18  O   LIG    1       -3.718  -4.198  17.150  0.00  0.00    -0.507 OA
ATOM     19  H   LIG    1       -3.317  -5.044  17.409  0.00  0.00    +0.292 HD
ENDBRANCH  15  18
ENDBRANCH   1  12
TORSDOF 4
ENDMDL
MODEL 2
REMARK VINA RESULT:      -8.3      0.050      5.540
REMARK  Name = 
REMARK                            x       y       z     vdW  Elec       q    Type
REMARK                         _______ _______ _______ _____ _____    ______ ____
ROOT
ATOM      1  C   LIG    1       -7.155  -4.993  12.611  0.00  0.00    +0.015 C 
ATOM      2  C   LIG    1       -7.947  -6.330  12.574  0.00  0.00    +0.021 C 
ATOM      3  C   LIG    1       -6.228  -5.062  11.364  0.00  0.00    +0.021 C 
ENDROOT
BRANCH   1   7
ATOM      4  C   LIG    1       -4.548  -4.438  16.066  0.00  0.00    +0.117 A 
ATOM      5  C   LIG    1       -5.923  -4.413  16.244  0.00  0.00    +0.046 A 
ATOM      6  C   LIG    1       -6.775  -4.610  15.151  0.00  0.00    +0.008 A 
ATOM      7  C   LIG    1       -6.259  -4.833  13.863  0.00  0.00    -0.037 A 
ATOM      8  C   LIG    1       -4.855  -4.861  13.722  0.00  0.00    +0.008 A 
ATOM      9  C   LIG    1       -4.001  -4.667  14.811  0.00  0.00    +0.046 A 
BRANCH   4  10
ATOM     10  O   LIG    1       -3.756  -4.223  17.155  0.00  0.00    -0.507 OA
ATOM     11  H   LIG    1       -3.512  -3.284  17.176  0.00  0.00    +0.292 HD
ENDBRANCH   4  10
ENDBRANCH   1   7
BRANCH   1  12
ATOM     12  C   LIG    1       -8.164  -3.817  12.563  0.00  0.00    -0.037 A 
ATOM     13  C   LIG    1       -9.524  -4.045  12.857  0.00  0.00    +0.008 A 
ATOM     14  C   LIG    1      -10.446  -2.996  12.903  0.00  0.00    +0.046 A 
ATOM     15  C   LIG    1      -10.019  -1.697  12.678  0.00  0.00    +0.117 A 
ATOM     16  C   LIG    1       -8.687  -1.432  12.387  0.00  0.00    +0.046 A 
ATOM     17  C   LIG    1       -7.768  -2.487  12.325  0.00  0.00    +0.008 A 
BRANCH  15  18
ATOM     18  O   LIG    1      -10.941  -0.698  12.770  0.00  0.00    -0.507 OA
ATOM     19  H   LIG    1      -10.977  -0.396  13.692  0.00  0.00    +0.292 HD
ENDBRANCH  15  18
ENDBRANCH   1  12
TORSDOF 4
ENDMDL
MODEL 3
REMARK VINA RESULT:      -8.1      2.533      4.342
REMARK  Name = 
REMARK                            x       y       z     vdW  Elec       q    Type
REMARK                         _______ _______ _______ _____ _____    ______ ____
ROOT
ATOM      1  C   LIG    1       -7.557  -4.192  13.060  0.00  0.00    +0.015 C 
ATOM      2  C   LIG    1       -9.062  -4.008  13.404  0.00  0.00    +0.021 C 
ATOM      3  C   LIG    1       -7.184  -2.907  12.269  0.00  0.00    +0.021 C 
ENDROOT
BRANCH   1   7
ATOM      4  C   LIG    1       -6.602  -7.608  10.516  0.00  0.00    +0.117 A 
ATOM      5  C   LIG    1       -7.550  -7.752  11.517  0.00  0.00    +0.046 A 
ATOM      6  C   LIG    1       -7.885  -6.663  12.329  0.00  0.00    +0.008 A 
ATOM      7  C   LIG    1       -7.271  -5.412  12.149  0.00  0.00    -0.037 A 
ATOM      8  C   LIG    1       -6.317  -5.299  11.115  0.00  0.00    +0.008 A 
ATOM      9  C   LIG    1       -5.982  -6.385  10.301  0.00  0.00    +0.046 A 
BRANCH   4  10
ATOM     10  O   LIG    1       -6.293  -8.700   9.761  0.00  0.00    -0.507 OA
ATOM     11  H   LIG    1       -5.677  -8.426   9.063  0.00  0.00    +0.292 HD
ENDBRANCH   4  10
ENDBRANCH   1   7
BRANCH   1  12
ATOM     12  C   LIG    1       -6.761  -4.355  14.380  0.00  0.00    -0.037 A 
ATOM     13  C   LIG    1       -7.450  -4.487  15.604  0.00  0.00    +0.008 A 
ATOM     14  C   LIG    1       -6.768  -4.716  16.802  0.00  0.00    +0.046 A 
ATOM     15  C   LIG    1       -5.389  -4.841  16.794  0.00  0.00    +0.117 A 
ATOM     16  C   LIG    1       -4.676  -4.718  15.609  0.00  0.00    +0.046 A 
ATOM     17  C   LIG    1       -5.359  -4.472  14.411  0.00  0.00    +0.008 A 
BRANCH  15  18
ATOM     18  O   LIG    1       -4.765  -5.103  17.977  0.00  0.00    -0.507 OA
ATOM     19  H   LIG    1       -5.275  -4.688  18.692  0.00  0.00    +0.292 HD
ENDBRANCH  15  18
ENDBRANCH   1  12
TORSDOF 4
ENDMDL
MODEL 4
REMARK VINA RESULT:      -8.1      2.540      5.237
REMARK  Name = 
REMARK                            x       y       z     vdW  Elec       q    Type
REMARK                         _______ _______ _______ _____ _____    ______ ____
ROOT
ATOM      1  C   LIG    1       -7.544  -4.177  13.080  0.00  0.00    +0.015 C 
ATOM      2  C   LIG    1       -7.162  -2.878  12.317  0.00  0.00    +0.021 C 
ATOM      3  C   LIG    1       -9.044  -3.986  13.438  0.00  0.00    +0.021 C 
ENDROOT
BRANCH   1   7
ATOM      4  C   LIG    1       -5.430  -4.854  16.838  0.00  0.00    +0.117 A 
ATOM      5  C   LIG    1       -4.704  -4.752  15.661  0.00  0.00    +0.046 A 
ATOM      6  C   LIG    1       -5.362  -4.514  14.449  0.00  0.00    +0.008 A 
ATOM      7  C   LIG    1       -6.760  -4.377  14.401  0.00  0.00    -0.037 A 
ATOM      8  C   LIG    1       -7.465  -4.478  15.619  0.00  0.00    +0.008 A 
ATOM      9  C   LIG    1       -6.810  -4.714  16.831  0.00  0.00    +0.046 A 
BRANCH   4  10
ATOM     10  O   LIG    1       -4.749  -5.105  17.993  0.00  0.00    -0.507 OA
ATOM     11  H   LIG    1       -3.842  -4.774  17.891  0.00  0.00    +0.292 HD
ENDBRANCH   4  10
ENDBRANCH   1   7
BRANCH   1  12
ATOM     12  C   LIG    1       -7.282  -5.393  12.154  0.00  0.00    -0.037 A 
ATOM     13  C   LIG    1       -6.294  -5.312  11.151  0.00  0.00    +0.008 A 
ATOM     14  C   LIG    1       -5.975  -6.413  10.351  0.00  0.00    +0.046 A 
ATOM     15  C   LIG    1       -6.623  -7.620  10.557  0.00  0.00    +0.117 A 
ATOM     16  C   LIG    1       -7.601  -7.739  11.535  0.00  0.00    +0.046 A 
ATOM     17  C   LIG    1       -7.930  -6.631  12.325  0.00  0.00    +0.008 A 
BRANCH  15  18
ATOM     18  O   LIG    1       -6.256  -8.680   9.782  0.00  0.00    -0.507 OA
ATOM     19  H   LIG    1       -5.923  -9.384  10.362  0.00  0.00    +0.292 HD
ENDBRANCH  15  18
ENDBRANCH   1  12
TORSDOF 4
ENDMDL
MODEL 5
REMARK VINA RESULT:      -8.0      1.814      2.642
REMARK  Name = 
REMARK                            x       y       z     vdW  Elec       q    Type
REMARK                         _______ _______ _______ _____ _____    ______ ____
ROOT
ATOM      1  C   LIG    1       -6.933  -5.617  12.278  0.00  0.00    +0.015 C 
ATOM      2  C   LIG    1       -6.150  -6.794  11.631  0.00  0.00    +0.021 C 
ATOM      3  C   LIG    1       -8.284  -6.249  12.716  0.00  0.00    +0.021 C 
ENDROOT
BRANCH   1   7
ATOM      4  C   LIG    1       -7.872  -2.459   9.416  0.00  0.00    +0.117 A 
ATOM      5  C   LIG    1       -8.197  -2.281  10.752  0.00  0.00    +0.046 A 
ATOM      6  C   LIG    1       -7.885  -3.274  11.688  0.00  0.00    +0.008 A 
ATOM      7  C   LIG    1       -7.243  -4.460  11.296  0.00  0.00    -0.037 A 
ATOM      8  C   LIG    1       -6.919  -4.603   9.930  0.00  0.00    +0.008 A 
ATOM      9  C   LIG    1       -7.228  -3.612   8.993  0.00  0.00    +0.046 A 
BRANCH   4  10
ATOM     10  O   LIG    1       -8.211  -1.474   8.536  0.00  0.00    -0.507 OA
ATOM     11  H   LIG    1       -9.065  -1.702   8.135  0.00  0.00    +0.292 HD
ENDBRANCH   4  10
ENDBRANCH   1   7
BRANCH   1  12
ATOM     12  C   LIG    1       -6.102  -5.059  13.462  0.00  0.00    -0.037 A 
ATOM     13  C   LIG    1       -6.749  -4.672  14.654  0.00  0.00    +0.008 A 
ATOM     14  C   LIG    1       -6.026  -4.242  15.770  0.00  0.00    +0.046 A 
ATOM     15  C   LIG    1       -4.642  -4.212  15.720  0.00  0.00    +0.117 A 
ATOM     16  C   LIG    1       -3.968  -4.587  14.565  0.00  0.00    +0.046 A 
ATOM     17  C   LIG    1       -4.695  -5.002  13.443  0.00  0.00    +0.008 A 
BRANCH  15  18
ATOM     18  O   LIG    1       -3.972  -3.823  16.842  0.00  0.00    -0.507 OA
ATOM     19  H   LIG    1       -4.155  -2.883  17.000  0.00  0.00    +0.292 HD
ENDBRANCH  15  18
ENDBRANCH   1  12
TORSDOF 4
ENDMDL
MODEL 6
REMARK VINA RESULT:      -8.0      2.774      3.724
REMARK  Name = 
REMARK                            x       y       z     vdW  Elec       q    Type
REMARK                         _______ _______ _______ _____ _____    ______ ____
ROOT
ATOM      1  C   LIG    1       -5.864  -6.152  11.535  0.00  0.00    +0.015 C 
ATOM      2  C   LIG    1       -4.341  -5.894  11.358  0.00  0.00    +0.021 C 
ATOM      3  C   LIG    1       -5.996  -7.701  11.520  0.00  0.00    +0.021 C 
ENDROOT
BRANCH   1   7
ATOM      4  C   LIG    1       -8.421  -4.649   8.332  0.00  0.00    +0.117 A 
ATOM      5  C   LIG    1       -7.697  -3.750   9.100  0.00  0.00    +0.046 A 
ATOM      6  C   LIG    1       -6.856  -4.214  10.118  0.00  0.00    +0.008 A 
ATOM      7  C   LIG    1       -6.730  -5.588  10.381  0.00  0.00    -0.037 A 
ATOM      8  C   LIG    1       -7.474  -6.475   9.573  0.00  0.00    +0.008 A 
ATOM      9  C   LIG    1       -8.313  -6.015   8.555  0.00  0.00    +0.046 A 
BRANCH   4  10
ATOM     10  O   LIG    1       -9.242  -4.152   7.364  0.00  0.00    -0.507 OA
ATOM     11  H   LIG    1       -9.961  -4.787   7.216  0.00  0.00    +0.292 HD
ENDBRANCH   4  10
ENDBRANCH   1   7
BRANCH   1  12
ATOM     12  C   LIG    1       -6.326  -5.508  12.867  0.00  0.00    -0.037 A 
ATOM     13  C   LIG    1       -7.681  -5.578  13.249  0.00  0.00    +0.008 A 
ATOM     14  C   LIG    1       -8.119  -5.080  14.480  0.00  0.00    +0.046 A 
ATOM     15  C   LIG    1       -7.204  -4.525  15.359  0.00  0.00    +0.117 A 
ATOM     16  C   LIG    1       -5.860  -4.439  15.020  0.00  0.00    +0.046 A 
ATOM     17  C   LIG    1       -5.426  -4.923  13.779  0.00  0.00    +0.008 A 
BRANCH  15  18
ATOM     18  O   LIG    1       -7.664  -4.086  16.565  0.00  0.00    -0.507 OA
ATOM     19  H   LIG    1       -8.118  -4.821  17.007  0.00  0.00    +0.292 HD
ENDBRANCH  15  18
ENDBRANCH   1  12
TORSDOF 4
ENDMDL
MODEL 7
REMARK VINA RESULT:      -7.9      2.773      5.586
REMARK  Name = 
REMARK                            x       y       z     vdW  Elec       q    Type
REMARK                         _______ _______ _______ _____ _____    ______ ____
ROOT
ATOM      1  C   LIG    1       -5.861  -6.202  11.498  0.00  0.00    +0.015 C 
ATOM      2  C   LIG    1       -5.982  -7.752  11.463  0.00  0.00    +0.021 C 
ATOM      3  C   LIG    1       -4.337  -5.933  11.351  0.00  0.00    +0.021 C 
ENDROOT
BRANCH   1   7
ATOM      4  C   LIG    1       -7.260  -4.551  15.288  0.00  0.00    +0.117 A 
ATOM      5  C   LIG    1       -5.916  -4.452  14.960  0.00  0.00    +0.046 A 
ATOM      6  C   LIG    1       -5.452  -4.957  13.740  0.00  0.00    +0.008 A 
ATOM      7  C   LIG    1       -6.331  -5.571  12.831  0.00  0.00    -0.037 A 
ATOM      8  C   LIG    1       -7.693  -5.646  13.194  0.00  0.00    +0.008 A 
ATOM      9  C   LIG    1       -8.159  -5.141  14.411  0.00  0.00    +0.046 A 
BRANCH   4  10
ATOM     10  O   LIG    1       -7.664  -4.063  16.495  0.00  0.00    -0.507 OA
ATOM     11  H   LIG    1       -6.916  -3.595  16.902  0.00  0.00    +0.292 HD
ENDBRANCH   4  10
ENDBRANCH   1   7
BRANCH   1  12
ATOM     12  C   LIG    1       -6.705  -5.612  10.339  0.00  0.00    -0.037 A 
ATOM     13  C   LIG    1       -7.445  -6.470   9.500  0.00  0.00    +0.008 A 
ATOM     14  C   LIG    1       -8.280  -5.969   8.497  0.00  0.00    +0.046 A 
ATOM     15  C   LIG    1       -8.406  -4.599   8.332  0.00  0.00    +0.117 A 
ATOM     16  C   LIG    1       -7.695  -3.722   9.139  0.00  0.00    +0.046 A 
ATOM     17  C   LIG    1       -6.847  -4.226  10.133  0.00  0.00    +0.008 A 
BRANCH  15  18
ATOM     18  O   LIG    1       -9.260  -4.150   7.369  0.00  0.00    -0.507 OA
ATOM     19  H   LIG    1       -8.745  -3.669   6.701  0.00  0.00    +0.292 HD
ENDBRANCH  15  18
ENDBRANCH   1  12
TORSDOF 4
ENDMDL
MODEL 8
REMARK VINA RESULT:      -7.8      2.661      5.948
REMARK  Name = 
REMARK                            x       y       z     vdW  Elec       q    Type
REMARK                         _______ _______ _______ _____ _____    ______ ____
ROOT
ATOM      1  C   LIG    1       -8.876  -2.709  12.578  0.00  0.00    +0.015 C 
ATOM      2  C   LIG    1       -8.846  -1.154  12.560  0.00  0.00    +0.021 C 
ATOM      3  C   LIG    1      -10.216  -3.058  13.285  0.00  0.00    +0.021 C 
ENDROOT
BRANCH   1   7
ATOM      4  C   LIG    1       -5.707  -4.635  14.880  0.00  0.00    +0.117 A 
ATOM      5  C   LIG    1       -5.371  -3.865  13.776  0.00  0.00    +0.046 A 
ATOM      6  C   LIG    1       -6.372  -3.223  13.038  0.00  0.00    +0.008 A 
ATOM      7  C   LIG    1       -7.725  -3.345  13.396  0.00  0.00    -0.037 A 
ATOM      8  C   LIG    1       -8.029  -4.128  14.531  0.00  0.00    +0.008 A 
ATOM      9  C   LIG    1       -7.032  -4.770  15.271  0.00  0.00    +0.046 A 
BRANCH   4  10
ATOM     10  O   LIG    1       -4.701  -5.257  15.558  0.00  0.00    -0.507 OA
ATOM     11  H   LIG    1       -4.139  -5.720  14.916  0.00  0.00    +0.292 HD
ENDBRANCH   4  10
ENDBRANCH   1   7
BRANCH   1  12
ATOM     12  C   LIG    1       -8.798  -3.225  11.119  0.00  0.00    -0.037 A 
ATOM     13  C   LIG    1       -9.412  -4.446  10.771  0.00  0.00    +0.008 A 
ATOM     14  C   LIG    1       -9.431  -4.903   9.450  0.00  0.00    +0.046 A 
ATOM     15  C   LIG    1       -8.856  -4.134   8.451  0.00  0.00    +0.117 A 
ATOM     16  C   LIG    1       -8.243  -2.926   8.753  0.00  0.00    +0.046 A 
ATOM     17  C   LIG    1       -8.210  -2.478  10.080  0.00  0.00    +0.008 A 
BRANCH  15  18
ATOM     18  O   LIG    1       -8.930  -4.596   7.170  0.00  0.00    -0.507 OA
ATOM     19  H   LIG    1       -9.608  -5.290   7.131  0.00  0.00    +0.292 HD
ENDBRANCH  15  18
ENDBRANCH   1  12
TORSDOF 4
ENDMDL
MODEL 9
REMARK VINA RESULT:      -7.8      2.402      3.659
REMARK  Name = 
REMARK                            x       y       z     vdW  Elec       q    Type
REMARK                         _______ _______ _______ _____ _____    ______ ____
ROOT
ATOM      1  C   LIG    1       -7.714  -3.727  13.131  0.00  0.00    +0.015 C 
ATOM      2  C   LIG    1       -9.202  -3.564  13.551  0.00  0.00    +0.021 C 
ATOM      3  C   LIG    1       -7.317  -2.331  12.574  0.00  0.00    +0.021 C 
ENDROOT
BRANCH   1   7
ATOM      4  C   LIG    1       -7.244  -6.705   9.974  0.00  0.00    +0.117 A 
ATOM      5  C   LIG    1       -6.781  -5.415   9.764  0.00  0.00    +0.046 A 
ATOM      6  C   LIG    1       -6.905  -4.451  10.771  0.00  0.00    +0.008 A 
ATOM      7  C   LIG    1       -7.495  -4.769  12.006  0.00  0.00    -0.037 A 
ATOM      8  C   LIG    1       -7.946  -6.095  12.189  0.00  0.00    +0.008 A 
ATOM      9  C   LIG    1       -7.822  -7.059  11.185  0.00  0.00    +0.046 A 
BRANCH   4  10
ATOM     10  O   LIG    1       -7.120  -7.605   8.958  0.00  0.00    -0.507 OA
ATOM     11  H   LIG    1       -7.105  -8.498   9.340  0.00  0.00    +0.292 HD
ENDBRANCH   4  10
ENDBRANCH   1   7
BRANCH   1  12
ATOM     12  C   LIG    1       -6.889  -4.151  14.373  0.00  0.00    -0.037 A 
ATOM     13  C   LIG    1       -5.481  -4.174  14.308  0.00  0.00    +0.008 A 
ATOM     14  C   LIG    1       -4.704  -4.473  15.430  0.00  0.00    +0.046 A 
ATOM     15  C   LIG    1       -5.321  -4.730  16.643  0.00  0.00    +0.117 A 
ATOM     16  C   LIG    1       -6.706  -4.716  16.748  0.00  0.00    +0.046 A 
ATOM     17  C   LIG    1       -7.483  -4.433  15.618  0.00  0.00    +0.008 A 
BRANCH  15  18
ATOM     18  O   LIG    1       -4.527  -4.979  17.723  0.00  0.00    -0.507 OA
ATOM     19  H   LIG    1       -3.888  -5.669  17.483  0.00  0.00    +0.292 HD
ENDBRANCH  15  18
ENDBRANCH   1  12
TORSDOF 4
ENDMDL
