MODEL 1
REMARK VINA RESULT:      -8.5      0.000      0.000
REMARK  Name = 
REMARK                            x       y       z     vdW  Elec       q    Type
REMARK                         _______ _______ _______ _____ _____    ______ ____
ROOT
ATOM      1  C   LIG    1       67.588  46.562  95.840  0.00  0.00    +0.015 C 
ATOM      2  C   LIG    1       66.043  46.391  95.867  0.00  0.00    +0.021 C 
ATOM      3  C   LIG    1       68.138  45.110  95.923  0.00  0.00    +0.021 C 
ENDROOT
BRANCH   1   7
ATOM      4  C   LIG    1       69.308  48.751  99.202  0.00  0.00    +0.117 A 
ATOM      5  C   LIG    1       68.385  49.383  98.382  0.00  0.00    +0.046 A 
ATOM      6  C   LIG    1       67.807  48.691  97.312  0.00  0.00    +0.008 A 
ATOM      7  C   LIG    1       68.148  47.354  97.047  0.00  0.00    -0.037 A 
ATOM      8  C   LIG    1       69.084  46.740  97.907  0.00  0.00    +0.008 A 
ATOM      9  C   LIG    1       69.662  47.428  98.978  0.00  0.00    +0.046 A 
BRANCH   4  10
ATOM     10  O   LIG    1       69.859  49.469 100.221  0.00  0.00    -0.507 OA
ATOM     11  H   LIG    1       69.808  48.938 101.033  0.00  0.00    +0.292 HD
ENDBRANCH   4  10
ENDBRANCH   1   7
BRANCH   1  12
ATOM     12  C   LIG    1       67.984  47.296  94.533  0.00  0.00    -0.037 A 
ATOM     13  C   LIG    1       66.985  47.699  93.623  0.00  0.00    +0.008 A 
ATOM     14  C   LIG    1       67.297  48.433  92.475  0.00  0.00    +0.046 A 
ATOM     15  C   LIG    1       68.611  48.797  92.230  0.00  0.00    +0.117 A 
ATOM     16  C   LIG    1       69.623  48.420  93.103  0.00  0.00    +0.046 A 
ATOM     17  C   LIG    1       69.310  47.671  94.244  0.00  0.00    +0.008 A 
BRANCH  15  18
ATOM     18  O   LIG    1       68.869  49.545  91.121  0.00  0.00    -0.507 OA
ATOM     19  H   LIG    1       69.025  48.946  90.373  0.00  0.00    +0.292 HD
ENDBRANCH  15  18
ENDBRANCH   1  12
TORSDOF 4
ENDMDL
MODEL 2
REMARK VINA RESULT:      -8.5      0.033      5.540
REMARK  Name = 
REMARK                            x       y       z     vdW  Elec       q    Type
REMARK                         _______ _______ _______ _____ _____    ______ ____
ROOT
ATOM      1  C   LIG    1       67.602  46.547  95.847  0.00  0.00    +0.015 C 
ATOM      2  C   LIG    1       68.154  45.095  95.910  0.00  0.00    +0.021 C 
ATOM      3  C   LIG    1       66.057  46.372  95.859  0.00  0.00    +0.021 C 
ENDROOT
BRANCH   1   7
ATOM      4  C   LIG    1       68.574  48.782  92.225  0.00  0.00    +0.117 A 
ATOM      5  C   LIG    1       69.593  48.421  93.094  0.00  0.00    +0.046 A 
ATOM      6  C   LIG    1       69.304  47.687  94.250  0.00  0.00    +0.008 A 
ATOM      7  C   LIG    1       67.986  47.304  94.551  0.00  0.00    -0.037 A 
ATOM      8  C   LIG    1       66.975  47.680  93.640  0.00  0.00    +0.008 A 
ATOM      9  C   LIG    1       67.262  48.412  92.485  0.00  0.00    +0.046 A 
BRANCH   4  10
ATOM     10  O   LIG    1       68.899  49.513  91.122  0.00  0.00    -0.507 OA
ATOM     11  H   LIG    1       68.631  49.014  90.334  0.00  0.00    +0.292 HD
ENDBRANCH   4  10
ENDBRANCH   1   7
BRANCH   1  12
ATOM     12  C   LIG    1       68.141  47.337  97.067  0.00  0.00    -0.037 A 
ATOM     13  C   LIG    1       69.105  46.751  97.913  0.00  0.00    +0.008 A 
ATOM     14  C   LIG    1       69.672  47.462  98.974  0.00  0.00    +0.046 A 
ATOM     15  C   LIG    1       69.303  48.780  99.192  0.00  0.00    +0.117 A 
ATOM     16  C   LIG    1       68.358  49.392  98.379  0.00  0.00    +0.046 A 
ATOM     17  C   LIG    1       67.779  48.673  97.327  0.00  0.00    +0.008 A 
BRANCH  15  18
ATOM     18  O   LIG    1       69.908  49.451 100.213  0.00  0.00    -0.507 OA
ATOM     19  H   LIG    1       70.048  50.371  99.936  0.00  0.00    +0.292 HD
ENDBRANCH  15  18
ENDBRANCH   1  12
TORSDOF 4
ENDMDL
MODEL 3
REMARK VINA RESULT:      -8.3      0.701      5.494
REMARK  Name = 
REMARK                            x       y       z     vdW  Elec       q    Type
REMARK                         _______ _______ _______ _____ _____    ______ ____
ROOT
ATOM      1  C   LIG    1       67.461  46.143  95.841  0.00  0.00    +0.015 C 
ATOM      2  C   LIG    1       68.133  44.741  95.841  0.00  0.00    +0.021 C 
ATOM      3  C   LIG    1       65.950  45.844  95.626  0.00  0.00    +0.021 C 
ENDROOT
BRANCH   1   7
ATOM      4  C   LIG    1       68.903  48.628  92.555  0.00  0.00    +0.117 A 
ATOM      5  C   LIG    1       67.544  48.376  92.670  0.00  0.00    +0.046 A 
ATOM      6  C   LIG    1       67.061  47.599  93.728  0.00  0.00    +0.008 A 
ATOM      7  C   LIG    1       67.934  47.061  94.688  0.00  0.00    -0.037 A 
ATOM      8  C   LIG    1       69.310  47.345  94.545  0.00  0.00    +0.008 A 
ATOM      9  C   LIG    1       69.796  48.122  93.490  0.00  0.00    +0.046 A 
BRANCH   4  10
ATOM     10  O   LIG    1       69.332  49.374  91.498  0.00  0.00    -0.507 OA
ATOM     11  H   LIG    1       69.090  50.300  91.659  0.00  0.00    +0.292 HD
ENDBRANCH   4  10
ENDBRANCH   1   7
BRANCH   1  12
ATOM     12  C   LIG    1       67.764  46.839  97.193  0.00  0.00    -0.037 A 
ATOM     13  C   LIG    1       68.671  46.251  98.099  0.00  0.00    +0.008 A 
ATOM     14  C   LIG    1       69.029  46.890  99.289  0.00  0.00    +0.046 A 
ATOM     15  C   LIG    1       68.504  48.138  99.583  0.00  0.00    +0.117 A 
ATOM     16  C   LIG    1       67.609  48.750  98.715  0.00  0.00    +0.046 A 
ATOM     17  C   LIG    1       67.239  48.101  97.531  0.00  0.00    +0.008 A 
BRANCH  15  18
ATOM     18  O   LIG    1       68.909  48.744 100.735  0.00  0.00    -0.507 OA
ATOM     19  H   LIG    1       68.605  49.666 100.720  0.00  0.00    +0.292 HD
ENDBRANCH  15  18
ENDBRANCH   1  12
TORSDOF 4
ENDMDL
MODEL 4
REMARK VINA RESULT:      -8.0      1.812      2.002
REMARK  Name = 
REMARK                            x       y       z     vdW  Elec       q    Type
REMARK                         _______ _______ _______ _____ _____    ______ ____
ROOT
ATOM      1  C   LIG    1       67.530  46.278  96.191  0.00  0.00    +0.015 C 
ATOM      2  C   LIG    1       66.036  46.475  95.809  0.00  0.00    +0.021 C 
ATOM      3  C   LIG    1       67.851  44.823  95.748  0.00  0.00    +0.021 C 
ENDROOT
BRANCH   1   7
ATOM      4  C   LIG    1       68.441  46.521 100.453  0.00  0.00    +0.117 A 
ATOM      5  C   LIG    1       67.902  47.625  99.811  0.00  0.00    +0.046 A 
ATOM      6  C   LIG    1       67.584  47.560  98.449  0.00  0.00    +0.008 A 
ATOM      7  C   LIG    1       67.804  46.385  97.711  0.00  0.00    -0.037 A 
ATOM      8  C   LIG    1       68.345  45.277  98.400  0.00  0.00    +0.008 A 
ATOM      9  C   LIG    1       68.662  45.339  99.759  0.00  0.00    +0.046 A 
BRANCH   4  10
ATOM     10  O   LIG    1       68.753  46.635 101.775  0.00  0.00    -0.507 OA
ATOM     11  H   LIG    1       69.682  46.380 101.894  0.00  0.00    +0.292 HD
ENDBRANCH   4  10
ENDBRANCH   1   7
BRANCH   1  12
ATOM     12  C   LIG    1       68.377  47.347  95.454  0.00  0.00    -0.037 A 
ATOM     13  C   LIG    1       67.737  48.363  94.713  0.00  0.00    +0.008 A 
ATOM     14  C   LIG    1       68.464  49.388  94.103  0.00  0.00    +0.046 A 
ATOM     15  C   LIG    1       69.842  49.429  94.243  0.00  0.00    +0.117 A 
ATOM     16  C   LIG    1       70.508  48.448  94.965  0.00  0.00    +0.046 A 
ATOM     17  C   LIG    1       69.779  47.412  95.562  0.00  0.00    +0.008 A 
BRANCH  15  18
ATOM     18  O   LIG    1       70.511  50.467  93.666  0.00  0.00    -0.507 OA
ATOM     19  H   LIG    1       71.181  50.105  93.064  0.00  0.00    +0.292 HD
ENDBRANCH  15  18
ENDBRANCH   1  12
TORSDOF 4
ENDMDL
MODEL 5
REMARK VINA RESULT:      -7.2      1.961      5.753
REMARK  Name = 
REMARK                            x       y       z     vdW  Elec       q    Type
REMARK                         _______ _______ _______ _____ _____    ______ ____
ROOT
ATOM      1  C   LIG    1       67.748  49.296  96.164  0.00  0.00    +0.015 C 
ATOM      2  C   LIG    1       66.293  49.835  96.059  0.00  0.00    +0.021 C 
ATOM      3  C   LIG    1       68.513  50.408  96.936  0.00  0.00    +0.021 C 
ENDROOT
BRANCH   1   7
ATOM      4  C   LIG    1       69.574  48.805  92.230  0.00  0.00    +0.117 A 
ATOM      5  C   LIG    1       70.275  49.470  93.225  0.00  0.00    +0.046 A 
ATOM      6  C   LIG    1       69.714  49.620  94.499  0.00  0.00    +0.008 A 
ATOM      7  C   LIG    1       68.441  49.104  94.793  0.00  0.00    -0.037 A 
ATOM      8  C   LIG    1       67.760  48.424  93.759  0.00  0.00    +0.008 A 
ATOM      9  C   LIG    1       68.319  48.272  92.487  0.00  0.00    +0.046 A 
BRANCH   4  10
ATOM     10  O   LIG    1       70.151  48.699  90.999  0.00  0.00    -0.507 OA
ATOM     11  H   LIG    1       71.095  48.510  91.119  0.00  0.00    +0.292 HD
ENDBRANCH   4  10
ENDBRANCH   1   7
BRANCH   1  12
ATOM     12  C   LIG    1       67.722  47.936  96.907  0.00  0.00    -0.037 A 
ATOM     13  C   LIG    1       68.876  47.479  97.577  0.00  0.00    +0.008 A 
ATOM     14  C   LIG    1       68.866  46.299  98.324  0.00  0.00    +0.046 A 
ATOM     15  C   LIG    1       67.696  45.566  98.434  0.00  0.00    +0.117 A 
ATOM     16  C   LIG    1       66.538  45.984  97.790  0.00  0.00    +0.046 A 
ATOM     17  C   LIG    1       66.554  47.159  97.028  0.00  0.00    +0.008 A 
BRANCH  15  18
ATOM     18  O   LIG    1       67.717  44.442  99.203  0.00  0.00    -0.507 OA
ATOM     19  H   LIG    1       67.863  43.675  98.625  0.00  0.00    +0.292 HD
ENDBRANCH  15  18
ENDBRANCH   1  12
TORSDOF 4
ENDMDL
MODEL 6
REMARK VINA RESULT:      -7.2      1.976      3.091
REMARK  Name = 
REMARK                            x       y       z     vdW  Elec       q    Type
REMARK                         _______ _______ _______ _____ _____    ______ ____
ROOT
ATOM      1  C   LIG    1       67.692  49.425  96.076  0.00  0.00    +0.015 C 
ATOM      2  C   LIG    1       68.477  50.536  96.830  0.00  0.00    +0.021 C 
ATOM      3  C   LIG    1       66.227  49.944  96.044  0.00  0.00    +0.021 C 
ENDROOT
BRANCH   1   7
ATOM      4  C   LIG    1       67.763  45.638  98.243  0.00  0.00    +0.117 A 
ATOM      5  C   LIG    1       66.614  46.007  97.561  0.00  0.00    +0.046 A 
ATOM      6  C   LIG    1       66.579  47.208  96.844  0.00  0.00    +0.008 A 
ATOM      7  C   LIG    1       67.698  48.057  96.801  0.00  0.00    -0.037 A 
ATOM      8  C   LIG    1       68.853  47.645  97.499  0.00  0.00    +0.008 A 
ATOM      9  C   LIG    1       68.891  46.445  98.215  0.00  0.00    +0.046 A 
BRANCH   4  10
ATOM     10  O   LIG    1       67.746  44.469  98.945  0.00  0.00    -0.507 OA
ATOM     11  H   LIG    1       68.089  43.763  98.373  0.00  0.00    +0.292 HD
ENDBRANCH   4  10
ENDBRANCH   1   7
BRANCH   1  12
ATOM     12  C   LIG    1       68.314  49.248  94.667  0.00  0.00    -0.037 A 
ATOM     13  C   LIG    1       69.637  49.670  94.424  0.00  0.00    +0.008 A 
ATOM     14  C   LIG    1       70.257  49.453  93.190  0.00  0.00    +0.046 A 
ATOM     15  C   LIG    1       69.572  48.790  92.186  0.00  0.00    +0.117 A 
ATOM     16  C   LIG    1       68.267  48.358  92.387  0.00  0.00    +0.046 A 
ATOM     17  C   LIG    1       67.642  48.591  93.618  0.00  0.00    +0.008 A 
BRANCH  15  18
ATOM     18  O   LIG    1       70.224  48.563  91.011  0.00  0.00    -0.507 OA
ATOM     19  H   LIG    1       69.906  47.725  90.638  0.00  0.00    +0.292 HD
ENDBRANCH  15  18
ENDBRANCH   1  12
TORSDOF 4
ENDMDL
MODEL 7
REMARK VINA RESULT:      -7.1      1.492      2.246
REMARK  Name = 
REMARK                            x       y       z     vdW  Elec       q    Type
REMARK                         _______ _______ _______ _____ _____    ______ ____
ROOT
ATOM      1  C   LIG    1       67.118  48.744  95.761  0.00  0.00    +0.015 C 
ATOM      2  C   LIG    1       66.702  50.213  96.051  0.00  0.00    +0.021 C 
ATOM      3  C   LIG    1       65.775  48.011  95.485  0.00  0.00    +0.021 C 
ENDROOT
BRANCH   1   7
ATOM      4  C   LIG    1       68.943  46.815  99.225  0.00  0.00    +0.117 A 
ATOM      5  C   LIG    1       68.824  46.106  98.039  0.00  0.00    +0.046 A 
ATOM      6  C   LIG    1       68.260  46.715  96.911  0.00  0.00    +0.008 A 
ATOM      7  C   LIG    1       67.807  48.044  96.958  0.00  0.00    -0.037 A 
ATOM      8  C   LIG    1       67.952  48.737  98.179  0.00  0.00    +0.008 A 
ATOM      9  C   LIG    1       68.516  48.132  99.306  0.00  0.00    +0.046 A 
BRANCH   4  10
ATOM     10  O   LIG    1       69.480  46.176 100.303  0.00  0.00    -0.507 OA
ATOM     11  H   LIG    1       68.887  46.302 101.061  0.00  0.00    +0.292 HD
ENDBRANCH   4  10
ENDBRANCH   1   7
BRANCH   1  12
ATOM     12  C   LIG    1       68.086  48.731  94.550  0.00  0.00    -0.037 A 
ATOM     13  C   LIG    1       67.724  48.053  93.368  0.00  0.00    +0.008 A 
ATOM     14  C   LIG    1       68.534  48.088  92.229  0.00  0.00    +0.046 A 
ATOM     15  C   LIG    1       69.709  48.821  92.246  0.00  0.00    +0.117 A 
ATOM     16  C   LIG    1       70.099  49.504  93.391  0.00  0.00    +0.046 A 
ATOM     17  C   LIG    1       69.294  49.454  94.536  0.00  0.00    +0.008 A 
BRANCH  15  18
ATOM     18  O   LIG    1       70.451  48.862  91.104  0.00  0.00    -0.507 OA
ATOM     19  H   LIG    1       70.990  49.669  91.115  0.00  0.00    +0.292 HD
ENDBRANCH  15  18
ENDBRANCH   1  12
TORSDOF 4
ENDMDL
MODEL 8
REMARK VINA RESULT:      -6.7      1.445      5.522
REMARK  Name = 
REMARK                            x       y       z     vdW  Elec       q    Type
REMARK                         _______ _______ _______ _____ _____    ______ ____
ROOT
ATOM      1  C   LIG    1       67.080  48.465  95.656  0.00  0.00    +0.015 C 
ATOM      2  C   LIG    1       65.779  47.647  95.422  0.00  0.00    +0.021 C 
ATOM      3  C   LIG    1       66.579  49.909  95.942  0.00  0.00    +0.021 C 
ENDROOT
BRANCH   1   7
ATOM      4  C   LIG    1       69.749  48.475  92.202  0.00  0.00    +0.117 A 
ATOM      5  C   LIG    1       68.449  48.935  92.056  0.00  0.00    +0.046 A 
ATOM      6  C   LIG    1       67.585  48.959  93.157  0.00  0.00    +0.008 A 
ATOM      7  C   LIG    1       68.013  48.520  94.421  0.00  0.00    -0.037 A 
ATOM      8  C   LIG    1       69.345  48.067  94.535  0.00  0.00    +0.008 A 
ATOM      9  C   LIG    1       70.211  48.044  93.438  0.00  0.00    +0.046 A 
BRANCH   4  10
ATOM     10  O   LIG    1       70.550  48.452  91.099  0.00  0.00    -0.507 OA
ATOM     11  H   LIG    1       71.177  47.717  91.192  0.00  0.00    +0.292 HD
ENDBRANCH   4  10
ENDBRANCH   1   7
BRANCH   1  12
ATOM     12  C   LIG    1       67.856  47.837  96.842  0.00  0.00    -0.037 A 
ATOM     13  C   LIG    1       67.749  46.454  97.098  0.00  0.00    +0.008 A 
ATOM     14  C   LIG    1       68.496  45.840  98.107  0.00  0.00    +0.046 A 
ATOM     15  C   LIG    1       69.380  46.593  98.861  0.00  0.00    +0.117 A 
ATOM     16  C   LIG    1       69.515  47.957  98.638  0.00  0.00    +0.046 A 
ATOM     17  C   LIG    1       68.753  48.574  97.638  0.00  0.00    +0.008 A 
BRANCH  15  18
ATOM     18  O   LIG    1       70.118  45.950  99.809  0.00  0.00    -0.507 OA
ATOM     19  H   LIG    1       70.157  45.007  99.582  0.00  0.00    +0.292 HD
ENDBRANCH  15  18
ENDBRANCH   1  12
TORSDOF 4
ENDMDL
MODEL 9
REMARK VINA RESULT:      -6.5      2.607      5.775
REMARK  Name = 
REMARK                            x       y       z     vdW  Elec       q    Type
REMARK                         _______ _______ _______ _____ _____    ______ ____
ROOT
ATOM      1  C   LIG    1       68.097  49.074  96.314  0.00  0.00    +0.015 C 
ATOM      2  C   LIG    1       66.961  50.063  95.926  0.00  0.00    +0.021 C 
ATOM      3  C   LIG    1       69.256  49.419  95.337  0.00  0.00    +0.021 C 
ENDROOT
BRANCH   1   7
ATOM      4  C   LIG    1       66.988  44.915  95.590  0.00  0.00    +0.117 A 
ATOM      5  C   LIG    1       68.273  45.209  96.020  0.00  0.00    +0.046 A 
ATOM      6  C   LIG    1       68.641  46.535  96.277  0.00  0.00    +0.008 A 
ATOM      7  C   LIG    1       67.724  47.586  96.105  0.00  0.00    -0.037 A 
ATOM      8  C   LIG    1       66.422  47.248  95.676  0.00  0.00    +0.008 A 
ATOM      9  C   LIG    1       66.052  45.925  95.419  0.00  0.00    +0.046 A 
BRANCH   4  10
ATOM     10  O   LIG    1       66.679  43.612  95.333  0.00  0.00    -0.507 OA
ATOM     11  H   LIG    1       65.772  43.447  95.636  0.00  0.00    +0.292 HD
ENDBRANCH   4  10
ENDBRANCH   1   7
BRANCH   1  12
ATOM     12  C   LIG    1       68.461  49.295  97.804  0.00  0.00    -0.037 A 
ATOM     13  C   LIG    1       67.501  49.046  98.807  0.00  0.00    +0.008 A 
ATOM     14  C   LIG    1       67.818  49.156 100.164  0.00  0.00    +0.046 A 
ATOM     15  C   LIG    1       69.107  49.496 100.541  0.00  0.00    +0.117 A 
ATOM     16  C   LIG    1       70.081  49.748  99.583  0.00  0.00    +0.046 A 
ATOM     17  C   LIG    1       69.757  49.652  98.224  0.00  0.00    +0.008 A 
BRANCH  15  18
ATOM     18  O   LIG    1       69.387  49.555 101.874  0.00  0.00    -0.507 OA
ATOM     19  H   LIG    1       69.666  50.459 102.090  0.00  0.00    +0.292 HD
ENDBRANCH  15  18
ENDBRANCH   1  12
TORSDOF 4
ENDMDL
