MODEL 1
REMARK VINA RESULT:      -8.2      0.000      0.000
REMARK  Name = 
REMARK                            x       y       z     vdW  Elec       q    Type
REMARK                         _______ _______ _______ _____ _____    ______ ____
ROOT
ATOM      1  C   LIG    1        2.857  32.027   4.164  0.00  0.00    +0.015 C 
ATOM      2  C   LIG    1        4.077  32.812   4.722  0.00  0.00    +0.021 C 
ATOM      3  C   LIG    1        2.954  32.213   2.623  0.00  0.00    +0.021 C 
ENDROOT
BRANCH   1   7
ATOM      4  C   LIG    1       -0.923  33.694   5.572  0.00  0.00    +0.117 A 
ATOM      5  C   LIG    1       -0.667  33.649   4.210  0.00  0.00    +0.046 A 
ATOM      6  C   LIG    1        0.531  33.100   3.738  0.00  0.00    +0.008 A 
ATOM      7  C   LIG    1        1.490  32.587   4.627  0.00  0.00    -0.037 A 
ATOM      8  C   LIG    1        1.192  32.641   6.006  0.00  0.00    +0.008 A 
ATOM      9  C   LIG    1       -0.003  33.188   6.480  0.00  0.00    +0.046 A 
BRANCH   4  10
ATOM     10  O   LIG    1       -2.094  34.255   5.988  0.00  0.00    -0.507 OA
ATOM     11  H   LIG    1       -2.826  33.689   5.694  0.00  0.00    +0.292 HD
ENDBRANCH   4  10
ENDBRANCH   1   7
BRANCH   1  12
ATOM     12  C   LIG    1        2.970  30.547   4.613  0.00  0.00    -0.037 A 
ATOM     13  C   LIG    1        2.011  29.607   4.183  0.00  0.00    +0.008 A 
ATOM     14  C   LIG    1        2.126  28.251   4.501  0.00  0.00    +0.046 A 
ATOM     15  C   LIG    1        3.214  27.809   5.235  0.00  0.00    +0.117 A 
ATOM     16  C   LIG    1        4.180  28.704   5.675  0.00  0.00    +0.046 A 
ATOM     17  C   LIG    1        4.055  30.065   5.370  0.00  0.00    +0.008 A 
BRANCH  15  18
ATOM     18  O   LIG    1        3.310  26.474   5.492  0.00  0.00    -0.507 OA
ATOM     19  H   LIG    1        4.235  26.265   5.700  0.00  0.00    +0.292 HD
ENDBRANCH  15  18
ENDBRANCH   1  12
TORSDOF 4
ENDMDL
MODEL 2
REMARK VINA RESULT:      -8.2      0.092      5.589
REMARK  Name = 
REMARK                            x       y       z     vdW  Elec       q    Type
REMARK                         _______ _______ _______ _____ _____    ______ ____
ROOT
ATOM      1  C   LIG    1        2.868  32.001   4.159  0.00  0.00    +0.015 C 
ATOM      2  C   LIG    1        3.020  32.294   2.640  0.00  0.00    +0.021 C 
ATOM      3  C   LIG    1        4.064  32.747   4.815  0.00  0.00    +0.021 C 
ENDROOT
BRANCH   1   7
ATOM      4  C   LIG    1        3.229  27.809   5.319  0.00  0.00    +0.117 A 
ATOM      5  C   LIG    1        2.140  28.211   4.560  0.00  0.00    +0.046 A 
ATOM      6  C   LIG    1        2.018  29.547   4.162  0.00  0.00    +0.008 A 
ATOM      7  C   LIG    1        2.987  30.500   4.519  0.00  0.00    -0.037 A 
ATOM      8  C   LIG    1        4.086  30.053   5.283  0.00  0.00    +0.008 A 
ATOM      9  C   LIG    1        4.212  28.719   5.681  0.00  0.00    +0.046 A 
BRANCH   4  10
ATOM     10  O   LIG    1        3.298  26.502   5.701  0.00  0.00    -0.507 OA
ATOM     11  H   LIG    1        3.449  25.959   4.910  0.00  0.00    +0.292 HD
ENDBRANCH   4  10
ENDBRANCH   1   7
BRANCH   1  12
ATOM     12  C   LIG    1        1.486  32.521   4.630  0.00  0.00    -0.037 A 
ATOM     13  C   LIG    1        1.191  32.587   6.008  0.00  0.00    +0.008 A 
ATOM     14  C   LIG    1       -0.012  33.125   6.471  0.00  0.00    +0.046 A 
ATOM     15  C   LIG    1       -0.932  33.628   5.566  0.00  0.00    +0.117 A 
ATOM     16  C   LIG    1       -0.679  33.582   4.202  0.00  0.00    +0.046 A 
ATOM     17  C   LIG    1        0.521  33.027   3.738  0.00  0.00    +0.008 A 
BRANCH  15  18
ATOM     18  O   LIG    1       -2.077  34.179   6.060  0.00  0.00    -0.507 OA
ATOM     19  H   LIG    1       -2.192  35.058   5.663  0.00  0.00    +0.292 HD
ENDBRANCH  15  18
ENDBRANCH   1  12
TORSDOF 4
ENDMDL
MODEL 3
REMARK VINA RESULT:      -8.2      0.105      1.173
REMARK  Name = 
REMARK                            x       y       z     vdW  Elec       q    Type
REMARK                         _______ _______ _______ _____ _____    ______ ____
ROOT
ATOM      1  C   LIG    1        2.869  32.043   4.129  0.00  0.00    +0.015 C 
ATOM      2  C   LIG    1        4.086  32.782   4.753  0.00  0.00    +0.021 C 
ATOM      3  C   LIG    1        2.984  32.333   2.605  0.00  0.00    +0.021 C 
ENDROOT
BRANCH   1   7
ATOM      4  C   LIG    1       -0.918  33.642   5.598  0.00  0.00    +0.117 A 
ATOM      5  C   LIG    1       -0.676  33.619   4.233  0.00  0.00    +0.046 A 
ATOM      6  C   LIG    1        0.524  33.091   3.742  0.00  0.00    +0.008 A 
ATOM      7  C   LIG    1        1.499  32.579   4.614  0.00  0.00    -0.037 A 
ATOM      8  C   LIG    1        1.215  32.611   5.996  0.00  0.00    +0.008 A 
ATOM      9  C   LIG    1        0.018  33.136   6.490  0.00  0.00    +0.046 A 
BRANCH   4  10
ATOM     10  O   LIG    1       -2.091  34.182   6.033  0.00  0.00    -0.507 OA
ATOM     11  H   LIG    1       -2.821  33.624   5.719  0.00  0.00    +0.292 HD
ENDBRANCH   4  10
ENDBRANCH   1   7
BRANCH   1  12
ATOM     12  C   LIG    1        2.969  30.536   4.478  0.00  0.00    -0.037 A 
ATOM     13  C   LIG    1        4.046  30.066   5.257  0.00  0.00    +0.008 A 
ATOM     14  C   LIG    1        4.126  28.730   5.660  0.00  0.00    +0.046 A 
ATOM     15  C   LIG    1        3.118  27.847   5.309  0.00  0.00    +0.117 A 
ATOM     16  C   LIG    1        2.041  28.272   4.544  0.00  0.00    +0.046 A 
ATOM     17  C   LIG    1        1.971  29.608   4.128  0.00  0.00    +0.008 A 
BRANCH  15  18
ATOM     18  O   LIG    1        3.214  26.562   5.753  0.00  0.00    -0.507 OA
ATOM     19  H   LIG    1        4.140  26.279   5.682  0.00  0.00    +0.292 HD
ENDBRANCH  15  18
ENDBRANCH   1  12
TORSDOF 4
ENDMDL
MODEL 4
REMARK VINA RESULT:      -8.1      0.150      5.568
REMARK  Name = 
REMARK                            x       y       z     vdW  Elec       q    Type
REMARK                         _______ _______ _______ _____ _____    ______ ____
ROOT
ATOM      1  C   LIG    1        2.854  32.100   4.098  0.00  0.00    +0.015 C 
ATOM      2  C   LIG    1        2.860  32.263   2.552  0.00  0.00    +0.021 C 
ATOM      3  C   LIG    1        4.146  32.827   4.566  0.00  0.00    +0.021 C 
ENDROOT
BRANCH   1   7
ATOM      4  C   LIG    1        3.076  27.904   5.281  0.00  0.00    +0.117 A 
ATOM      5  C   LIG    1        4.027  28.794   5.757  0.00  0.00    +0.046 A 
ATOM      6  C   LIG    1        3.960  30.147   5.405  0.00  0.00    +0.008 A 
ATOM      7  C   LIG    1        2.938  30.627   4.569  0.00  0.00    -0.037 A 
ATOM      8  C   LIG    1        1.982  29.695   4.111  0.00  0.00    +0.008 A 
ATOM      9  C   LIG    1        2.046  28.343   4.462  0.00  0.00    +0.046 A 
BRANCH   4  10
ATOM     10  O   LIG    1        3.191  26.592   5.634  0.00  0.00    -0.507 OA
ATOM     11  H   LIG    1        4.117  26.325   5.521  0.00  0.00    +0.292 HD
ENDBRANCH   4  10
ENDBRANCH   1   7
BRANCH   1  12
ATOM     12  C   LIG    1        1.555  32.732   4.660  0.00  0.00    -0.037 A 
ATOM     13  C   LIG    1        0.634  33.342   3.783  0.00  0.00    +0.008 A 
ATOM     14  C   LIG    1       -0.584  33.850   4.243  0.00  0.00    +0.046 A 
ATOM     15  C   LIG    1       -0.912  33.736   5.584  0.00  0.00    +0.117 A 
ATOM     16  C   LIG    1       -0.032  33.141   6.478  0.00  0.00    +0.046 A 
ATOM     17  C   LIG    1        1.195  32.647   6.018  0.00  0.00    +0.008 A 
BRANCH  15  18
ATOM     18  O   LIG    1       -2.126  34.209   5.986  0.00  0.00    -0.507 OA
ATOM     19  H   LIG    1       -2.194  35.142   5.728  0.00  0.00    +0.292 HD
ENDBRANCH  15  18
ENDBRANCH   1  12
TORSDOF 4
ENDMDL
MODEL 5
REMARK VINA RESULT:      -7.9      1.318      5.464
REMARK  Name = 
REMARK                            x       y       z     vdW  Elec       q    Type
REMARK                         _______ _______ _______ _____ _____    ______ ____
ROOT
ATOM      1  C   LIG    1        2.535  31.994   4.383  0.00  0.00    +0.015 C 
ATOM      2  C   LIG    1        3.156  32.125   2.964  0.00  0.00    +0.021 C 
ATOM      3  C   LIG    1        3.716  32.297   5.349  0.00  0.00    +0.021 C 
ENDROOT
BRANCH   1   7
ATOM      4  C   LIG    1        1.047  28.028   5.437  0.00  0.00    +0.117 A 
ATOM      5  C   LIG    1        0.442  28.727   4.404  0.00  0.00    +0.046 A 
ATOM      6  C   LIG    1        0.918  29.991   4.038  0.00  0.00    +0.008 A 
ATOM      7  C   LIG    1        2.009  30.573   4.705  0.00  0.00    -0.037 A 
ATOM      8  C   LIG    1        2.606  29.830   5.745  0.00  0.00    +0.008 A 
ATOM      9  C   LIG    1        2.134  28.566   6.112  0.00  0.00    +0.046 A 
BRANCH   4  10
ATOM     10  O   LIG    1        0.538  26.808   5.772  0.00  0.00    -0.507 OA
ATOM     11  H   LIG    1        1.126  26.123   5.415  0.00  0.00    +0.292 HD
ENDBRANCH   4  10
ENDBRANCH   1   7
BRANCH   1  12
ATOM     12  C   LIG    1        1.364  33.002   4.508  0.00  0.00    -0.037 A 
ATOM     13  C   LIG    1        0.940  33.731   3.378  0.00  0.00    +0.008 A 
ATOM     14  C   LIG    1       -0.163  34.587   3.434  0.00  0.00    +0.046 A 
ATOM     15  C   LIG    1       -0.875  34.711   4.615  0.00  0.00    +0.117 A 
ATOM     16  C   LIG    1       -0.490  34.009   5.749  0.00  0.00    +0.046 A 
ATOM     17  C   LIG    1        0.625  33.164   5.696  0.00  0.00    +0.008 A 
BRANCH  15  18
ATOM     18  O   LIG    1       -1.968  35.527   4.618  0.00  0.00    -0.507 OA
ATOM     19  H   LIG    1       -1.911  36.120   3.852  0.00  0.00    +0.292 HD
ENDBRANCH  15  18
ENDBRANCH   1  12
TORSDOF 4
ENDMDL
MODEL 6
REMARK VINA RESULT:      -7.1      1.436      2.306
REMARK  Name = 
REMARK                            x       y       z     vdW  Elec       q    Type
REMARK                         _______ _______ _______ _____ _____    ______ ____
ROOT
ATOM      1  C   LIG    1        2.476  30.929   6.094  0.00  0.00    +0.015 C 
ATOM      2  C   LIG    1        2.085  30.675   7.577  0.00  0.00    +0.021 C 
ATOM      3  C   LIG    1        3.748  31.819   6.179  0.00  0.00    +0.021 C 
ENDROOT
BRANCH   1   7
ATOM      4  C   LIG    1       -0.594  33.181   3.961  0.00  0.00    +0.117 A 
ATOM      5  C   LIG    1        0.706  33.185   3.480  0.00  0.00    +0.046 A 
ATOM      6  C   LIG    1        1.700  32.452   4.139  0.00  0.00    +0.008 A 
ATOM      7  C   LIG    1        1.403  31.705   5.291  0.00  0.00    -0.037 A 
ATOM      8  C   LIG    1        0.067  31.717   5.746  0.00  0.00    +0.008 A 
ATOM      9  C   LIG    1       -0.928  32.447   5.090  0.00  0.00    +0.046 A 
BRANCH   4  10
ATOM     10  O   LIG    1       -1.526  33.925   3.299  0.00  0.00    -0.507 OA
ATOM     11  H   LIG    1       -1.066  34.500   2.667  0.00  0.00    +0.292 HD
ENDBRANCH   4  10
ENDBRANCH   1   7
BRANCH   1  12
ATOM     12  C   LIG    1        2.726  29.563   5.405  0.00  0.00    -0.037 A 
ATOM     13  C   LIG    1        3.953  28.893   5.595  0.00  0.00    +0.008 A 
ATOM     14  C   LIG    1        4.183  27.625   5.056  0.00  0.00    +0.046 A 
ATOM     15  C   LIG    1        3.181  26.993   4.337  0.00  0.00    +0.117 A 
ATOM     16  C   LIG    1        1.959  27.619   4.130  0.00  0.00    +0.046 A 
ATOM     17  C   LIG    1        1.736  28.897   4.656  0.00  0.00    +0.008 A 
BRANCH  15  18
ATOM     18  O   LIG    1        3.430  25.741   3.861  0.00  0.00    -0.507 OA
ATOM     19  H   LIG    1        4.017  25.815   3.092  0.00  0.00    +0.292 HD
ENDBRANCH  15  18
ENDBRANCH   1  12
TORSDOF 4
ENDMDL
MODEL 7
REMARK VINA RESULT:      -7.1      1.494      1.795
REMARK  Name = 
REMARK                            x       y       z     vdW  Elec       q    Type
REMARK                         _______ _______ _______ _____ _____    ______ ____
ROOT
ATOM      1  C   LIG    1        2.394  32.113   4.408  0.00  0.00    +0.015 C 
ATOM      2  C   LIG    1        3.523  32.569   5.375  0.00  0.00    +0.021 C 
ATOM      3  C   LIG    1        3.045  32.180   2.998  0.00  0.00    +0.021 C 
ENDROOT
BRANCH   1   7
ATOM      4  C   LIG    1       -1.018  34.832   4.514  0.00  0.00    +0.117 A 
ATOM      5  C   LIG    1       -0.485  34.460   3.289  0.00  0.00    +0.046 A 
ATOM      6  C   LIG    1        0.596  33.573   3.234  0.00  0.00    +0.008 A 
ATOM      7  C   LIG    1        1.159  33.046   4.409  0.00  0.00    -0.037 A 
ATOM      8  C   LIG    1        0.585  33.439   5.637  0.00  0.00    +0.008 A 
ATOM      9  C   LIG    1       -0.496  34.324   5.695  0.00  0.00    +0.046 A 
BRANCH   4  10
ATOM     10  O   LIG    1       -2.059  35.713   4.521  0.00  0.00    -0.507 OA
ATOM     11  H   LIG    1       -2.134  36.105   3.636  0.00  0.00    +0.292 HD
ENDBRANCH   4  10
ENDBRANCH   1   7
BRANCH   1  12
ATOM     12  C   LIG    1        1.943  30.685   4.810  0.00  0.00    -0.037 A 
ATOM     13  C   LIG    1        1.258  30.480   6.026  0.00  0.00    +0.008 A 
ATOM     14  C   LIG    1        0.765  29.222   6.383  0.00  0.00    +0.046 A 
ATOM     15  C   LIG    1        0.929  28.151   5.519  0.00  0.00    +0.117 A 
ATOM     16  C   LIG    1        1.597  28.313   4.312  0.00  0.00    +0.046 A 
ATOM     17  C   LIG    1        2.104  29.571   3.964  0.00  0.00    +0.008 A 
BRANCH  15  18
ATOM     18  O   LIG    1        0.401  26.950   5.885  0.00  0.00    -0.507 OA
ATOM     19  H   LIG    1       -0.485  26.871   5.495  0.00  0.00    +0.292 HD
ENDBRANCH  15  18
ENDBRANCH   1  12
TORSDOF 4
ENDMDL
MODEL 8
REMARK VINA RESULT:      -7.0      1.486      5.804
REMARK  Name = 
REMARK                            x       y       z     vdW  Elec       q    Type
REMARK                         _______ _______ _______ _____ _____    ______ ____
ROOT
ATOM      1  C   LIG    1        2.543  30.905   6.242  0.00  0.00    +0.015 C 
ATOM      2  C   LIG    1        3.832  31.774   6.276  0.00  0.00    +0.021 C 
ATOM      3  C   LIG    1        2.228  30.628   7.739  0.00  0.00    +0.021 C 
ENDROOT
BRANCH   1   7
ATOM      4  C   LIG    1        3.131  27.004   4.375  0.00  0.00    +0.117 A 
ATOM      5  C   LIG    1        1.894  27.624   4.275  0.00  0.00    +0.046 A 
ATOM      6  C   LIG    1        1.693  28.884   4.850  0.00  0.00    +0.008 A 
ATOM      7  C   LIG    1        2.730  29.541   5.534  0.00  0.00    -0.037 A 
ATOM      8  C   LIG    1        3.977  28.884   5.607  0.00  0.00    +0.008 A 
ATOM      9  C   LIG    1        4.182  27.626   5.033  0.00  0.00    +0.046 A 
BRANCH   4  10
ATOM     10  O   LIG    1        3.276  25.769   3.816  0.00  0.00    -0.507 OA
ATOM     11  H   LIG    1        2.469  25.560   3.320  0.00  0.00    +0.292 HD
ENDBRANCH   4  10
ENDBRANCH   1   7
BRANCH   1  12
ATOM     12  C   LIG    1        1.427  31.698   5.515  0.00  0.00    -0.037 A 
ATOM     13  C   LIG    1        1.720  32.388   4.320  0.00  0.00    +0.008 A 
ATOM     14  C   LIG    1        0.723  33.047   3.595  0.00  0.00    +0.046 A 
ATOM     15  C   LIG    1       -0.588  33.006   4.040  0.00  0.00    +0.117 A 
ATOM     16  C   LIG    1       -0.916  32.336   5.211  0.00  0.00    +0.046 A 
ATOM     17  C   LIG    1        0.087  31.691   5.945  0.00  0.00    +0.008 A 
BRANCH  15  18
ATOM     18  O   LIG    1       -1.537  33.627   3.284  0.00  0.00    -0.507 OA
ATOM     19  H   LIG    1       -2.405  33.475   3.692  0.00  0.00    +0.292 HD
ENDBRANCH  15  18
ENDBRANCH   1  12
TORSDOF 4
ENDMDL
MODEL 9
REMARK VINA RESULT:      -6.8      1.355      2.113
REMARK  Name = 
REMARK                            x       y       z     vdW  Elec       q    Type
REMARK                         _______ _______ _______ _____ _____    ______ ____
ROOT
ATOM      1  C   LIG    1        2.616  31.755   4.427  0.00  0.00    +0.015 C 
ATOM      2  C   LIG    1        3.728  32.078   5.465  0.00  0.00    +0.021 C 
ATOM      3  C   LIG    1        3.325  31.892   3.050  0.00  0.00    +0.021 C 
ENDROOT
BRANCH   1   7
ATOM      4  C   LIG    1       -0.824  34.440   4.492  0.00  0.00    +0.117 A 
ATOM      5  C   LIG    1        0.167  34.585   5.451  0.00  0.00    +0.046 A 
ATOM      6  C   LIG    1        1.288  33.746   5.434  0.00  0.00    +0.008 A 
ATOM      7  C   LIG    1        1.430  32.749   4.454  0.00  0.00    -0.037 A 
ATOM      8  C   LIG    1        0.406  32.637   3.488  0.00  0.00    +0.008 A 
ATOM      9  C   LIG    1       -0.713  33.474   3.502  0.00  0.00    +0.046 A 
BRANCH   4  10
ATOM     10  O   LIG    1       -1.907  35.266   4.558  0.00  0.00    -0.507 OA
ATOM     11  H   LIG    1       -1.711  36.068   4.048  0.00  0.00    +0.292 HD
ENDBRANCH   4  10
ENDBRANCH   1   7
BRANCH   1  12
ATOM     12  C   LIG    1        2.079  30.327   4.703  0.00  0.00    -0.037 A 
ATOM     13  C   LIG    1        2.648  29.548   5.731  0.00  0.00    +0.008 A 
ATOM     14  C   LIG    1        2.137  28.290   6.061  0.00  0.00    +0.046 A 
ATOM     15  C   LIG    1        1.033  27.799   5.383  0.00  0.00    +0.117 A 
ATOM     16  C   LIG    1        0.444  28.537   4.365  0.00  0.00    +0.046 A 
ATOM     17  C   LIG    1        0.967  29.790   4.025  0.00  0.00    +0.008 A 
BRANCH  15  18
ATOM     18  O   LIG    1        0.541  26.585   5.761  0.00  0.00    -0.507 OA
ATOM     19  H   LIG    1        1.287  25.976   5.888  0.00  0.00    +0.292 HD
ENDBRANCH  15  18
ENDBRANCH   1  12
TORSDOF 4
ENDMDL
