REMARK  Name = 
REMARK                            x       y       z     vdW  Elec       q    Type
REMARK                         _______ _______ _______ _____ _____    ______ ____
ROOT
ATOM      1  C   LIG    1        6.504   0.209  -0.563  0.00  0.00    +0.015 C 
ATOM      2  C   LIG    1        7.233  -1.164  -0.594  0.00  0.00    +0.021 C 
ATOM      3  C   LIG    1        7.196   0.985   0.593  0.00  0.00    +0.021 C 
ENDROOT
BRANCH   1   7
ATOM      4  C   LIG    1        2.221   0.014   0.254  0.00  0.00    +0.117 A 
ATOM      5  C   LIG    1        2.949  -1.163   0.167  0.00  0.00    +0.046 A 
ATOM      6  C   LIG    1        4.327  -1.120  -0.074  0.00  0.00    +0.008 A 
ATOM      7  C   LIG    1        4.995   0.106  -0.232  0.00  0.00    -0.037 A 
ATOM      8  C   LIG    1        4.224   1.284  -0.128  0.00  0.00    +0.008 A 
ATOM      9  C   LIG    1        2.848   1.244   0.114  0.00  0.00    +0.046 A 
BRANCH   4  10
ATOM     10  O   LIG    1        0.878  -0.076   0.471  0.00  0.00    -0.507 OA
ATOM     11  H   LIG    1        0.503   0.819   0.445  0.00  0.00    +0.292 HD
ENDBRANCH   4  10
ENDBRANCH   1   7
BRANCH   1  12
ATOM     12  C   LIG    1        6.668   0.890  -1.946  0.00  0.00    -0.037 A 
ATOM     13  C   LIG    1        6.307   0.195  -3.119  0.00  0.00    +0.008 A 
ATOM     14  C   LIG    1        6.365   0.805  -4.375  0.00  0.00    +0.046 A 
ATOM     15  C   LIG    1        6.763   2.128  -4.477  0.00  0.00    +0.117 A 
ATOM     16  C   LIG    1        7.125   2.846  -3.345  0.00  0.00    +0.046 A 
ATOM     17  C   LIG    1        7.082   2.228  -2.089  0.00  0.00    +0.008 A 
BRANCH  15  18
ATOM     18  O   LIG    1        6.769   2.698  -5.715  0.00  0.00    -0.507 OA
ATOM     19  H   LIG    1        6.988   3.639  -5.620  0.00  0.00    +0.292 HD
ENDBRANCH  15  18
ENDBRANCH   1  12
TORSDOF 4
