MODEL 1
REMARK VINA RESULT:      -8.2      0.000      0.000
REMARK  Name = 
REMARK                            x       y       z     vdW  Elec       q    Type
REMARK                         _______ _______ _______ _____ _____    ______ ____
ROOT
ATOM      1  C   LIG    1       -5.141  -5.755  12.505  0.00  0.00    -0.046 A 
ATOM      2  C   LIG    1       -5.297  -4.662  11.651  0.00  0.00    +0.007 A 
ATOM      3  C   LIG    1       -5.886  -4.817  10.397  0.00  0.00    +0.046 A 
ATOM      4  C   LIG    1       -6.307  -6.073   9.950  0.00  0.00    +0.121 A 
ATOM      5  C   LIG    1       -6.139  -7.172  10.791  0.00  0.00    +0.046 A 
ATOM      6  C   LIG    1       -5.568  -7.014  12.064  0.00  0.00    +0.007 A 
ENDROOT
BRANCH   1   7
ATOM      7  C   LIG    1       -4.500  -5.562  13.861  0.00  0.00    +0.059 C 
BRANCH   7  10
ATOM      8  O   LIG    1       -3.517  -4.028  16.553  0.00  0.00    -0.274 OA
ATOM      9  C   LIG    1       -4.610  -4.316  16.083  0.00  0.00    +0.234 C 
ATOM     10  C   LIG    1       -4.970  -4.306  14.606  0.00  0.00    +0.146 C 
ATOM     11  S   LIG    1       -6.808  -4.293  14.621  0.00  0.00    -0.054 S 
ATOM     12  C   LIG    1       -6.900  -4.631  16.332  0.00  0.00    +0.279 C 
ATOM     13  O   LIG    1       -7.941  -4.749  16.949  0.00  0.00    -0.263 OA
ATOM     14  N   LIG    1       -5.659  -4.685  16.867  0.00  0.00    -0.246 N 
ATOM     15  H   LIG    1       -5.559  -4.712  17.870  0.00  0.00    +0.158 HD
ENDBRANCH   7  10
ENDBRANCH   1   7
BRANCH   4  16
ATOM     16  O   LIG    1       -6.877  -6.323   8.719  0.00  0.00    -0.492 OA
BRANCH  16  17
ATOM     17  C   LIG    1       -8.299  -6.182   8.712  0.00  0.00    +0.235 C 
BRANCH  17  18
ATOM     18  C   LIG    1       -8.783  -4.802   8.275  0.00  0.00    +0.096 C 
BRANCH  18  19
ATOM     19  C   LIG    1       -8.804  -3.796   9.412  0.00  0.00    +0.045 A 
ATOM     20  C   LIG    1       -8.241  -2.523   9.304  0.00  0.00    +0.024 A 
ATOM     21  C   LIG    1       -8.327  -1.636  10.373  0.00  0.00    +0.007 A 
ATOM     22  C   LIG    1       -8.956  -2.021  11.553  0.00  0.00    -0.030 A 
ATOM     23  C   LIG    1       -9.468  -3.313  11.588  0.00  0.00    +0.114 A 
ATOM     24  N   LIG    1       -9.406  -4.196  10.556  0.00  0.00    -0.260 NA
BRANCH  22  25
ATOM     25  C   LIG    1       -9.043  -1.021  12.675  0.00  0.00    +0.033 C 
ATOM     26  C   LIG    1      -10.301  -0.168  12.741  0.00  0.00    +0.009 C 
ENDBRANCH  22  25
ENDBRANCH  18  19
ENDBRANCH  17  18
ENDBRANCH  16  17
ENDBRANCH   4  16
TORSDOF 7
ENDMDL
MODEL 2
REMARK VINA RESULT:      -8.2      3.676      5.708
REMARK  Name = 
REMARK                            x       y       z     vdW  Elec       q    Type
REMARK                         _______ _______ _______ _____ _____    ______ ____
ROOT
ATOM      1  C   LIG    1       -7.834  -3.584  13.171  0.00  0.00    -0.046 A 
ATOM      2  C   LIG    1       -9.126  -4.095  13.305  0.00  0.00    +0.007 A 
ATOM      3  C   LIG    1      -10.239  -3.294  13.059  0.00  0.00    +0.046 A 
ATOM      4  C   LIG    1      -10.093  -1.950  12.702  0.00  0.00    +0.121 A 
ATOM      5  C   LIG    1       -8.806  -1.427  12.581  0.00  0.00    +0.046 A 
ATOM      6  C   LIG    1       -7.684  -2.239  12.805  0.00  0.00    +0.007 A 
ENDROOT
BRANCH   1   7
ATOM      7  C   LIG    1       -6.643  -4.474  13.442  0.00  0.00    +0.059 C 
BRANCH   7  10
ATOM      8  O   LIG    1       -3.416  -4.775  13.699  0.00  0.00    -0.274 OA
ATOM      9  C   LIG    1       -4.336  -4.703  14.504  0.00  0.00    +0.234 C 
ATOM     10  C   LIG    1       -5.580  -3.843  14.352  0.00  0.00    +0.146 C 
ATOM     11  S   LIG    1       -6.251  -3.768  16.062  0.00  0.00    -0.054 S 
ATOM     12  C   LIG    1       -5.175  -5.012  16.649  0.00  0.00    +0.279 C 
ATOM     13  O   LIG    1       -5.163  -5.417  17.796  0.00  0.00    -0.263 OA
ATOM     14  N   LIG    1       -4.335  -5.409  15.667  0.00  0.00    -0.246 N 
ATOM     15  H   LIG    1       -3.555  -6.003  15.900  0.00  0.00    +0.158 HD
ENDBRANCH   7  10
ENDBRANCH   1   7
BRANCH   4  16
ATOM     16  O   LIG    1      -11.135  -1.078  12.463  0.00  0.00    -0.492 OA
BRANCH  16  17
ATOM     17  C   LIG    1      -11.118   0.072  13.311  0.00  0.00    +0.235 C 
BRANCH  17  18
ATOM     18  C   LIG    1      -11.802   1.297  12.709  0.00  0.00    +0.096 C 
BRANCH  18  19
ATOM     19  C   LIG    1      -10.920   2.533  12.725  0.00  0.00    +0.045 A 
ATOM     20  C   LIG    1      -10.978   3.515  11.736  0.00  0.00    +0.024 A 
ATOM     21  C   LIG    1      -10.167   4.641  11.831  0.00  0.00    +0.007 A 
ATOM     22  C   LIG    1       -9.287   4.782  12.901  0.00  0.00    -0.030 A 
ATOM     23  C   LIG    1       -9.274   3.749  13.830  0.00  0.00    +0.114 A 
ATOM     24  N   LIG    1      -10.061   2.643  13.766  0.00  0.00    -0.260 NA
BRANCH  22  25
ATOM     25  C   LIG    1       -8.445   6.028  12.972  0.00  0.00    +0.033 C 
ATOM     26  C   LIG    1       -8.369   6.882  11.716  0.00  0.00    +0.009 C 
ENDBRANCH  22  25
ENDBRANCH  18  19
ENDBRANCH  17  18
ENDBRANCH  16  17
ENDBRANCH   4  16
TORSDOF 7
ENDMDL
MODEL 3
REMARK VINA RESULT:      -8.0      4.096      6.610
REMARK  Name = 
REMARK                            x       y       z     vdW  Elec       q    Type
REMARK                         _______ _______ _______ _____ _____    ______ ____
ROOT
ATOM      1  C   LIG    1       -8.322  -3.302  11.802  0.00  0.00    -0.046 A 
ATOM      2  C   LIG    1       -8.275  -1.956  11.436  0.00  0.00    +0.007 A 
ATOM      3  C   LIG    1       -9.226  -1.055  11.910  0.00  0.00    +0.046 A 
ATOM      4  C   LIG    1      -10.268  -1.479  12.740  0.00  0.00    +0.121 A 
ATOM      5  C   LIG    1      -10.331  -2.825  13.098  0.00  0.00    +0.046 A 
ATOM      6  C   LIG    1       -9.361  -3.730  12.640  0.00  0.00    +0.007 A 
ENDROOT
BRANCH   1   7
ATOM      7  C   LIG    1       -7.279  -4.260  11.274  0.00  0.00    +0.059 C 
BRANCH   7  10
ATOM      8  O   LIG    1       -4.936  -5.626  13.066  0.00  0.00    -0.274 OA
ATOM      9  C   LIG    1       -5.733  -6.045  12.237  0.00  0.00    +0.234 C 
ATOM     10  C   LIG    1       -7.167  -5.569  12.068  0.00  0.00    +0.146 C 
ATOM     11  S   LIG    1       -7.943  -6.913  11.082  0.00  0.00    -0.054 S 
ATOM     12  C   LIG    1       -6.414  -7.679  10.730  0.00  0.00    +0.279 C 
ATOM     13  O   LIG    1       -6.295  -8.687  10.059  0.00  0.00    -0.263 OA
ATOM     14  N   LIG    1       -5.406  -7.024  11.350  0.00  0.00    -0.246 N 
ATOM     15  H   LIG    1       -4.490  -7.443  11.370  0.00  0.00    +0.158 HD
ENDBRANCH   7  10
ENDBRANCH   1   7
BRANCH   4  16
ATOM     16  O   LIG    1      -11.265  -0.665  13.238  0.00  0.00    -0.492 OA
BRANCH  16  17
ATOM     17  C   LIG    1      -10.834   0.675  13.481  0.00  0.00    +0.235 C 
BRANCH  17  18
ATOM     18  C   LIG    1      -11.553   1.721  12.633  0.00  0.00    +0.096 C 
BRANCH  18  19
ATOM     19  C   LIG    1      -10.783   3.026  12.527  0.00  0.00    +0.045 A 
ATOM     20  C   LIG    1       -9.920   3.477  13.527  0.00  0.00    +0.024 A 
ATOM     21  C   LIG    1       -9.217   4.665  13.349  0.00  0.00    +0.007 A 
ATOM     22  C   LIG    1       -9.384   5.411  12.186  0.00  0.00    -0.030 A 
ATOM     23  C   LIG    1      -10.279   4.904  11.251  0.00  0.00    +0.114 A 
ATOM     24  N   LIG    1      -10.971   3.744  11.394  0.00  0.00    -0.260 NA
BRANCH  22  25
ATOM     25  C   LIG    1       -8.586   6.677  12.030  0.00  0.00    +0.033 C 
ATOM     26  C   LIG    1       -7.507   6.945  13.068  0.00  0.00    +0.009 C 
ENDBRANCH  22  25
ENDBRANCH  18  19
ENDBRANCH  17  18
ENDBRANCH  16  17
ENDBRANCH   4  16
TORSDOF 7
ENDMDL
MODEL 4
REMARK VINA RESULT:      -7.9      3.886      6.275
REMARK  Name = 
REMARK                            x       y       z     vdW  Elec       q    Type
REMARK                         _______ _______ _______ _____ _____    ______ ____
ROOT
ATOM      1  C   LIG    1       -8.345  -3.417  11.987  0.00  0.00    -0.046 A 
ATOM      2  C   LIG    1       -9.614  -3.902  12.309  0.00  0.00    +0.007 A 
ATOM      3  C   LIG    1      -10.635  -3.030  12.684  0.00  0.00    +0.046 A 
ATOM      4  C   LIG    1      -10.408  -1.654  12.776  0.00  0.00    +0.121 A 
ATOM      5  C   LIG    1       -9.139  -1.164  12.472  0.00  0.00    +0.046 A 
ATOM      6  C   LIG    1       -8.115  -2.038  12.071  0.00  0.00    +0.007 A 
ENDROOT
BRANCH   1   7
ATOM      7  C   LIG    1       -7.254  -4.383  11.583  0.00  0.00    +0.059 C 
BRANCH   7  10
ATOM      8  O   LIG    1       -7.565  -4.350  14.819  0.00  0.00    -0.274 OA
ATOM      9  C   LIG    1       -6.648  -4.607  14.050  0.00  0.00    +0.234 C 
ATOM     10  C   LIG    1       -6.786  -5.313  12.710  0.00  0.00    +0.146 C 
ATOM     11  S   LIG    1       -5.069  -5.855  12.341  0.00  0.00    -0.054 S 
ATOM     12  C   LIG    1       -4.380  -4.904  13.633  0.00  0.00    +0.279 C 
ATOM     13  O   LIG    1       -3.191  -4.858  13.888  0.00  0.00    -0.263 OA
ATOM     14  N   LIG    1       -5.357  -4.280  14.330  0.00  0.00    -0.246 N 
ATOM     15  H   LIG    1       -5.125  -3.826  15.199  0.00  0.00    +0.158 HD
ENDBRANCH   7  10
ENDBRANCH   1   7
BRANCH   4  16
ATOM     16  O   LIG    1      -11.350  -0.721  13.160  0.00  0.00    -0.492 OA
BRANCH  16  17
ATOM     17  C   LIG    1      -10.813   0.592  13.325  0.00  0.00    +0.235 C 
BRANCH  17  18
ATOM     18  C   LIG    1      -11.545   1.667  12.526  0.00  0.00    +0.096 C 
BRANCH  18  19
ATOM     19  C   LIG    1      -10.780   2.977  12.458  0.00  0.00    +0.045 A 
ATOM     20  C   LIG    1       -9.944   3.417  13.485  0.00  0.00    +0.024 A 
ATOM     21  C   LIG    1       -9.243   4.610  13.343  0.00  0.00    +0.007 A 
ATOM     22  C   LIG    1       -9.387   5.374  12.188  0.00  0.00    -0.030 A 
ATOM     23  C   LIG    1      -10.257   4.878  11.224  0.00  0.00    +0.114 A 
ATOM     24  N   LIG    1      -10.946   3.712  11.333  0.00  0.00    -0.260 NA
BRANCH  22  25
ATOM     25  C   LIG    1       -8.593   6.647  12.070  0.00  0.00    +0.033 C 
ATOM     26  C   LIG    1       -7.518   6.888  13.119  0.00  0.00    +0.009 C 
ENDBRANCH  22  25
ENDBRANCH  18  19
ENDBRANCH  17  18
ENDBRANCH  16  17
ENDBRANCH   4  16
TORSDOF 7
ENDMDL
MODEL 5
REMARK VINA RESULT:      -7.7      3.946      6.895
REMARK  Name = 
REMARK                            x       y       z     vdW  Elec       q    Type
REMARK                         _______ _______ _______ _____ _____    ______ ____
ROOT
ATOM      1  C   LIG    1       -8.042  -3.415  12.339  0.00  0.00    -0.046 A 
ATOM      2  C   LIG    1       -9.237  -3.918  12.856  0.00  0.00    +0.007 A 
ATOM      3  C   LIG    1      -10.327  -3.078  13.076  0.00  0.00    +0.046 A 
ATOM      4  C   LIG    1      -10.244  -1.707  12.814  0.00  0.00    +0.121 A 
ATOM      5  C   LIG    1       -9.048  -1.195  12.313  0.00  0.00    +0.046 A 
ATOM      6  C   LIG    1       -7.957  -2.043  12.068  0.00  0.00    +0.007 A 
ENDROOT
BRANCH   1   7
ATOM      7  C   LIG    1       -6.873  -4.346  12.109  0.00  0.00    +0.059 C 
BRANCH   7  10
ATOM      8  O   LIG    1       -6.883  -3.315   9.026  0.00  0.00    -0.274 OA
ATOM      9  C   LIG    1       -7.476  -4.196   9.636  0.00  0.00    +0.234 C 
ATOM     10  C   LIG    1       -6.890  -5.052  10.746  0.00  0.00    +0.146 C 
ATOM     11  S   LIG    1       -8.056  -6.471  10.842  0.00  0.00    -0.054 S 
ATOM     12  C   LIG    1       -9.234  -5.707   9.805  0.00  0.00    +0.279 C 
ATOM     13  O   LIG    1      -10.296  -6.211   9.492  0.00  0.00    -0.263 OA
ATOM     14  N   LIG    1       -8.771  -4.514   9.366  0.00  0.00    -0.246 N 
ATOM     15  H   LIG    1       -9.271  -4.034   8.634  0.00  0.00    +0.158 HD
ENDBRANCH   7  10
ENDBRANCH   1   7
BRANCH   4  16
ATOM     16  O   LIG    1      -11.261  -0.799  13.023  0.00  0.00    -0.492 OA
BRANCH  16  17
ATOM     17  C   LIG    1      -10.794   0.517  13.322  0.00  0.00    +0.235 C 
BRANCH  17  18
ATOM     18  C   LIG    1      -11.605   1.629  12.659  0.00  0.00    +0.096 C 
BRANCH  18  19
ATOM     19  C   LIG    1      -10.811   2.910  12.477  0.00  0.00    +0.045 A 
ATOM     20  C   LIG    1      -10.941   3.725  11.351  0.00  0.00    +0.024 A 
ATOM     21  C   LIG    1      -10.209   4.905  11.264  0.00  0.00    +0.007 A 
ATOM     22  C   LIG    1       -9.337   5.266  12.286  0.00  0.00    -0.030 A 
ATOM     23  C   LIG    1       -9.247   4.388  13.360  0.00  0.00    +0.114 A 
ATOM     24  N   LIG    1       -9.956   3.234  13.475  0.00  0.00    -0.260 NA
BRANCH  22  25
ATOM     25  C   LIG    1       -8.582   6.562  12.157  0.00  0.00    +0.033 C 
ATOM     26  C   LIG    1       -7.533   6.857  13.219  0.00  0.00    +0.009 C 
ENDBRANCH  22  25
ENDBRANCH  18  19
ENDBRANCH  17  18
ENDBRANCH  16  17
ENDBRANCH   4  16
TORSDOF 7
ENDMDL
MODEL 6
REMARK VINA RESULT:      -7.5      6.323      9.503
REMARK  Name = 
REMARK                            x       y       z     vdW  Elec       q    Type
REMARK                         _______ _______ _______ _____ _____    ______ ____
ROOT
ATOM      1  C   LIG    1      -10.186   3.857  13.205  0.00  0.00    -0.046 A 
ATOM      2  C   LIG    1       -9.517   3.094  14.163  0.00  0.00    +0.007 A 
ATOM      3  C   LIG    1       -9.726   1.719  14.251  0.00  0.00    +0.046 A 
ATOM      4  C   LIG    1      -10.632   1.073  13.404  0.00  0.00    +0.121 A 
ATOM      5  C   LIG    1      -11.316   1.832  12.455  0.00  0.00    +0.046 A 
ATOM      6  C   LIG    1      -11.089   3.213  12.349  0.00  0.00    +0.007 A 
ENDROOT
BRANCH   1   7
ATOM      7  C   LIG    1       -9.941   5.347  13.129  0.00  0.00    +0.059 C 
BRANCH   7  10
ATOM      8  O   LIG    1       -7.139   6.973  13.386  0.00  0.00    -0.274 OA
ATOM      9  C   LIG    1       -8.058   6.976  12.577  0.00  0.00    +0.234 C 
ATOM     10  C   LIG    1       -8.848   5.756  12.132  0.00  0.00    +0.146 C 
ATOM     11  S   LIG    1       -9.658   6.322  10.582  0.00  0.00    -0.054 S 
ATOM     12  C   LIG    1       -9.226   7.993  10.845  0.00  0.00    +0.279 C 
ATOM     13  O   LIG    1       -9.520   8.900  10.089  0.00  0.00    -0.263 OA
ATOM     14  N   LIG    1       -8.480   8.116  11.966  0.00  0.00    -0.246 N 
ATOM     15  H   LIG    1       -8.024   8.994  12.157  0.00  0.00    +0.158 HD
ENDBRANCH   7  10
ENDBRANCH   1   7
BRANCH   4  16
ATOM     16  O   LIG    1      -10.920  -0.276  13.434  0.00  0.00    -0.492 OA
BRANCH  16  17
ATOM     17  C   LIG    1      -10.037  -1.063  12.632  0.00  0.00    +0.235 C 
BRANCH  17  18
ATOM     18  C   LIG    1      -10.132  -2.563  12.895  0.00  0.00    +0.096 C 
BRANCH  18  19
ATOM     19  C   LIG    1       -8.775  -3.214  13.095  0.00  0.00    +0.045 A 
ATOM     20  C   LIG    1       -7.578  -2.497  13.044  0.00  0.00    +0.024 A 
ATOM     21  C   LIG    1       -6.371  -3.149  13.273  0.00  0.00    +0.007 A 
ATOM     22  C   LIG    1       -6.352  -4.517  13.534  0.00  0.00    -0.030 A 
ATOM     23  C   LIG    1       -7.583  -5.161  13.544  0.00  0.00    +0.114 A 
ATOM     24  N   LIG    1       -8.777  -4.547  13.333  0.00  0.00    -0.260 NA
BRANCH  22  25
ATOM     25  C   LIG    1       -5.024  -5.175  13.796  0.00  0.00    +0.033 C 
ATOM     26  C   LIG    1       -4.272  -4.738  15.044  0.00  0.00    +0.009 C 
ENDBRANCH  22  25
ENDBRANCH  18  19
ENDBRANCH  17  18
ENDBRANCH  16  17
ENDBRANCH   4  16
TORSDOF 7
ENDMDL
MODEL 7
REMARK VINA RESULT:      -7.4      6.326      9.466
REMARK  Name = 
REMARK                            x       y       z     vdW  Elec       q    Type
REMARK                         _______ _______ _______ _____ _____    ______ ____
ROOT
ATOM      1  C   LIG    1      -10.137   3.968  13.272  0.00  0.00    -0.046 A 
ATOM      2  C   LIG    1      -10.995   3.325  12.379  0.00  0.00    +0.007 A 
ATOM      3  C   LIG    1      -11.194   1.947  12.449  0.00  0.00    +0.046 A 
ATOM      4  C   LIG    1      -10.517   1.170  13.394  0.00  0.00    +0.121 A 
ATOM      5  C   LIG    1       -9.646   1.804  14.279  0.00  0.00    +0.046 A 
ATOM      6  C   LIG    1       -9.463   3.194  14.226  0.00  0.00    +0.007 A 
ENDROOT
BRANCH   1   7
ATOM      7  C   LIG    1       -9.939   5.464  13.176  0.00  0.00    +0.059 C 
BRANCH   7  10
ATOM      8  O   LIG    1       -7.027   6.885  13.435  0.00  0.00    -0.274 OA
ATOM      9  C   LIG    1       -7.980   7.017  12.677  0.00  0.00    +0.234 C 
ATOM     10  C   LIG    1       -8.867   5.894  12.166  0.00  0.00    +0.146 C 
ATOM     11  S   LIG    1       -9.706   6.648  10.714  0.00  0.00    -0.054 S 
ATOM     12  C   LIG    1       -9.154   8.258  11.101  0.00  0.00    +0.279 C 
ATOM     13  O   LIG    1       -9.422   9.247  10.444  0.00  0.00    -0.263 OA
ATOM     14  N   LIG    1       -8.352   8.232  12.190  0.00  0.00    -0.246 N 
ATOM     15  H   LIG    1       -7.832   9.060  12.435  0.00  0.00    +0.158 HD
ENDBRANCH   7  10
ENDBRANCH   1   7
BRANCH   4  16
ATOM     16  O   LIG    1      -10.633  -0.199  13.522  0.00  0.00    -0.492 OA
BRANCH  16  17
ATOM     17  C   LIG    1      -10.121  -0.919  12.399  0.00  0.00    +0.235 C 
BRANCH  17  18
ATOM     18  C   LIG    1       -8.676  -1.383  12.567  0.00  0.00    +0.096 C 
BRANCH  18  19
ATOM     19  C   LIG    1       -8.248  -2.377  11.502  0.00  0.00    +0.045 A 
ATOM     20  C   LIG    1       -8.322  -2.099  10.136  0.00  0.00    +0.024 A 
ATOM     21  C   LIG    1       -7.879  -3.042   9.214  0.00  0.00    +0.007 A 
ATOM     22  C   LIG    1       -7.379  -4.266   9.649  0.00  0.00    -0.030 A 
ATOM     23  C   LIG    1       -7.361  -4.473  11.023  0.00  0.00    +0.114 A 
ATOM     24  N   LIG    1       -7.779  -3.567  11.945  0.00  0.00    -0.260 NA
BRANCH  22  25
ATOM     25  C   LIG    1       -6.891  -5.246   8.615  0.00  0.00    +0.033 C 
ATOM     26  C   LIG    1       -7.885  -6.293   8.136  0.00  0.00    +0.009 C 
ENDBRANCH  22  25
ENDBRANCH  18  19
ENDBRANCH  17  18
ENDBRANCH  16  17
ENDBRANCH   4  16
TORSDOF 7
ENDMDL
MODEL 8
REMARK VINA RESULT:      -7.3      3.559      6.087
REMARK  Name = 
REMARK                            x       y       z     vdW  Elec       q    Type
REMARK                         _______ _______ _______ _____ _____    ______ ____
ROOT
ATOM      1  C   LIG    1       -8.806  -5.621  12.382  0.00  0.00    -0.046 A 
ATOM      2  C   LIG    1       -8.345  -4.589  13.202  0.00  0.00    +0.007 A 
ATOM      3  C   LIG    1       -9.091  -3.424  13.368  0.00  0.00    +0.046 A 
ATOM      4  C   LIG    1      -10.304  -3.245  12.697  0.00  0.00    +0.121 A 
ATOM      5  C   LIG    1      -10.763  -4.264  11.863  0.00  0.00    +0.046 A 
ATOM      6  C   LIG    1      -10.025  -5.448  11.713  0.00  0.00    +0.007 A 
ENDROOT
BRANCH   1   7
ATOM      7  C   LIG    1       -7.978  -6.875  12.218  0.00  0.00    +0.059 C 
BRANCH   7  10
ATOM      8  O   LIG    1       -4.909  -5.821  12.027  0.00  0.00    -0.274 OA
ATOM      9  C   LIG    1       -5.894  -5.724  11.306  0.00  0.00    +0.234 C 
ATOM     10  C   LIG    1       -6.942  -6.803  11.088  0.00  0.00    +0.146 C 
ATOM     11  S   LIG    1       -7.794  -6.258   9.553  0.00  0.00    -0.054 S 
ATOM     12  C   LIG    1       -7.030  -4.688   9.563  0.00  0.00    +0.279 C 
ATOM     13  O   LIG    1       -7.229  -3.828   8.726  0.00  0.00    -0.263 OA
ATOM     14  N   LIG    1       -6.158  -4.596  10.592  0.00  0.00    -0.246 N 
ATOM     15  H   LIG    1       -5.527  -3.810  10.631  0.00  0.00    +0.158 HD
ENDBRANCH   7  10
ENDBRANCH   1   7
BRANCH   4  16
ATOM     16  O   LIG    1      -11.097  -2.119  12.783  0.00  0.00    -0.492 OA
BRANCH  16  17
ATOM     17  C   LIG    1      -10.350  -0.903  12.859  0.00  0.00    +0.235 C 
BRANCH  17  18
ATOM     18  C   LIG    1      -10.912   0.109  13.853  0.00  0.00    +0.096 C 
BRANCH  18  19
ATOM     19  C   LIG    1      -10.555   1.543  13.502  0.00  0.00    +0.045 A 
ATOM     20  C   LIG    1       -9.670   2.309  14.263  0.00  0.00    +0.024 A 
ATOM     21  C   LIG    1       -9.358   3.605  13.863  0.00  0.00    +0.007 A 
ATOM     22  C   LIG    1       -9.939   4.144  12.719  0.00  0.00    -0.030 A 
ATOM     23  C   LIG    1      -10.827   3.325  12.032  0.00  0.00    +0.114 A 
ATOM     24  N   LIG    1      -11.142   2.053  12.394  0.00  0.00    -0.260 NA
BRANCH  22  25
ATOM     25  C   LIG    1       -9.555   5.542  12.315  0.00  0.00    +0.033 C 
ATOM     26  C   LIG    1       -8.288   6.115  12.932  0.00  0.00    +0.009 C 
ENDBRANCH  22  25
ENDBRANCH  18  19
ENDBRANCH  17  18
ENDBRANCH  16  17
ENDBRANCH   4  16
TORSDOF 7
ENDMDL
MODEL 9
REMARK VINA RESULT:      -7.2      2.060      4.440
REMARK  Name = 
REMARK                            x       y       z     vdW  Elec       q    Type
REMARK                         _______ _______ _______ _____ _____    ______ ____
ROOT
ATOM      1  C   LIG    1       -7.215  -3.606  14.472  0.00  0.00    -0.046 A 
ATOM      2  C   LIG    1       -8.351  -4.329  14.106  0.00  0.00    +0.007 A 
ATOM      3  C   LIG    1       -9.047  -4.020  12.940  0.00  0.00    +0.046 A 
ATOM      4  C   LIG    1       -8.645  -2.960  12.121  0.00  0.00    +0.121 A 
ATOM      5  C   LIG    1       -7.520  -2.223  12.489  0.00  0.00    +0.046 A 
ATOM      6  C   LIG    1       -6.804  -2.548  13.651  0.00  0.00    +0.007 A 
ENDROOT
BRANCH   1   7
ATOM      7  C   LIG    1       -6.476  -3.961  15.742  0.00  0.00    +0.059 C 
BRANCH   7  10
ATOM      8  O   LIG    1       -3.379  -4.289  16.673  0.00  0.00    -0.274 OA
ATOM      9  C   LIG    1       -3.994  -4.538  15.644  0.00  0.00    +0.234 C 
ATOM     10  C   LIG    1       -5.419  -5.061  15.570  0.00  0.00    +0.146 C 
ATOM     11  S   LIG    1       -5.538  -5.716  13.856  0.00  0.00    -0.054 S 
ATOM     12  C   LIG    1       -4.024  -4.997  13.366  0.00  0.00    +0.279 C 
ATOM     13  O   LIG    1       -3.551  -5.096  12.249  0.00  0.00    -0.263 OA
ATOM     14  N   LIG    1       -3.440  -4.371  14.413  0.00  0.00    -0.246 N 
ATOM     15  H   LIG    1       -2.489  -4.049  14.323  0.00  0.00    +0.158 HD
ENDBRANCH   7  10
ENDBRANCH   1   7
BRANCH   4  16
ATOM     16  O   LIG    1       -9.285  -2.568  10.964  0.00  0.00    -0.492 OA
BRANCH  16  17
ATOM     17  C   LIG    1       -8.438  -1.855  10.061  0.00  0.00    +0.235 C 
BRANCH  17  18
ATOM     18  C   LIG    1       -8.126  -2.613   8.773  0.00  0.00    +0.096 C 
BRANCH  18  19
ATOM     19  C   LIG    1       -7.718  -4.054   9.021  0.00  0.00    +0.045 A 
ATOM     20  C   LIG    1       -6.567  -4.402   9.730  0.00  0.00    +0.024 A 
ATOM     21  C   LIG    1       -6.270  -5.743   9.952  0.00  0.00    +0.007 A 
ATOM     22  C   LIG    1       -7.108  -6.738   9.456  0.00  0.00    -0.030 A 
ATOM     23  C   LIG    1       -8.220  -6.308   8.741  0.00  0.00    +0.114 A 
ATOM     24  N   LIG    1       -8.538  -5.006   8.516  0.00  0.00    -0.260 NA
BRANCH  22  25
ATOM     25  C   LIG    1       -6.758  -8.174   9.740  0.00  0.00    +0.033 C 
ATOM     26  C   LIG    1       -6.222  -8.491  11.127  0.00  0.00    +0.009 C 
ENDBRANCH  22  25
ENDBRANCH  18  19
ENDBRANCH  17  18
ENDBRANCH  16  17
ENDBRANCH   4  16
TORSDOF 7
ENDMDL
