MODEL 1
REMARK VINA RESULT:      -9.5      0.000      0.000
REMARK  Name = 
REMARK                            x       y       z     vdW  Elec       q    Type
REMARK                         _______ _______ _______ _____ _____    ______ ____
ROOT
ATOM      1  C   LIG    1       59.566  46.731  29.227  0.00  0.00    -0.046 A 
ATOM      2  C   LIG    1       60.140  46.759  27.955  0.00  0.00    +0.007 A 
ATOM      3  C   LIG    1       61.486  46.447  27.774  0.00  0.00    +0.046 A 
ATOM      4  C   LIG    1       62.303  46.129  28.863  0.00  0.00    +0.121 A 
ATOM      5  C   LIG    1       61.741  46.115  30.139  0.00  0.00    +0.046 A 
ATOM      6  C   LIG    1       60.379  46.405  30.320  0.00  0.00    +0.007 A 
ENDROOT
BRANCH   1   7
ATOM      7  C   LIG    1       58.103  47.073  29.397  0.00  0.00    +0.059 C 
BRANCH   7  10
ATOM      8  O   LIG    1       55.217  47.238  27.910  0.00  0.00    -0.274 OA
ATOM      9  C   LIG    1       55.698  46.506  28.765  0.00  0.00    +0.234 C 
ATOM     10  C   LIG    1       57.141  46.029  28.813  0.00  0.00    +0.146 C 
ATOM     11  S   LIG    1       57.072  44.595  29.962  0.00  0.00    -0.054 S 
ATOM     12  C   LIG    1       55.442  44.954  30.476  0.00  0.00    +0.279 C 
ATOM     13  O   LIG    1       54.825  44.297  31.293  0.00  0.00    -0.263 OA
ATOM     14  N   LIG    1       54.959  46.020  29.799  0.00  0.00    -0.246 N 
ATOM     15  H   LIG    1       53.979  46.244  29.873  0.00  0.00    +0.158 HD
ENDBRANCH   7  10
ENDBRANCH   1   7
BRANCH   4  16
ATOM     16  O   LIG    1       63.648  45.830  28.782  0.00  0.00    -0.492 OA
BRANCH  16  17
ATOM     17  C   LIG    1       63.952  44.481  29.139  0.00  0.00    +0.235 C 
BRANCH  17  18
ATOM     18  C   LIG    1       65.210  44.333  29.991  0.00  0.00    +0.096 C 
BRANCH  18  19
ATOM     19  C   LIG    1       64.977  44.673  31.452  0.00  0.00    +0.045 A 
ATOM     20  C   LIG    1       64.452  43.757  32.366  0.00  0.00    +0.024 A 
ATOM     21  C   LIG    1       64.298  44.122  33.699  0.00  0.00    +0.007 A 
ATOM     22  C   LIG    1       64.648  45.402  34.120  0.00  0.00    -0.030 A 
ATOM     23  C   LIG    1       65.139  46.261  33.144  0.00  0.00    +0.114 A 
ATOM     24  N   LIG    1       65.309  45.927  31.837  0.00  0.00    -0.260 NA
BRANCH  22  25
ATOM     25  C   LIG    1       64.482  45.745  35.576  0.00  0.00    +0.033 C 
ATOM     26  C   LIG    1       63.716  47.018  35.902  0.00  0.00    +0.009 C 
ENDBRANCH  22  25
ENDBRANCH  18  19
ENDBRANCH  17  18
ENDBRANCH  16  17
ENDBRANCH   4  16
TORSDOF 7
ENDMDL
MODEL 2
REMARK VINA RESULT:      -8.4      1.445      1.997
REMARK  Name = 
REMARK                            x       y       z     vdW  Elec       q    Type
REMARK                         _______ _______ _______ _____ _____    ______ ____
ROOT
ATOM      1  C   LIG    1       59.510  46.148  28.732  0.00  0.00    -0.046 A 
ATOM      2  C   LIG    1       60.210  45.084  29.304  0.00  0.00    +0.007 A 
ATOM      3  C   LIG    1       61.592  45.150  29.473  0.00  0.00    +0.046 A 
ATOM      4  C   LIG    1       62.316  46.267  29.047  0.00  0.00    +0.121 A 
ATOM      5  C   LIG    1       61.626  47.327  28.460  0.00  0.00    +0.046 A 
ATOM      6  C   LIG    1       60.231  47.273  28.311  0.00  0.00    +0.007 A 
ENDROOT
BRANCH   1   7
ATOM      7  C   LIG    1       58.010  46.053  28.562  0.00  0.00    +0.059 C 
BRANCH   7  10
ATOM      8  O   LIG    1       57.859  45.379  31.738  0.00  0.00    -0.274 OA
ATOM      9  C   LIG    1       57.027  45.633  30.876  0.00  0.00    +0.234 C 
ATOM     10  C   LIG    1       57.206  46.623  29.737  0.00  0.00    +0.146 C 
ATOM     11  S   LIG    1       55.483  46.926  29.169  0.00  0.00    -0.054 S 
ATOM     12  C   LIG    1       54.830  45.614  30.118  0.00  0.00    +0.279 C 
ATOM     13  O   LIG    1       53.652  45.309  30.140  0.00  0.00    -0.263 OA
ATOM     14  N   LIG    1       55.805  45.033  30.853  0.00  0.00    -0.246 N 
ATOM     15  H   LIG    1       55.551  44.369  31.567  0.00  0.00    +0.158 HD
ENDBRANCH   7  10
ENDBRANCH   1   7
BRANCH   4  16
ATOM     16  O   LIG    1       63.685  46.409  29.151  0.00  0.00    -0.492 OA
BRANCH  16  17
ATOM     17  C   LIG    1       64.386  45.164  29.156  0.00  0.00    +0.235 C 
BRANCH  17  18
ATOM     18  C   LIG    1       65.575  45.126  30.113  0.00  0.00    +0.096 C 
BRANCH  18  19
ATOM     19  C   LIG    1       65.196  45.483  31.539  0.00  0.00    +0.045 A 
ATOM     20  C   LIG    1       65.978  46.315  32.343  0.00  0.00    +0.024 A 
ATOM     21  C   LIG    1       65.554  46.631  33.630  0.00  0.00    +0.007 A 
ATOM     22  C   LIG    1       64.363  46.107  34.123  0.00  0.00    -0.030 A 
ATOM     23  C   LIG    1       63.656  45.269  33.269  0.00  0.00    +0.114 A 
ATOM     24  N   LIG    1       64.042  44.951  32.005  0.00  0.00    -0.260 NA
BRANCH  22  25
ATOM     25  C   LIG    1       63.934  46.494  35.513  0.00  0.00    +0.033 C 
ATOM     26  C   LIG    1       63.687  45.362  36.498  0.00  0.00    +0.009 C 
ENDBRANCH  22  25
ENDBRANCH  18  19
ENDBRANCH  17  18
ENDBRANCH  16  17
ENDBRANCH   4  16
TORSDOF 7
ENDMDL
MODEL 3
REMARK VINA RESULT:      -8.3      1.690      2.268
REMARK  Name = 
REMARK                            x       y       z     vdW  Elec       q    Type
REMARK                         _______ _______ _______ _____ _____    ______ ____
ROOT
ATOM      1  C   LIG    1       59.195  46.308  28.852  0.00  0.00    -0.046 A 
ATOM      2  C   LIG    1       59.924  46.621  27.704  0.00  0.00    +0.007 A 
ATOM      3  C   LIG    1       61.275  46.953  27.786  0.00  0.00    +0.046 A 
ATOM      4  C   LIG    1       61.928  47.012  29.021  0.00  0.00    +0.121 A 
ATOM      5  C   LIG    1       61.202  46.716  30.174  0.00  0.00    +0.046 A 
ATOM      6  C   LIG    1       59.847  46.358  30.091  0.00  0.00    +0.007 A 
ENDROOT
BRANCH   1   7
ATOM      7  C   LIG    1       57.731  45.950  28.736  0.00  0.00    +0.059 C 
BRANCH   7  10
ATOM      8  O   LIG    1       57.336  45.309  31.899  0.00  0.00    -0.274 OA
ATOM      9  C   LIG    1       56.573  45.564  30.976  0.00  0.00    +0.234 C 
ATOM     10  C   LIG    1       56.848  46.541  29.844  0.00  0.00    +0.146 C 
ATOM     11  S   LIG    1       55.177  46.859  29.147  0.00  0.00    -0.054 S 
ATOM     12  C   LIG    1       54.438  45.564  30.057  0.00  0.00    +0.279 C 
ATOM     13  O   LIG    1       53.259  45.274  29.995  0.00  0.00    -0.263 OA
ATOM     14  N   LIG    1       55.349  44.979  30.867  0.00  0.00    -0.246 N 
ATOM     15  H   LIG    1       55.035  44.326  31.567  0.00  0.00    +0.158 HD
ENDBRANCH   7  10
ENDBRANCH   1   7
BRANCH   4  16
ATOM     16  O   LIG    1       63.252  47.353  29.201  0.00  0.00    -0.492 OA
BRANCH  16  17
ATOM     17  C   LIG    1       64.078  47.030  28.080  0.00  0.00    +0.235 C 
BRANCH  17  18
ATOM     18  C   LIG    1       65.172  46.011  28.390  0.00  0.00    +0.096 C 
BRANCH  18  19
ATOM     19  C   LIG    1       64.899  45.219  29.656  0.00  0.00    +0.045 A 
ATOM     20  C   LIG    1       64.135  44.051  29.666  0.00  0.00    +0.024 A 
ATOM     21  C   LIG    1       63.954  43.353  30.857  0.00  0.00    +0.007 A 
ATOM     22  C   LIG    1       64.519  43.826  32.038  0.00  0.00    -0.030 A 
ATOM     23  C   LIG    1       65.245  45.007  31.946  0.00  0.00    +0.114 A 
ATOM     24  N   LIG    1       65.444  45.703  30.796  0.00  0.00    -0.260 NA
BRANCH  22  25
ATOM     25  C   LIG    1       64.314  43.026  33.297  0.00  0.00    +0.033 C 
ATOM     26  C   LIG    1       64.828  43.636  34.592  0.00  0.00    +0.009 C 
ENDBRANCH  22  25
ENDBRANCH  18  19
ENDBRANCH  17  18
ENDBRANCH  16  17
ENDBRANCH   4  16
TORSDOF 7
ENDMDL
MODEL 4
REMARK VINA RESULT:      -8.3      2.291      3.339
REMARK  Name = 
REMARK                            x       y       z     vdW  Elec       q    Type
REMARK                         _______ _______ _______ _____ _____    ______ ____
ROOT
ATOM      1  C   LIG    1       62.072  45.794  28.144  0.00  0.00    -0.046 A 
ATOM      2  C   LIG    1       62.151  44.620  28.894  0.00  0.00    +0.007 A 
ATOM      3  C   LIG    1       63.356  44.223  29.471  0.00  0.00    +0.046 A 
ATOM      4  C   LIG    1       64.522  44.973  29.290  0.00  0.00    +0.121 A 
ATOM      5  C   LIG    1       64.454  46.139  28.528  0.00  0.00    +0.046 A 
ATOM      6  C   LIG    1       63.236  46.553  27.966  0.00  0.00    +0.007 A 
ENDROOT
BRANCH   1   7
ATOM      7  C   LIG    1       60.753  46.203  27.528  0.00  0.00    +0.059 C 
BRANCH   7  10
ATOM      8  O   LIG    1       61.311  48.026  30.161  0.00  0.00    -0.274 OA
ATOM      9  C   LIG    1       60.442  47.223  29.845  0.00  0.00    +0.234 C 
ATOM     10  C   LIG    1       59.864  47.049  28.450  0.00  0.00    +0.146 C 
ATOM     11  S   LIG    1       58.302  46.128  28.754  0.00  0.00    -0.054 S 
ATOM     12  C   LIG    1       58.704  45.792  30.420  0.00  0.00    +0.279 C 
ATOM     13  O   LIG    1       57.992  45.163  31.180  0.00  0.00    -0.263 OA
ATOM     14  N   LIG    1       59.880  46.375  30.747  0.00  0.00    -0.246 N 
ATOM     15  H   LIG    1       60.160  46.403  31.715  0.00  0.00    +0.158 HD
ENDBRANCH   7  10
ENDBRANCH   1   7
BRANCH   4  16
ATOM     16  O   LIG    1       65.761  44.646  29.802  0.00  0.00    -0.492 OA
BRANCH  16  17
ATOM     17  C   LIG    1       65.779  44.557  31.228  0.00  0.00    +0.235 C 
BRANCH  17  18
ATOM     18  C   LIG    1       65.852  45.909  31.933  0.00  0.00    +0.096 C 
BRANCH  18  19
ATOM     19  C   LIG    1       64.655  46.172  32.829  0.00  0.00    +0.045 A 
ATOM     20  C   LIG    1       63.364  46.355  32.331  0.00  0.00    +0.024 A 
ATOM     21  C   LIG    1       62.305  46.556  33.211  0.00  0.00    +0.007 A 
ATOM     22  C   LIG    1       62.532  46.592  34.584  0.00  0.00    -0.030 A 
ATOM     23  C   LIG    1       63.849  46.425  34.997  0.00  0.00    +0.114 A 
ATOM     24  N   LIG    1       64.900  46.218  34.160  0.00  0.00    -0.260 NA
BRANCH  22  25
ATOM     25  C   LIG    1       61.353  46.791  35.498  0.00  0.00    +0.033 C 
ATOM     26  C   LIG    1       61.043  48.219  35.921  0.00  0.00    +0.009 C 
ENDBRANCH  22  25
ENDBRANCH  18  19
ENDBRANCH  17  18
ENDBRANCH  16  17
ENDBRANCH   4  16
TORSDOF 7
ENDMDL
MODEL 5
REMARK VINA RESULT:      -8.2      1.512      2.028
REMARK  Name = 
REMARK                            x       y       z     vdW  Elec       q    Type
REMARK                         _______ _______ _______ _____ _____    ______ ____
ROOT
ATOM      1  C   LIG    1       60.276  46.440  29.395  0.00  0.00    -0.046 A 
ATOM      2  C   LIG    1       60.719  45.127  29.228  0.00  0.00    +0.007 A 
ATOM      3  C   LIG    1       62.081  44.834  29.187  0.00  0.00    +0.046 A 
ATOM      4  C   LIG    1       63.038  45.848  29.281  0.00  0.00    +0.121 A 
ATOM      5  C   LIG    1       62.604  47.164  29.431  0.00  0.00    +0.046 A 
ATOM      6  C   LIG    1       61.233  47.459  29.497  0.00  0.00    +0.007 A 
ENDROOT
BRANCH   1   7
ATOM      7  C   LIG    1       58.794  46.733  29.437  0.00  0.00    +0.059 C 
BRANCH   7  10
ATOM      8  O   LIG    1       56.360  45.769  27.510  0.00  0.00    -0.274 OA
ATOM      9  C   LIG    1       56.561  45.733  28.717  0.00  0.00    +0.234 C 
ATOM     10  C   LIG    1       57.904  45.483  29.384  0.00  0.00    +0.146 C 
ATOM     11  S   LIG    1       57.441  45.027  31.104  0.00  0.00    -0.054 S 
ATOM     12  C   LIG    1       55.776  45.507  30.893  0.00  0.00    +0.279 C 
ATOM     13  O   LIG    1       54.929  45.433  31.764  0.00  0.00    -0.263 OA
ATOM     14  N   LIG    1       55.561  45.916  29.622  0.00  0.00    -0.246 N 
ATOM     15  H   LIG    1       54.615  46.070  29.310  0.00  0.00    +0.158 HD
ENDBRANCH   7  10
ENDBRANCH   1   7
BRANCH   4  16
ATOM     16  O   LIG    1       64.403  45.655  29.227  0.00  0.00    -0.492 OA
BRANCH  16  17
ATOM     17  C   LIG    1       65.055  45.853  30.483  0.00  0.00    +0.235 C 
BRANCH  17  18
ATOM     18  C   LIG    1       64.499  44.990  31.613  0.00  0.00    +0.096 C 
BRANCH  18  19
ATOM     19  C   LIG    1       63.971  45.810  32.777  0.00  0.00    +0.045 A 
ATOM     20  C   LIG    1       64.753  46.137  33.886  0.00  0.00    +0.024 A 
ATOM     21  C   LIG    1       64.217  46.923  34.902  0.00  0.00    +0.007 A 
ATOM     22  C   LIG    1       62.901  47.369  34.822  0.00  0.00    -0.030 A 
ATOM     23  C   LIG    1       62.183  46.980  33.697  0.00  0.00    +0.114 A 
ATOM     24  N   LIG    1       62.684  46.221  32.687  0.00  0.00    -0.260 NA
BRANCH  22  25
ATOM     25  C   LIG    1       62.372  48.234  35.934  0.00  0.00    +0.033 C 
ATOM     26  C   LIG    1       60.861  48.313  36.087  0.00  0.00    +0.009 C 
ENDBRANCH  22  25
ENDBRANCH  18  19
ENDBRANCH  17  18
ENDBRANCH  16  17
ENDBRANCH   4  16
TORSDOF 7
ENDMDL
MODEL 6
REMARK VINA RESULT:      -8.1      3.268      7.354
REMARK  Name = 
REMARK                            x       y       z     vdW  Elec       q    Type
REMARK                         _______ _______ _______ _____ _____    ______ ____
ROOT
ATOM      1  C   LIG    1       65.148  44.661  32.795  0.00  0.00    -0.046 A 
ATOM      2  C   LIG    1       64.311  43.580  32.512  0.00  0.00    +0.007 A 
ATOM      3  C   LIG    1       64.132  43.142  31.201  0.00  0.00    +0.046 A 
ATOM      4  C   LIG    1       64.760  43.790  30.134  0.00  0.00    +0.121 A 
ATOM      5  C   LIG    1       65.585  44.881  30.407  0.00  0.00    +0.046 A 
ATOM      6  C   LIG    1       65.785  45.309  31.729  0.00  0.00    +0.007 A 
ENDROOT
BRANCH   1   7
ATOM      7  C   LIG    1       65.327  45.117  34.225  0.00  0.00    +0.059 C 
BRANCH   7  10
ATOM      8  O   LIG    1       64.405  46.570  36.983  0.00  0.00    -0.274 OA
ATOM      9  C   LIG    1       63.896  46.429  35.879  0.00  0.00    +0.234 C 
ATOM     10  C   LIG    1       64.638  46.449  34.553  0.00  0.00    +0.146 C 
ATOM     11  S   LIG    1       63.298  46.726  33.325  0.00  0.00    -0.054 S 
ATOM     12  C   LIG    1       62.030  46.455  34.494  0.00  0.00    +0.279 C 
ATOM     13  O   LIG    1       60.842  46.506  34.235  0.00  0.00    -0.263 OA
ATOM     14  N   LIG    1       62.558  46.238  35.719  0.00  0.00    -0.246 N 
ATOM     15  H   LIG    1       61.947  46.225  36.521  0.00  0.00    +0.158 HD
ENDBRANCH   7  10
ENDBRANCH   1   7
BRANCH   4  16
ATOM     16  O   LIG    1       64.623  43.442  28.806  0.00  0.00    -0.492 OA
BRANCH  16  17
ATOM     17  C   LIG    1       63.362  43.817  28.248  0.00  0.00    +0.235 C 
BRANCH  17  18
ATOM     18  C   LIG    1       63.193  45.321  28.052  0.00  0.00    +0.096 C 
BRANCH  18  19
ATOM     19  C   LIG    1       61.788  45.803  28.363  0.00  0.00    +0.045 A 
ATOM     20  C   LIG    1       61.223  46.928  27.759  0.00  0.00    +0.024 A 
ATOM     21  C   LIG    1       59.916  47.294  28.064  0.00  0.00    +0.007 A 
ATOM     22  C   LIG    1       59.176  46.552  28.981  0.00  0.00    -0.030 A 
ATOM     23  C   LIG    1       59.819  45.462  29.555  0.00  0.00    +0.114 A 
ATOM     24  N   LIG    1       61.091  45.077  29.269  0.00  0.00    -0.260 NA
BRANCH  22  25
ATOM     25  C   LIG    1       57.759  46.973  29.262  0.00  0.00    +0.033 C 
ATOM     26  C   LIG    1       56.663  45.973  28.927  0.00  0.00    +0.009 C 
ENDBRANCH  22  25
ENDBRANCH  18  19
ENDBRANCH  17  18
ENDBRANCH  16  17
ENDBRANCH   4  16
TORSDOF 7
ENDMDL
MODEL 7
REMARK VINA RESULT:      -8.1      2.986      7.815
REMARK  Name = 
REMARK                            x       y       z     vdW  Elec       q    Type
REMARK                         _______ _______ _______ _____ _____    ______ ____
ROOT
ATOM      1  C   LIG    1       64.449  45.027  30.444  0.00  0.00    -0.046 A 
ATOM      2  C   LIG    1       64.625  46.104  29.574  0.00  0.00    +0.007 A 
ATOM      3  C   LIG    1       63.711  46.352  28.552  0.00  0.00    +0.046 A 
ATOM      4  C   LIG    1       62.611  45.512  28.352  0.00  0.00    +0.121 A 
ATOM      5  C   LIG    1       62.437  44.425  29.207  0.00  0.00    +0.046 A 
ATOM      6  C   LIG    1       63.344  44.188  30.252  0.00  0.00    +0.007 A 
ENDROOT
BRANCH   1   7
ATOM      7  C   LIG    1       65.454  44.781  31.546  0.00  0.00    +0.059 C 
BRANCH   7  10
ATOM      8  O   LIG    1       67.292  45.298  34.177  0.00  0.00    -0.274 OA
ATOM      9  C   LIG    1       66.104  45.447  33.920  0.00  0.00    +0.234 C 
ATOM     10  C   LIG    1       65.538  45.906  32.586  0.00  0.00    +0.146 C 
ATOM     11  S   LIG    1       63.828  46.429  33.013  0.00  0.00    -0.054 S 
ATOM     12  C   LIG    1       63.905  45.737  34.615  0.00  0.00    +0.279 C 
ATOM     13  O   LIG    1       62.993  45.774  35.418  0.00  0.00    -0.263 OA
ATOM     14  N   LIG    1       65.131  45.213  34.842  0.00  0.00    -0.246 N 
ATOM     15  H   LIG    1       65.375  44.924  35.776  0.00  0.00    +0.158 HD
ENDBRANCH   7  10
ENDBRANCH   1   7
BRANCH   4  16
ATOM     16  O   LIG    1       61.670  45.665  27.355  0.00  0.00    -0.492 OA
BRANCH  16  17
ATOM     17  C   LIG    1       60.928  46.882  27.456  0.00  0.00    +0.235 C 
BRANCH  17  18
ATOM     18  C   LIG    1       60.581  47.279  28.889  0.00  0.00    +0.096 C 
BRANCH  18  19
ATOM     19  C   LIG    1       59.335  46.584  29.409  0.00  0.00    +0.045 A 
ATOM     20  C   LIG    1       59.312  45.873  30.610  0.00  0.00    +0.024 A 
ATOM     21  C   LIG    1       58.126  45.290  31.046  0.00  0.00    +0.007 A 
ATOM     22  C   LIG    1       56.969  45.400  30.280  0.00  0.00    -0.030 A 
ATOM     23  C   LIG    1       57.082  46.103  29.086  0.00  0.00    +0.114 A 
ATOM     24  N   LIG    1       58.225  46.689  28.641  0.00  0.00    -0.260 NA
BRANCH  22  25
ATOM     25  C   LIG    1       55.705  44.771  30.802  0.00  0.00    +0.033 C 
ATOM     26  C   LIG    1       54.394  45.263  30.208  0.00  0.00    +0.009 C 
ENDBRANCH  22  25
ENDBRANCH  18  19
ENDBRANCH  17  18
ENDBRANCH  16  17
ENDBRANCH   4  16
TORSDOF 7
ENDMDL
MODEL 8
REMARK VINA RESULT:      -8.0      3.649      7.224
REMARK  Name = 
REMARK                            x       y       z     vdW  Elec       q    Type
REMARK                         _______ _______ _______ _____ _____    ______ ____
ROOT
ATOM      1  C   LIG    1       64.195  43.846  30.601  0.00  0.00    -0.046 A 
ATOM      2  C   LIG    1       63.074  43.681  29.786  0.00  0.00    +0.007 A 
ATOM      3  C   LIG    1       62.910  44.449  28.635  0.00  0.00    +0.046 A 
ATOM      4  C   LIG    1       63.848  45.425  28.281  0.00  0.00    +0.121 A 
ATOM      5  C   LIG    1       64.962  45.607  29.099  0.00  0.00    +0.046 A 
ATOM      6  C   LIG    1       65.141  44.818  30.246  0.00  0.00    +0.007 A 
ENDROOT
BRANCH   1   7
ATOM      7  C   LIG    1       64.351  43.001  31.844  0.00  0.00    +0.059 C 
BRANCH   7  10
ATOM      8  O   LIG    1       62.842  45.785  32.576  0.00  0.00    -0.274 OA
ATOM      9  C   LIG    1       63.870  45.242  32.960  0.00  0.00    +0.234 C 
ATOM     10  C   LIG    1       64.062  43.747  33.153  0.00  0.00    +0.146 C 
ATOM     11  S   LIG    1       65.557  43.649  34.219  0.00  0.00    -0.054 S 
ATOM     12  C   LIG    1       65.935  45.342  34.020  0.00  0.00    +0.279 C 
ATOM     13  O   LIG    1       66.894  45.891  34.531  0.00  0.00    -0.263 OA
ATOM     14  N   LIG    1       64.988  45.952  33.272  0.00  0.00    -0.246 N 
ATOM     15  H   LIG    1       64.987  46.957  33.207  0.00  0.00    +0.158 HD
ENDBRANCH   7  10
ENDBRANCH   1   7
BRANCH   4  16
ATOM     16  O   LIG    1       63.757  46.245  27.176  0.00  0.00    -0.492 OA
BRANCH  16  17
ATOM     17  C   LIG    1       64.143  47.595  27.438  0.00  0.00    +0.235 C 
BRANCH  17  18
ATOM     18  C   LIG    1       62.971  48.534  27.711  0.00  0.00    +0.096 C 
BRANCH  18  19
ATOM     19  C   LIG    1       61.791  47.832  28.360  0.00  0.00    +0.045 A 
ATOM     20  C   LIG    1       60.729  47.304  27.624  0.00  0.00    +0.024 A 
ATOM     21  C   LIG    1       59.696  46.640  28.279  0.00  0.00    +0.007 A 
ATOM     22  C   LIG    1       59.712  46.517  29.666  0.00  0.00    -0.030 A 
ATOM     23  C   LIG    1       60.792  47.091  30.325  0.00  0.00    +0.114 A 
ATOM     24  N   LIG    1       61.818  47.736  29.710  0.00  0.00    -0.260 NA
BRANCH  22  25
ATOM     25  C   LIG    1       58.584  45.773  30.329  0.00  0.00    +0.033 C 
ATOM     26  C   LIG    1       57.318  45.568  29.510  0.00  0.00    +0.009 C 
ENDBRANCH  22  25
ENDBRANCH  18  19
ENDBRANCH  17  18
ENDBRANCH  16  17
ENDBRANCH   4  16
TORSDOF 7
ENDMDL
MODEL 9
REMARK VINA RESULT:      -7.6      3.525      7.292
REMARK  Name = 
REMARK                            x       y       z     vdW  Elec       q    Type
REMARK                         _______ _______ _______ _____ _____    ______ ____
ROOT
ATOM      1  C   LIG    1       64.832  44.605  33.127  0.00  0.00    -0.046 A 
ATOM      2  C   LIG    1       64.273  43.655  32.270  0.00  0.00    +0.007 A 
ATOM      3  C   LIG    1       64.384  43.790  30.888  0.00  0.00    +0.046 A 
ATOM      4  C   LIG    1       65.030  44.893  30.321  0.00  0.00    +0.121 A 
ATOM      5  C   LIG    1       65.576  45.855  31.170  0.00  0.00    +0.046 A 
ATOM      6  C   LIG    1       65.486  45.709  32.563  0.00  0.00    +0.007 A 
ENDROOT
BRANCH   1   7
ATOM      7  C   LIG    1       64.699  44.437  34.623  0.00  0.00    +0.059 C 
BRANCH   7  10
ATOM      8  O   LIG    1       61.908  45.586  33.418  0.00  0.00    -0.274 OA
ATOM      9  C   LIG    1       62.726  46.003  34.227  0.00  0.00    +0.234 C 
ATOM     10  C   LIG    1       63.488  45.155  35.233  0.00  0.00    +0.146 C 
ATOM     11  S   LIG    1       64.098  46.390  36.450  0.00  0.00    -0.054 S 
ATOM     12  C   LIG    1       63.659  47.749  35.445  0.00  0.00    +0.279 C 
ATOM     13  O   LIG    1       63.842  48.912  35.753  0.00  0.00    -0.263 OA
ATOM     14  N   LIG    1       63.046  47.323  34.317  0.00  0.00    -0.246 N 
ATOM     15  H   LIG    1       62.595  47.997  33.720  0.00  0.00    +0.158 HD
ENDBRANCH   7  10
ENDBRANCH   1   7
BRANCH   4  16
ATOM     16  O   LIG    1       65.166  45.121  28.968  0.00  0.00    -0.492 OA
BRANCH  16  17
ATOM     17  C   LIG    1       63.923  45.347  28.302  0.00  0.00    +0.235 C 
BRANCH  17  18
ATOM     18  C   LIG    1       63.321  46.725  28.565  0.00  0.00    +0.096 C 
BRANCH  18  19
ATOM     19  C   LIG    1       61.817  46.682  28.775  0.00  0.00    +0.045 A 
ATOM     20  C   LIG    1       61.161  45.571  29.306  0.00  0.00    +0.024 A 
ATOM     21  C   LIG    1       59.784  45.611  29.506  0.00  0.00    +0.007 A 
ATOM     22  C   LIG    1       59.060  46.749  29.163  0.00  0.00    -0.030 A 
ATOM     23  C   LIG    1       59.785  47.803  28.619  0.00  0.00    +0.114 A 
ATOM     24  N   LIG    1       61.129  47.793  28.421  0.00  0.00    -0.260 NA
BRANCH  22  25
ATOM     25  C   LIG    1       57.576  46.755  29.418  0.00  0.00    +0.033 C 
ATOM     26  C   LIG    1       56.752  45.691  28.709  0.00  0.00    +0.009 C 
ENDBRANCH  22  25
ENDBRANCH  18  19
ENDBRANCH  17  18
ENDBRANCH  16  17
ENDBRANCH   4  16
TORSDOF 7
ENDMDL
