MODEL 1
REMARK VINA RESULT:      -9.7      0.000      0.000
REMARK  Name = 
REMARK                            x       y       z     vdW  Elec       q    Type
REMARK                         _______ _______ _______ _____ _____    ______ ____
ROOT
ATOM      1  C   LIG    1       43.243  -2.993  16.954  0.00  0.00    -0.046 A 
ATOM      2  C   LIG    1       43.164  -1.921  17.844  0.00  0.00    +0.007 A 
ATOM      3  C   LIG    1       42.034  -1.106  17.880  0.00  0.00    +0.046 A 
ATOM      4  C   LIG    1       40.964  -1.322  17.007  0.00  0.00    +0.121 A 
ATOM      5  C   LIG    1       41.042  -2.381  16.104  0.00  0.00    +0.046 A 
ATOM      6  C   LIG    1       42.169  -3.218  16.082  0.00  0.00    +0.007 A 
ENDROOT
BRANCH   1   7
ATOM      7  C   LIG    1       44.479  -3.864  16.935  0.00  0.00    +0.059 C 
BRANCH   7  10
ATOM      8  O   LIG    1       46.763  -2.795  14.884  0.00  0.00    -0.274 OA
ATOM      9  C   LIG    1       46.785  -3.337  15.982  0.00  0.00    +0.234 C 
ATOM     10  C   LIG    1       45.794  -3.093  17.109  0.00  0.00    +0.146 C 
ATOM     11  S   LIG    1       46.666  -3.757  18.585  0.00  0.00    -0.054 S 
ATOM     12  C   LIG    1       47.917  -4.517  17.633  0.00  0.00    +0.279 C 
ATOM     13  O   LIG    1       48.838  -5.157  18.104  0.00  0.00    -0.263 OA
ATOM     14  N   LIG    1       47.739  -4.245  16.320  0.00  0.00    -0.246 N 
ATOM     15  H   LIG    1       48.470  -4.482  15.668  0.00  0.00    +0.158 HD
ENDBRANCH   7  10
ENDBRANCH   1   7
BRANCH   4  16
ATOM     16  O   LIG    1       39.819  -0.554  16.955  0.00  0.00    -0.492 OA
BRANCH  16  17
ATOM     17  C   LIG    1       39.063  -0.743  15.757  0.00  0.00    +0.235 C 
BRANCH  17  18
ATOM     18  C   LIG    1       37.619  -0.256  15.852  0.00  0.00    +0.096 C 
BRANCH  18  19
ATOM     19  C   LIG    1       37.484   1.239  15.622  0.00  0.00    +0.045 A 
ATOM     20  C   LIG    1       37.621   1.825  14.363  0.00  0.00    +0.024 A 
ATOM     21  C   LIG    1       37.449   3.198  14.217  0.00  0.00    +0.007 A 
ATOM     22  C   LIG    1       37.158   3.989  15.324  0.00  0.00    -0.030 A 
ATOM     23  C   LIG    1       37.062   3.332  16.545  0.00  0.00    +0.114 A 
ATOM     24  N   LIG    1       37.217   1.992  16.715  0.00  0.00    -0.260 NA
BRANCH  22  25
ATOM     25  C   LIG    1       36.959   5.466  15.114  0.00  0.00    +0.033 C 
ATOM     26  C   LIG    1       36.407   5.903  13.766  0.00  0.00    +0.009 C 
ENDBRANCH  22  25
ENDBRANCH  18  19
ENDBRANCH  17  18
ENDBRANCH  16  17
ENDBRANCH   4  16
TORSDOF 7
ENDMDL
MODEL 2
REMARK VINA RESULT:      -9.4      1.433      2.041
REMARK  Name = 
REMARK                            x       y       z     vdW  Elec       q    Type
REMARK                         _______ _______ _______ _____ _____    ______ ____
ROOT
ATOM      1  C   LIG    1       44.261  -2.374  17.836  0.00  0.00    -0.046 A 
ATOM      2  C   LIG    1       43.814  -1.233  18.503  0.00  0.00    +0.007 A 
ATOM      3  C   LIG    1       42.528  -0.740  18.288  0.00  0.00    +0.046 A 
ATOM      4  C   LIG    1       41.663  -1.356  17.379  0.00  0.00    +0.121 A 
ATOM      5  C   LIG    1       42.108  -2.488  16.697  0.00  0.00    +0.046 A 
ATOM      6  C   LIG    1       43.394  -3.000  16.929  0.00  0.00    +0.007 A 
ENDROOT
BRANCH   1   7
ATOM      7  C   LIG    1       45.659  -2.890  18.086  0.00  0.00    +0.059 C 
BRANCH   7  10
ATOM      8  O   LIG    1       47.956  -5.189  17.997  0.00  0.00    -0.274 OA
ATOM      9  C   LIG    1       47.617  -4.289  17.240  0.00  0.00    +0.234 C 
ATOM     10  C   LIG    1       46.189  -3.830  16.994  0.00  0.00    +0.146 C 
ATOM     11  S   LIG    1       46.316  -2.882  15.424  0.00  0.00    -0.054 S 
ATOM     12  C   LIG    1       48.062  -2.878  15.448  0.00  0.00    +0.279 C 
ATOM     13  O   LIG    1       48.754  -2.352  14.597  0.00  0.00    -0.263 OA
ATOM     14  N   LIG    1       48.520  -3.583  16.507  0.00  0.00    -0.246 N 
ATOM     15  H   LIG    1       49.502  -3.802  16.562  0.00  0.00    +0.158 HD
ENDBRANCH   7  10
ENDBRANCH   1   7
BRANCH   4  16
ATOM     16  O   LIG    1       40.385  -0.926  17.087  0.00  0.00    -0.492 OA
BRANCH  16  17
ATOM     17  C   LIG    1       40.208  -0.565  15.716  0.00  0.00    +0.235 C 
BRANCH  17  18
ATOM     18  C   LIG    1       40.708   0.836  15.374  0.00  0.00    +0.096 C 
BRANCH  18  19
ATOM     19  C   LIG    1       39.587   1.785  14.987  0.00  0.00    +0.045 A 
ATOM     20  C   LIG    1       39.061   1.845  13.696  0.00  0.00    +0.024 A 
ATOM     21  C   LIG    1       38.009   2.712  13.418  0.00  0.00    +0.007 A 
ATOM     22  C   LIG    1       37.492   3.530  14.419  0.00  0.00    -0.030 A 
ATOM     23  C   LIG    1       38.088   3.426  15.670  0.00  0.00    +0.114 A 
ATOM     24  N   LIG    1       39.110   2.583  15.971  0.00  0.00    -0.260 NA
BRANCH  22  25
ATOM     25  C   LIG    1       36.340   4.436  14.076  0.00  0.00    +0.033 C 
ATOM     26  C   LIG    1       36.647   5.920  13.944  0.00  0.00    +0.009 C 
ENDBRANCH  22  25
ENDBRANCH  18  19
ENDBRANCH  17  18
ENDBRANCH  16  17
ENDBRANCH   4  16
TORSDOF 7
ENDMDL
MODEL 3
REMARK VINA RESULT:      -9.4      3.800      9.812
REMARK  Name = 
REMARK                            x       y       z     vdW  Elec       q    Type
REMARK                         _______ _______ _______ _____ _____    ______ ____
ROOT
ATOM      1  C   LIG    1       37.873  -0.101  14.958  0.00  0.00    -0.046 A 
ATOM      2  C   LIG    1       37.900  -0.586  16.266  0.00  0.00    +0.007 A 
ATOM      3  C   LIG    1       38.701  -1.675  16.606  0.00  0.00    +0.046 A 
ATOM      4  C   LIG    1       39.475  -2.328  15.642  0.00  0.00    +0.121 A 
ATOM      5  C   LIG    1       39.441  -1.859  14.329  0.00  0.00    +0.046 A 
ATOM      6  C   LIG    1       38.653  -0.748  13.990  0.00  0.00    +0.007 A 
ENDROOT
BRANCH   1   7
ATOM      7  C   LIG    1       36.996   1.081  14.614  0.00  0.00    +0.059 C 
BRANCH   7  10
ATOM      8  O   LIG    1       39.995   2.211  15.160  0.00  0.00    -0.274 OA
ATOM      9  C   LIG    1       38.883   2.723  15.109  0.00  0.00    +0.234 C 
ATOM     10  C   LIG    1       37.768   2.326  14.156  0.00  0.00    +0.146 C 
ATOM     11  S   LIG    1       36.631   3.769  14.214  0.00  0.00    -0.054 S 
ATOM     12  C   LIG    1       37.445   4.486  15.583  0.00  0.00    +0.279 C 
ATOM     13  O   LIG    1       37.107   5.531  16.106  0.00  0.00    -0.263 OA
ATOM     14  N   LIG    1       38.521   3.745  15.932  0.00  0.00    -0.246 N 
ATOM     15  H   LIG    1       39.177   4.118  16.599  0.00  0.00    +0.158 HD
ENDBRANCH   7  10
ENDBRANCH   1   7
BRANCH   4  16
ATOM     16  O   LIG    1       40.278  -3.424  15.881  0.00  0.00    -0.492 OA
BRANCH  16  17
ATOM     17  C   LIG    1       41.675  -3.132  15.804  0.00  0.00    +0.235 C 
BRANCH  17  18
ATOM     18  C   LIG    1       42.220  -2.384  17.018  0.00  0.00    +0.096 C 
BRANCH  18  19
ATOM     19  C   LIG    1       43.607  -2.848  17.423  0.00  0.00    +0.045 A 
ATOM     20  C   LIG    1       44.372  -2.191  18.389  0.00  0.00    +0.024 A 
ATOM     21  C   LIG    1       45.622  -2.692  18.740  0.00  0.00    +0.007 A 
ATOM     22  C   LIG    1       46.118  -3.835  18.118  0.00  0.00    -0.030 A 
ATOM     23  C   LIG    1       45.305  -4.415  17.151  0.00  0.00    +0.114 A 
ATOM     24  N   LIG    1       44.078  -3.952  16.797  0.00  0.00    -0.260 NA
BRANCH  22  25
ATOM     25  C   LIG    1       47.466  -4.351  18.545  0.00  0.00    +0.033 C 
ATOM     26  C   LIG    1       48.589  -4.275  17.522  0.00  0.00    +0.009 C 
ENDBRANCH  22  25
ENDBRANCH  18  19
ENDBRANCH  17  18
ENDBRANCH  16  17
ENDBRANCH   4  16
TORSDOF 7
ENDMDL
MODEL 4
REMARK VINA RESULT:      -9.4      4.020      9.883
REMARK  Name = 
REMARK                            x       y       z     vdW  Elec       q    Type
REMARK                         _______ _______ _______ _____ _____    ______ ____
ROOT
ATOM      1  C   LIG    1       37.833   1.331  16.626  0.00  0.00    -0.046 A 
ATOM      2  C   LIG    1       39.025   1.147  17.330  0.00  0.00    +0.007 A 
ATOM      3  C   LIG    1       39.623  -0.109  17.402  0.00  0.00    +0.046 A 
ATOM      4  C   LIG    1       39.031  -1.223  16.798  0.00  0.00    +0.121 A 
ATOM      5  C   LIG    1       37.833  -1.050  16.107  0.00  0.00    +0.046 A 
ATOM      6  C   LIG    1       37.241   0.219  16.013  0.00  0.00    +0.007 A 
ENDROOT
BRANCH   1   7
ATOM      7  C   LIG    1       37.205   2.704  16.562  0.00  0.00    +0.059 C 
BRANCH   7  10
ATOM      8  O   LIG    1       38.200   5.797  16.663  0.00  0.00    -0.274 OA
ATOM      9  C   LIG    1       37.599   5.118  15.840  0.00  0.00    +0.234 C 
ATOM     10  C   LIG    1       37.859   3.650  15.545  0.00  0.00    +0.146 C 
ATOM     11  S   LIG    1       37.049   3.398  13.914  0.00  0.00    -0.054 S 
ATOM     12  C   LIG    1       36.245   4.948  13.958  0.00  0.00    +0.279 C 
ATOM     13  O   LIG    1       35.511   5.360  13.081  0.00  0.00    -0.263 OA
ATOM     14  N   LIG    1       36.601   5.631  15.070  0.00  0.00    -0.246 N 
ATOM     15  H   LIG    1       36.344   6.602  15.152  0.00  0.00    +0.158 HD
ENDBRANCH   7  10
ENDBRANCH   1   7
BRANCH   4  16
ATOM     16  O   LIG    1       39.538  -2.506  16.837  0.00  0.00    -0.492 OA
BRANCH  16  17
ATOM     17  C   LIG    1       40.146  -2.914  15.610  0.00  0.00    +0.235 C 
BRANCH  17  18
ATOM     18  C   LIG    1       41.412  -2.137  15.258  0.00  0.00    +0.096 C 
BRANCH  18  19
ATOM     19  C   LIG    1       42.549  -2.389  16.232  0.00  0.00    +0.045 A 
ATOM     20  C   LIG    1       43.197  -3.621  16.334  0.00  0.00    +0.024 A 
ATOM     21  C   LIG    1       44.257  -3.774  17.223  0.00  0.00    +0.007 A 
ATOM     22  C   LIG    1       44.660  -2.708  18.022  0.00  0.00    -0.030 A 
ATOM     23  C   LIG    1       43.948  -1.523  17.877  0.00  0.00    +0.114 A 
ATOM     24  N   LIG    1       42.916  -1.344  17.011  0.00  0.00    -0.260 NA
BRANCH  22  25
ATOM     25  C   LIG    1       45.825  -2.914  18.953  0.00  0.00    +0.033 C 
ATOM     26  C   LIG    1       46.871  -3.934  18.532  0.00  0.00    +0.009 C 
ENDBRANCH  22  25
ENDBRANCH  18  19
ENDBRANCH  17  18
ENDBRANCH  16  17
ENDBRANCH   4  16
TORSDOF 7
ENDMDL
MODEL 5
REMARK VINA RESULT:      -9.4      1.618      2.034
REMARK  Name = 
REMARK                            x       y       z     vdW  Elec       q    Type
REMARK                         _______ _______ _______ _____ _____    ______ ____
ROOT
ATOM      1  C   LIG    1       43.100  -2.504  17.306  0.00  0.00    -0.046 A 
ATOM      2  C   LIG    1       42.492  -3.251  16.296  0.00  0.00    +0.007 A 
ATOM      3  C   LIG    1       41.221  -2.919  15.831  0.00  0.00    +0.046 A 
ATOM      4  C   LIG    1       40.510  -1.849  16.382  0.00  0.00    +0.121 A 
ATOM      5  C   LIG    1       41.104  -1.107  17.402  0.00  0.00    +0.046 A 
ATOM      6  C   LIG    1       42.394  -1.426  17.856  0.00  0.00    +0.007 A 
ENDROOT
BRANCH   1   7
ATOM      7  C   LIG    1       44.480  -2.883  17.793  0.00  0.00    +0.059 C 
BRANCH   7  10
ATOM      8  O   LIG    1       44.727  -5.897  16.601  0.00  0.00    -0.274 OA
ATOM      9  C   LIG    1       45.535  -5.038  16.928  0.00  0.00    +0.234 C 
ATOM     10  C   LIG    1       45.366  -3.541  16.726  0.00  0.00    +0.146 C 
ATOM     11  S   LIG    1       47.077  -2.894  16.914  0.00  0.00    -0.054 S 
ATOM     12  C   LIG    1       47.693  -4.411  17.522  0.00  0.00    +0.279 C 
ATOM     13  O   LIG    1       48.851  -4.595  17.846  0.00  0.00    -0.263 OA
ATOM     14  N   LIG    1       46.718  -5.348  17.525  0.00  0.00    -0.246 N 
ATOM     15  H   LIG    1       46.963  -6.310  17.697  0.00  0.00    +0.158 HD
ENDBRANCH   7  10
ENDBRANCH   1   7
BRANCH   4  16
ATOM     16  O   LIG    1       39.241  -1.463  16.002  0.00  0.00    -0.492 OA
BRANCH  16  17
ATOM     17  C   LIG    1       38.926  -1.801  14.650  0.00  0.00    +0.235 C 
BRANCH  17  18
ATOM     18  C   LIG    1       39.095  -0.647  13.666  0.00  0.00    +0.096 C 
BRANCH  18  19
ATOM     19  C   LIG    1       38.775   0.704  14.280  0.00  0.00    +0.045 A 
ATOM     20  C   LIG    1       37.468   1.149  14.487  0.00  0.00    +0.024 A 
ATOM     21  C   LIG    1       37.245   2.384  15.089  0.00  0.00    +0.007 A 
ATOM     22  C   LIG    1       38.320   3.182  15.469  0.00  0.00    -0.030 A 
ATOM     23  C   LIG    1       39.588   2.677  15.206  0.00  0.00    +0.114 A 
ATOM     24  N   LIG    1       39.834   1.472  14.629  0.00  0.00    -0.260 NA
BRANCH  22  25
ATOM     25  C   LIG    1       38.030   4.500  16.135  0.00  0.00    +0.033 C 
ATOM     26  C   LIG    1       36.676   5.133  15.850  0.00  0.00    +0.009 C 
ENDBRANCH  22  25
ENDBRANCH  18  19
ENDBRANCH  17  18
ENDBRANCH  16  17
ENDBRANCH   4  16
TORSDOF 7
ENDMDL
MODEL 6
REMARK VINA RESULT:      -9.1      4.499      9.408
REMARK  Name = 
REMARK                            x       y       z     vdW  Elec       q    Type
REMARK                         _______ _______ _______ _____ _____    ______ ____
ROOT
ATOM      1  C   LIG    1       37.478   2.781  14.248  0.00  0.00    -0.046 A 
ATOM      2  C   LIG    1       38.732   2.599  13.661  0.00  0.00    +0.007 A 
ATOM      3  C   LIG    1       39.284   1.325  13.540  0.00  0.00    +0.046 A 
ATOM      4  C   LIG    1       38.612   0.200  14.029  0.00  0.00    +0.121 A 
ATOM      5  C   LIG    1       37.366   0.376  14.630  0.00  0.00    +0.046 A 
ATOM      6  C   LIG    1       36.798   1.656  14.732  0.00  0.00    +0.007 A 
ENDROOT
BRANCH   1   7
ATOM      7  C   LIG    1       36.901   4.173  14.367  0.00  0.00    +0.059 C 
BRANCH   7  10
ATOM      8  O   LIG    1       39.329   4.150  16.528  0.00  0.00    -0.274 OA
ATOM      9  C   LIG    1       38.109   4.079  16.610  0.00  0.00    +0.234 C 
ATOM     10  C   LIG    1       37.118   4.830  15.737  0.00  0.00    +0.146 C 
ATOM     11  S   LIG    1       35.549   4.718  16.689  0.00  0.00    -0.054 S 
ATOM     12  C   LIG    1       36.191   3.538  17.805  0.00  0.00    +0.279 C 
ATOM     13  O   LIG    1       35.557   3.053  18.723  0.00  0.00    -0.263 OA
ATOM     14  N   LIG    1       37.492   3.292  17.533  0.00  0.00    -0.246 N 
ATOM     15  H   LIG    1       38.037   2.756  18.190  0.00  0.00    +0.158 HD
ENDBRANCH   7  10
ENDBRANCH   1   7
BRANCH   4  16
ATOM     16  O   LIG    1       39.090  -1.092  13.974  0.00  0.00    -0.492 OA
BRANCH  16  17
ATOM     17  C   LIG    1       39.198  -1.712  15.257  0.00  0.00    +0.235 C 
BRANCH  17  18
ATOM     18  C   LIG    1       40.282  -2.785  15.337  0.00  0.00    +0.096 C 
BRANCH  18  19
ATOM     19  C   LIG    1       41.393  -2.430  16.310  0.00  0.00    +0.045 A 
ATOM     20  C   LIG    1       42.565  -3.178  16.423  0.00  0.00    +0.024 A 
ATOM     21  C   LIG    1       43.559  -2.776  17.309  0.00  0.00    +0.007 A 
ATOM     22  C   LIG    1       43.380  -1.641  18.094  0.00  0.00    -0.030 A 
ATOM     23  C   LIG    1       42.175  -0.966  17.939  0.00  0.00    +0.114 A 
ATOM     24  N   LIG    1       41.192  -1.331  17.075  0.00  0.00    -0.260 NA
BRANCH  22  25
ATOM     25  C   LIG    1       44.492  -1.233  19.024  0.00  0.00    +0.033 C 
ATOM     26  C   LIG    1       45.206  -2.346  19.775  0.00  0.00    +0.009 C 
ENDBRANCH  22  25
ENDBRANCH  18  19
ENDBRANCH  17  18
ENDBRANCH  16  17
ENDBRANCH   4  16
TORSDOF 7
ENDMDL
MODEL 7
REMARK VINA RESULT:      -9.1      3.812      9.968
REMARK  Name = 
REMARK                            x       y       z     vdW  Elec       q    Type
REMARK                         _______ _______ _______ _____ _____    ______ ____
ROOT
ATOM      1  C   LIG    1       38.373   1.066  13.904  0.00  0.00    -0.046 A 
ATOM      2  C   LIG    1       39.648   0.748  13.433  0.00  0.00    +0.007 A 
ATOM      3  C   LIG    1       40.146  -0.549  13.547  0.00  0.00    +0.046 A 
ATOM      4  C   LIG    1       39.397  -1.556  14.162  0.00  0.00    +0.121 A 
ATOM      5  C   LIG    1       38.129  -1.242  14.649  0.00  0.00    +0.046 A 
ATOM      6  C   LIG    1       37.615   0.057  14.514  0.00  0.00    +0.007 A 
ENDROOT
BRANCH   1   7
ATOM      7  C   LIG    1       37.854   2.479  13.767  0.00  0.00    +0.059 C 
BRANCH   7  10
ATOM      8  O   LIG    1       35.109   4.194  14.064  0.00  0.00    -0.274 OA
ATOM      9  C   LIG    1       36.184   4.193  14.650  0.00  0.00    +0.234 C 
ATOM     10  C   LIG    1       37.020   2.962  14.962  0.00  0.00    +0.146 C 
ATOM     11  S   LIG    1       38.169   3.554  16.270  0.00  0.00    -0.054 S 
ATOM     12  C   LIG    1       37.734   5.230  16.037  0.00  0.00    +0.279 C 
ATOM     13  O   LIG    1       38.213   6.152  16.669  0.00  0.00    -0.263 OA
ATOM     14  N   LIG    1       36.761   5.338  15.104  0.00  0.00    -0.246 N 
ATOM     15  H   LIG    1       36.298   6.225  14.980  0.00  0.00    +0.158 HD
ENDBRANCH   7  10
ENDBRANCH   1   7
BRANCH   4  16
ATOM     16  O   LIG    1       39.817  -2.858  14.340  0.00  0.00    -0.492 OA
BRANCH  16  17
ATOM     17  C   LIG    1       40.134  -3.172  15.697  0.00  0.00    +0.235 C 
BRANCH  17  18
ATOM     18  C   LIG    1       41.054  -2.156  16.370  0.00  0.00    +0.096 C 
BRANCH  18  19
ATOM     19  C   LIG    1       42.422  -2.726  16.700  0.00  0.00    +0.045 A 
ATOM     20  C   LIG    1       43.265  -2.160  17.659  0.00  0.00    +0.024 A 
ATOM     21  C   LIG    1       44.491  -2.755  17.938  0.00  0.00    +0.007 A 
ATOM     22  C   LIG    1       44.886  -3.901  17.254  0.00  0.00    -0.030 A 
ATOM     23  C   LIG    1       44.000  -4.386  16.299  0.00  0.00    +0.114 A 
ATOM     24  N   LIG    1       42.794  -3.831  16.012  0.00  0.00    -0.260 NA
BRANCH  22  25
ATOM     25  C   LIG    1       46.212  -4.521  17.605  0.00  0.00    +0.033 C 
ATOM     26  C   LIG    1       46.882  -4.038  18.882  0.00  0.00    +0.009 C 
ENDBRANCH  22  25
ENDBRANCH  18  19
ENDBRANCH  17  18
ENDBRANCH  16  17
ENDBRANCH   4  16
TORSDOF 7
ENDMDL
MODEL 8
REMARK VINA RESULT:      -9.0      2.187      3.054
REMARK  Name = 
REMARK                            x       y       z     vdW  Elec       q    Type
REMARK                         _______ _______ _______ _____ _____    ______ ____
ROOT
ATOM      1  C   LIG    1       41.963  -1.722  16.021  0.00  0.00    -0.046 A 
ATOM      2  C   LIG    1       42.097  -1.269  14.708  0.00  0.00    +0.007 A 
ATOM      3  C   LIG    1       41.062  -1.431  13.789  0.00  0.00    +0.046 A 
ATOM      4  C   LIG    1       39.875  -2.076  14.149  0.00  0.00    +0.121 A 
ATOM      5  C   LIG    1       39.740  -2.546  15.455  0.00  0.00    +0.046 A 
ATOM      6  C   LIG    1       40.773  -2.363  16.388  0.00  0.00    +0.007 A 
ENDROOT
BRANCH   1   7
ATOM      7  C   LIG    1       43.101  -1.534  16.999  0.00  0.00    +0.059 C 
BRANCH   7  10
ATOM      8  O   LIG    1       44.985  -2.239  19.553  0.00  0.00    -0.274 OA
ATOM      9  C   LIG    1       44.912  -2.653  18.403  0.00  0.00    +0.234 C 
ATOM     10  C   LIG    1       43.630  -2.839  17.608  0.00  0.00    +0.146 C 
ATOM     11  S   LIG    1       44.142  -3.954  16.239  0.00  0.00    -0.054 S 
ATOM     12  C   LIG    1       45.842  -3.783  16.597  0.00  0.00    +0.279 C 
ATOM     13  O   LIG    1       46.729  -4.330  15.970  0.00  0.00    -0.263 OA
ATOM     14  N   LIG    1       46.016  -3.008  17.692  0.00  0.00    -0.246 N 
ATOM     15  H   LIG    1       46.931  -2.952  18.112  0.00  0.00    +0.158 HD
ENDBRANCH   7  10
ENDBRANCH   1   7
BRANCH   4  16
ATOM     16  O   LIG    1       38.809  -2.301  13.303  0.00  0.00    -0.492 OA
BRANCH  16  17
ATOM     17  C   LIG    1       37.721  -1.398  13.509  0.00  0.00    +0.235 C 
BRANCH  17  18
ATOM     18  C   LIG    1       38.097   0.073  13.349  0.00  0.00    +0.096 C 
BRANCH  18  19
ATOM     19  C   LIG    1       37.653   0.927  14.523  0.00  0.00    +0.045 A 
ATOM     20  C   LIG    1       37.541   0.427  15.821  0.00  0.00    +0.024 A 
ATOM     21  C   LIG    1       37.163   1.274  16.858  0.00  0.00    +0.007 A 
ATOM     22  C   LIG    1       36.879   2.612  16.601  0.00  0.00    -0.030 A 
ATOM     23  C   LIG    1       36.991   3.025  15.279  0.00  0.00    +0.114 A 
ATOM     24  N   LIG    1       37.367   2.221  14.249  0.00  0.00    -0.260 NA
BRANCH  22  25
ATOM     25  C   LIG    1       36.494   3.495  17.758  0.00  0.00    +0.033 C 
ATOM     26  C   LIG    1       35.396   2.985  18.679  0.00  0.00    +0.009 C 
ENDBRANCH  22  25
ENDBRANCH  18  19
ENDBRANCH  17  18
ENDBRANCH  16  17
ENDBRANCH   4  16
TORSDOF 7
ENDMDL
MODEL 9
REMARK VINA RESULT:      -8.9      1.803      2.021
REMARK  Name = 
REMARK                            x       y       z     vdW  Elec       q    Type
REMARK                         _______ _______ _______ _____ _____    ______ ____
ROOT
ATOM      1  C   LIG    1       42.944  -2.339  15.728  0.00  0.00    -0.046 A 
ATOM      2  C   LIG    1       42.787  -1.069  15.171  0.00  0.00    +0.007 A 
ATOM      3  C   LIG    1       41.517  -0.564  14.897  0.00  0.00    +0.046 A 
ATOM      4  C   LIG    1       40.371  -1.325  15.145  0.00  0.00    +0.121 A 
ATOM      5  C   LIG    1       40.521  -2.601  15.686  0.00  0.00    +0.046 A 
ATOM      6  C   LIG    1       41.798  -3.103  15.984  0.00  0.00    +0.007 A 
ENDROOT
BRANCH   1   7
ATOM      7  C   LIG    1       44.332  -2.865  16.016  0.00  0.00    +0.059 C 
BRANCH   7  10
ATOM      8  O   LIG    1       44.339  -1.928  19.129  0.00  0.00    -0.274 OA
ATOM      9  C   LIG    1       44.995  -2.729  18.475  0.00  0.00    +0.234 C 
ATOM     10  C   LIG    1       44.459  -3.605  17.354  0.00  0.00    +0.146 C 
ATOM     11  S   LIG    1       45.752  -4.901  17.180  0.00  0.00    -0.054 S 
ATOM     12  C   LIG    1       46.884  -4.057  18.207  0.00  0.00    +0.279 C 
ATOM     13  O   LIG    1       47.998  -4.465  18.474  0.00  0.00    -0.263 OA
ATOM     14  N   LIG    1       46.322  -2.928  18.697  0.00  0.00    -0.246 N 
ATOM     15  H   LIG    1       46.797  -2.423  19.429  0.00  0.00    +0.158 HD
ENDBRANCH   7  10
ENDBRANCH   1   7
BRANCH   4  16
ATOM     16  O   LIG    1       39.079  -0.917  14.885  0.00  0.00    -0.492 OA
BRANCH  16  17
ATOM     17  C   LIG    1       38.227  -0.964  16.031  0.00  0.00    +0.235 C 
BRANCH  17  18
ATOM     18  C   LIG    1       38.583   0.055  17.110  0.00  0.00    +0.096 C 
BRANCH  18  19
ATOM     19  C   LIG    1       38.247   1.480  16.710  0.00  0.00    +0.045 A 
ATOM     20  C   LIG    1       37.215   1.792  15.823  0.00  0.00    +0.024 A 
ATOM     21  C   LIG    1       36.937   3.123  15.526  0.00  0.00    +0.007 A 
ATOM     22  C   LIG    1       37.694   4.141  16.099  0.00  0.00    -0.030 A 
ATOM     23  C   LIG    1       38.717   3.745  16.952  0.00  0.00    +0.114 A 
ATOM     24  N   LIG    1       39.005   2.455  17.266  0.00  0.00    -0.260 NA
BRANCH  22  25
ATOM     25  C   LIG    1       37.342   5.566  15.765  0.00  0.00    +0.033 C 
ATOM     26  C   LIG    1       36.665   5.813  14.425  0.00  0.00    +0.009 C 
ENDBRANCH  22  25
ENDBRANCH  18  19
ENDBRANCH  17  18
ENDBRANCH  16  17
ENDBRANCH   4  16
TORSDOF 7
ENDMDL
