MODEL 1
REMARK VINA RESULT:      -8.0      0.000      0.000
REMARK  Name = 
REMARK                            x       y       z     vdW  Elec       q    Type
REMARK                         _______ _______ _______ _____ _____    ______ ____
ROOT
ATOM      1  C   LIG    1       18.826  27.665  11.701  0.00  0.00    -0.046 A 
ATOM      2  C   LIG    1       18.076  28.160  10.633  0.00  0.00    +0.007 A 
ATOM      3  C   LIG    1       18.612  28.207   9.348  0.00  0.00    +0.046 A 
ATOM      4  C   LIG    1       19.923  27.789   9.099  0.00  0.00    +0.121 A 
ATOM      5  C   LIG    1       20.684  27.308  10.165  0.00  0.00    +0.046 A 
ATOM      6  C   LIG    1       20.137  27.238  11.455  0.00  0.00    +0.007 A 
ENDROOT
BRANCH   1   7
ATOM      7  C   LIG    1       18.221  27.624  13.086  0.00  0.00    +0.059 C 
BRANCH   7  10
ATOM      8  O   LIG    1       17.432  30.747  12.650  0.00  0.00    -0.274 OA
ATOM      9  C   LIG    1       18.430  30.165  13.057  0.00  0.00    +0.234 C 
ATOM     10  C   LIG    1       18.435  28.904  13.905  0.00  0.00    +0.146 C 
ATOM     11  S   LIG    1       20.137  28.871  14.599  0.00  0.00    -0.054 S 
ATOM     12  C   LIG    1       20.701  30.147  13.549  0.00  0.00    +0.279 C 
ATOM     13  O   LIG    1       21.838  30.581  13.553  0.00  0.00    -0.263 OA
ATOM     14  N   LIG    1       19.686  30.610  12.784  0.00  0.00    -0.246 N 
ATOM     15  H   LIG    1       19.823  31.451  12.246  0.00  0.00    +0.158 HD
ENDBRANCH   7  10
ENDBRANCH   1   7
BRANCH   4  16
ATOM     16  O   LIG    1       20.544  27.821   7.867  0.00  0.00    -0.492 OA
BRANCH  16  17
ATOM     17  C   LIG    1       21.861  28.373   7.910  0.00  0.00    +0.235 C 
BRANCH  17  18
ATOM     18  C   LIG    1       22.800  27.818   6.841  0.00  0.00    +0.096 C 
BRANCH  18  19
ATOM     19  C   LIG    1       24.256  27.831   7.271  0.00  0.00    +0.045 A 
ATOM     20  C   LIG    1       24.821  26.825   8.056  0.00  0.00    +0.024 A 
ATOM     21  C   LIG    1       26.172  26.880   8.384  0.00  0.00    +0.007 A 
ATOM     22  C   LIG    1       26.956  27.943   7.947  0.00  0.00    -0.030 A 
ATOM     23  C   LIG    1       26.312  28.916   7.190  0.00  0.00    +0.114 A 
ATOM     24  N   LIG    1       24.998  28.882   6.848  0.00  0.00    -0.260 NA
BRANCH  22  25
ATOM     25  C   LIG    1       28.417  27.950   8.309  0.00  0.00    +0.033 C 
ATOM     26  C   LIG    1       28.909  29.102   9.171  0.00  0.00    +0.009 C 
ENDBRANCH  22  25
ENDBRANCH  18  19
ENDBRANCH  17  18
ENDBRANCH  16  17
ENDBRANCH   4  16
TORSDOF 7
ENDMDL
MODEL 2
REMARK VINA RESULT:      -8.0      1.959      2.789
REMARK  Name = 
REMARK                            x       y       z     vdW  Elec       q    Type
REMARK                         _______ _______ _______ _____ _____    ______ ____
ROOT
ATOM      1  C   LIG    1       18.836  27.675  11.730  0.00  0.00    -0.046 A 
ATOM      2  C   LIG    1       18.110  28.146  10.635  0.00  0.00    +0.007 A 
ATOM      3  C   LIG    1       18.679  28.175   9.363  0.00  0.00    +0.046 A 
ATOM      4  C   LIG    1       19.999  27.764   9.155  0.00  0.00    +0.121 A 
ATOM      5  C   LIG    1       20.735  27.308  10.248  0.00  0.00    +0.046 A 
ATOM      6  C   LIG    1       20.156  27.255  11.526  0.00  0.00    +0.007 A 
ENDROOT
BRANCH   1   7
ATOM      7  C   LIG    1       18.196  27.652  13.100  0.00  0.00    +0.059 C 
BRANCH   7  10
ATOM      8  O   LIG    1       17.375  30.764  12.646  0.00  0.00    -0.274 OA
ATOM      9  C   LIG    1       18.379  30.195  13.055  0.00  0.00    +0.234 C 
ATOM     10  C   LIG    1       18.397  28.939  13.911  0.00  0.00    +0.146 C 
ATOM     11  S   LIG    1       20.100  28.928  14.604  0.00  0.00    -0.054 S 
ATOM     12  C   LIG    1       20.651  30.203  13.546  0.00  0.00    +0.279 C 
ATOM     13  O   LIG    1       21.783  30.648  13.546  0.00  0.00    -0.263 OA
ATOM     14  N   LIG    1       19.631  30.651  12.778  0.00  0.00    -0.246 N 
ATOM     15  H   LIG    1       19.758  31.490  12.236  0.00  0.00    +0.158 HD
ENDBRANCH   7  10
ENDBRANCH   1   7
BRANCH   4  16
ATOM     16  O   LIG    1       20.651  27.780   7.940  0.00  0.00    -0.492 OA
BRANCH  16  17
ATOM     17  C   LIG    1       21.737  28.707   7.891  0.00  0.00    +0.235 C 
BRANCH  17  18
ATOM     18  C   LIG    1       22.992  28.156   7.220  0.00  0.00    +0.096 C 
BRANCH  18  19
ATOM     19  C   LIG    1       23.701  29.185   6.357  0.00  0.00    +0.045 A 
ATOM     20  C   LIG    1       23.042  29.932   5.378  0.00  0.00    +0.024 A 
ATOM     21  C   LIG    1       23.744  30.885   4.647  0.00  0.00    +0.007 A 
ATOM     22  C   LIG    1       25.103  31.084   4.877  0.00  0.00    -0.030 A 
ATOM     23  C   LIG    1       25.688  30.283   5.851  0.00  0.00    +0.114 A 
ATOM     24  N   LIG    1       25.025  29.352   6.585  0.00  0.00    -0.260 NA
BRANCH  22  25
ATOM     25  C   LIG    1       25.815  32.140   4.077  0.00  0.00    +0.033 C 
ATOM     26  C   LIG    1       24.950  33.191   3.397  0.00  0.00    +0.009 C 
ENDBRANCH  22  25
ENDBRANCH  18  19
ENDBRANCH  17  18
ENDBRANCH  16  17
ENDBRANCH   4  16
TORSDOF 7
ENDMDL
MODEL 3
REMARK VINA RESULT:      -8.0      3.956      8.748
REMARK  Name = 
REMARK                            x       y       z     vdW  Elec       q    Type
REMARK                         _______ _______ _______ _____ _____    ______ ____
ROOT
ATOM      1  C   LIG    1       22.692  29.439   6.962  0.00  0.00    -0.046 A 
ATOM      2  C   LIG    1       21.728  29.973   7.818  0.00  0.00    +0.007 A 
ATOM      3  C   LIG    1       21.113  29.178   8.783  0.00  0.00    +0.046 A 
ATOM      4  C   LIG    1       21.423  27.820   8.901  0.00  0.00    +0.121 A 
ATOM      5  C   LIG    1       22.374  27.275   8.038  0.00  0.00    +0.046 A 
ATOM      6  C   LIG    1       23.012  28.080   7.081  0.00  0.00    +0.007 A 
ENDROOT
BRANCH   1   7
ATOM      7  C   LIG    1       23.346  30.322   5.923  0.00  0.00    +0.059 C 
BRANCH   7  10
ATOM      8  O   LIG    1       26.268  30.062   7.323  0.00  0.00    -0.274 OA
ATOM      9  C   LIG    1       25.876  30.432   6.223  0.00  0.00    +0.234 C 
ATOM     10  C   LIG    1       24.717  29.826   5.447  0.00  0.00    +0.146 C 
ATOM     11  S   LIG    1       24.993  30.437   3.735  0.00  0.00    -0.054 S 
ATOM     12  C   LIG    1       26.226  31.570   4.228  0.00  0.00    +0.279 C 
ATOM     13  O   LIG    1       26.814  32.313   3.464  0.00  0.00    -0.263 OA
ATOM     14  N   LIG    1       26.464  31.460   5.555  0.00  0.00    -0.246 N 
ATOM     15  H   LIG    1       27.259  31.936   5.951  0.00  0.00    +0.158 HD
ENDBRANCH   7  10
ENDBRANCH   1   7
BRANCH   4  16
ATOM     16  O   LIG    1       20.850  26.953   9.808  0.00  0.00    -0.492 OA
BRANCH  16  17
ATOM     17  C   LIG    1       20.591  27.552  11.079  0.00  0.00    +0.235 C 
BRANCH  17  18
ATOM     18  C   LIG    1       19.121  27.524  11.490  0.00  0.00    +0.096 C 
BRANCH  18  19
ATOM     19  C   LIG    1       18.262  28.471  10.672  0.00  0.00    +0.045 A 
ATOM     20  C   LIG    1       17.571  28.068   9.529  0.00  0.00    +0.024 A 
ATOM     21  C   LIG    1       16.771  28.980   8.846  0.00  0.00    +0.007 A 
ATOM     22  C   LIG    1       16.672  30.295   9.291  0.00  0.00    -0.030 A 
ATOM     23  C   LIG    1       17.410  30.622  10.423  0.00  0.00    +0.114 A 
ATOM     24  N   LIG    1       18.191  29.750  11.113  0.00  0.00    -0.260 NA
BRANCH  22  25
ATOM     25  C   LIG    1       15.779  31.240   8.533  0.00  0.00    +0.033 C 
ATOM     26  C   LIG    1       14.505  31.693   9.231  0.00  0.00    +0.009 C 
ENDBRANCH  22  25
ENDBRANCH  18  19
ENDBRANCH  17  18
ENDBRANCH  16  17
ENDBRANCH   4  16
TORSDOF 7
ENDMDL
MODEL 4
REMARK VINA RESULT:      -7.7      3.164      4.075
REMARK  Name = 
REMARK                            x       y       z     vdW  Elec       q    Type
REMARK                         _______ _______ _______ _____ _____    ______ ____
ROOT
ATOM      1  C   LIG    1       19.797  29.920   9.384  0.00  0.00    -0.046 A 
ATOM      2  C   LIG    1       20.659  30.467   8.432  0.00  0.00    +0.007 A 
ATOM      3  C   LIG    1       21.674  29.698   7.865  0.00  0.00    +0.046 A 
ATOM      4  C   LIG    1       21.876  28.371   8.256  0.00  0.00    +0.121 A 
ATOM      5  C   LIG    1       21.029  27.823   9.219  0.00  0.00    +0.046 A 
ATOM      6  C   LIG    1       19.991  28.587   9.773  0.00  0.00    +0.007 A 
ENDROOT
BRANCH   1   7
ATOM      7  C   LIG    1       18.703  30.773   9.984  0.00  0.00    +0.059 C 
BRANCH   7  10
ATOM      8  O   LIG    1       17.183  28.763   7.930  0.00  0.00    -0.274 OA
ATOM      9  C   LIG    1       16.848  29.761   8.556  0.00  0.00    +0.234 C 
ATOM     10  C   LIG    1       17.312  30.124   9.957  0.00  0.00    +0.146 C 
ATOM     11  S   LIG    1       16.078  31.375  10.498  0.00  0.00    -0.054 S 
ATOM     12  C   LIG    1       15.390  31.537   8.901  0.00  0.00    +0.279 C 
ATOM     13  O   LIG    1       14.470  32.285   8.628  0.00  0.00    -0.263 OA
ATOM     14  N   LIG    1       15.987  30.680   8.042  0.00  0.00    -0.246 N 
ATOM     15  H   LIG    1       15.587  30.547   7.126  0.00  0.00    +0.158 HD
ENDBRANCH   7  10
ENDBRANCH   1   7
BRANCH   4  16
ATOM     16  O   LIG    1       22.867  27.545   7.768  0.00  0.00    -0.492 OA
BRANCH  16  17
ATOM     17  C   LIG    1       23.220  27.822   6.412  0.00  0.00    +0.235 C 
BRANCH  17  18
ATOM     18  C   LIG    1       24.665  27.471   6.063  0.00  0.00    +0.096 C 
BRANCH  18  19
ATOM     19  C   LIG    1       25.677  28.268   6.867  0.00  0.00    +0.045 A 
ATOM     20  C   LIG    1       25.769  29.659   6.797  0.00  0.00    +0.024 A 
ATOM     21  C   LIG    1       26.696  30.331   7.588  0.00  0.00    +0.007 A 
ATOM     22  C   LIG    1       27.541  29.619   8.435  0.00  0.00    -0.030 A 
ATOM     23  C   LIG    1       27.401  28.236   8.427  0.00  0.00    +0.114 A 
ATOM     24  N   LIG    1       26.499  27.556   7.672  0.00  0.00    -0.260 NA
BRANCH  22  25
ATOM     25  C   LIG    1       28.512  30.391   9.287  0.00  0.00    +0.033 C 
ATOM     26  C   LIG    1       28.024  31.710   9.867  0.00  0.00    +0.009 C 
ENDBRANCH  22  25
ENDBRANCH  18  19
ENDBRANCH  17  18
ENDBRANCH  16  17
ENDBRANCH   4  16
TORSDOF 7
ENDMDL
MODEL 5
REMARK VINA RESULT:      -7.7      2.946      7.809
REMARK  Name = 
REMARK                            x       y       z     vdW  Elec       q    Type
REMARK                         _______ _______ _______ _____ _____    ______ ____
ROOT
ATOM      1  C   LIG    1       21.362  28.157   8.358  0.00  0.00    -0.046 A 
ATOM      2  C   LIG    1       21.575  29.520   8.145  0.00  0.00    +0.007 A 
ATOM      3  C   LIG    1       20.617  30.458   8.524  0.00  0.00    +0.046 A 
ATOM      4  C   LIG    1       19.407  30.059   9.100  0.00  0.00    +0.121 A 
ATOM      5  C   LIG    1       19.180  28.698   9.301  0.00  0.00    +0.046 A 
ATOM      6  C   LIG    1       20.154  27.753   8.941  0.00  0.00    +0.007 A 
ENDROOT
BRANCH   1   7
ATOM      7  C   LIG    1       22.416  27.158   7.938  0.00  0.00    +0.059 C 
BRANCH   7  10
ATOM      8  O   LIG    1       23.638  28.501   5.241  0.00  0.00    -0.274 OA
ATOM      9  C   LIG    1       24.075  27.731   6.088  0.00  0.00    +0.234 C 
ATOM     10  C   LIG    1       23.769  27.786   7.575  0.00  0.00    +0.146 C 
ATOM     11  S   LIG    1       25.102  26.759   8.317  0.00  0.00    -0.054 S 
ATOM     12  C   LIG    1       25.632  26.147   6.770  0.00  0.00    +0.279 C 
ATOM     13  O   LIG    1       26.550  25.361   6.625  0.00  0.00    -0.263 OA
ATOM     14  N   LIG    1       24.917  26.711   5.770  0.00  0.00    -0.246 N 
ATOM     15  H   LIG    1       25.217  26.577   4.817  0.00  0.00    +0.158 HD
ENDBRANCH   7  10
ENDBRANCH   1   7
BRANCH   4  16
ATOM     16  O   LIG    1       18.394  30.913   9.485  0.00  0.00    -0.492 OA
BRANCH  16  17
ATOM     17  C   LIG    1       17.382  30.278  10.268  0.00  0.00    +0.235 C 
BRANCH  17  18
ATOM     18  C   LIG    1       17.141  30.938  11.623  0.00  0.00    +0.096 C 
BRANCH  18  19
ATOM     19  C   LIG    1       18.090  30.440  12.699  0.00  0.00    +0.045 A 
ATOM     20  C   LIG    1       17.676  29.626  13.754  0.00  0.00    +0.024 A 
ATOM     21  C   LIG    1       18.605  29.176  14.686  0.00  0.00    +0.007 A 
ATOM     22  C   LIG    1       19.942  29.549  14.579  0.00  0.00    -0.030 A 
ATOM     23  C   LIG    1       20.268  30.380  13.514  0.00  0.00    +0.114 A 
ATOM     24  N   LIG    1       19.383  30.827  12.584  0.00  0.00    -0.260 NA
BRANCH  22  25
ATOM     25  C   LIG    1       20.915  29.020  15.599  0.00  0.00    +0.033 C 
ATOM     26  C   LIG    1       22.320  29.602  15.577  0.00  0.00    +0.009 C 
ENDBRANCH  22  25
ENDBRANCH  18  19
ENDBRANCH  17  18
ENDBRANCH  16  17
ENDBRANCH   4  16
TORSDOF 7
ENDMDL
MODEL 6
REMARK VINA RESULT:      -7.6      3.778      5.984
REMARK  Name = 
REMARK                            x       y       z     vdW  Elec       q    Type
REMARK                         _______ _______ _______ _____ _____    ______ ____
ROOT
ATOM      1  C   LIG    1       19.039  27.546  12.909  0.00  0.00    -0.046 A 
ATOM      2  C   LIG    1       18.205  27.561  11.790  0.00  0.00    +0.007 A 
ATOM      3  C   LIG    1       18.726  27.373  10.511  0.00  0.00    +0.046 A 
ATOM      4  C   LIG    1       20.098  27.194  10.311  0.00  0.00    +0.121 A 
ATOM      5  C   LIG    1       20.940  27.194  11.423  0.00  0.00    +0.046 A 
ATOM      6  C   LIG    1       20.414  27.360  12.714  0.00  0.00    +0.007 A 
ENDROOT
BRANCH   1   7
ATOM      7  C   LIG    1       18.450  27.751  14.286  0.00  0.00    +0.059 C 
BRANCH   7  10
ATOM      8  O   LIG    1       17.263  30.676  13.511  0.00  0.00    -0.274 OA
ATOM      9  C   LIG    1       18.369  30.259  13.828  0.00  0.00    +0.234 C 
ATOM     10  C   LIG    1       18.643  29.166  14.849  0.00  0.00    +0.146 C 
ATOM     11  S   LIG    1       20.425  29.395  15.243  0.00  0.00    -0.054 S 
ATOM     12  C   LIG    1       20.677  30.516  13.928  0.00  0.00    +0.279 C 
ATOM     13  O   LIG    1       21.746  31.038  13.673  0.00  0.00    -0.263 OA
ATOM     14  N   LIG    1       19.513  30.754  13.282  0.00  0.00    -0.246 N 
ATOM     15  H   LIG    1       19.472  31.500  12.605  0.00  0.00    +0.158 HD
ENDBRANCH   7  10
ENDBRANCH   1   7
BRANCH   4  16
ATOM     16  O   LIG    1       20.704  27.025   9.084  0.00  0.00    -0.492 OA
BRANCH  16  17
ATOM     17  C   LIG    1       20.439  28.089   8.168  0.00  0.00    +0.235 C 
BRANCH  17  18
ATOM     18  C   LIG    1       20.492  29.478   8.800  0.00  0.00    +0.096 C 
BRANCH  18  19
ATOM     19  C   LIG    1       19.115  30.074   9.033  0.00  0.00    +0.045 A 
ATOM     20  C   LIG    1       18.006  29.739   8.255  0.00  0.00    +0.024 A 
ATOM     21  C   LIG    1       16.764  30.295   8.545  0.00  0.00    +0.007 A 
ATOM     22  C   LIG    1       16.629  31.196   9.598  0.00  0.00    -0.030 A 
ATOM     23  C   LIG    1       17.786  31.494  10.308  0.00  0.00    +0.114 A 
ATOM     24  N   LIG    1       19.008  30.959  10.051  0.00  0.00    -0.260 NA
BRANCH  22  25
ATOM     25  C   LIG    1       15.262  31.755   9.888  0.00  0.00    +0.033 C 
ATOM     26  C   LIG    1       14.077  31.047   9.247  0.00  0.00    +0.009 C 
ENDBRANCH  22  25
ENDBRANCH  18  19
ENDBRANCH  17  18
ENDBRANCH  16  17
ENDBRANCH   4  16
TORSDOF 7
ENDMDL
MODEL 7
REMARK VINA RESULT:      -7.5      5.015      6.604
REMARK  Name = 
REMARK                            x       y       z     vdW  Elec       q    Type
REMARK                         _______ _______ _______ _____ _____    ______ ____
ROOT
ATOM      1  C   LIG    1       21.671  29.219   7.960  0.00  0.00    -0.046 A 
ATOM      2  C   LIG    1       22.206  28.013   7.503  0.00  0.00    +0.007 A 
ATOM      3  C   LIG    1       23.058  27.985   6.400  0.00  0.00    +0.046 A 
ATOM      4  C   LIG    1       23.376  29.156   5.705  0.00  0.00    +0.121 A 
ATOM      5  C   LIG    1       22.832  30.362   6.146  0.00  0.00    +0.046 A 
ATOM      6  C   LIG    1       21.992  30.396   7.271  0.00  0.00    +0.007 A 
ENDROOT
BRANCH   1   7
ATOM      7  C   LIG    1       20.750  29.224   9.158  0.00  0.00    +0.059 C 
BRANCH   7  10
ATOM      8  O   LIG    1       17.638  28.632   8.427  0.00  0.00    -0.274 OA
ATOM      9  C   LIG    1       18.368  28.336   9.365  0.00  0.00    +0.234 C 
ATOM     10  C   LIG    1       19.844  27.989   9.262  0.00  0.00    +0.146 C 
ATOM     11  S   LIG    1       20.191  27.148  10.860  0.00  0.00    -0.054 S 
ATOM     12  C   LIG    1       18.656  27.608  11.553  0.00  0.00    +0.279 C 
ATOM     13  O   LIG    1       18.301  27.314  12.679  0.00  0.00    -0.263 OA
ATOM     14  N   LIG    1       17.912  28.280  10.646  0.00  0.00    -0.246 N 
ATOM     15  H   LIG    1       16.943  28.468  10.849  0.00  0.00    +0.158 HD
ENDBRANCH   7  10
ENDBRANCH   1   7
BRANCH   4  16
ATOM     16  O   LIG    1       24.189  29.220   4.593  0.00  0.00    -0.492 OA
BRANCH  16  17
ATOM     17  C   LIG    1       24.904  30.452   4.483  0.00  0.00    +0.235 C 
BRANCH  17  18
ATOM     18  C   LIG    1       25.431  30.740   3.080  0.00  0.00    +0.096 C 
BRANCH  18  19
ATOM     19  C   LIG    1       24.922  32.055   2.517  0.00  0.00    +0.045 A 
ATOM     20  C   LIG    1       24.883  33.232   3.265  0.00  0.00    +0.024 A 
ATOM     21  C   LIG    1       24.438  34.412   2.676  0.00  0.00    +0.007 A 
ATOM     22  C   LIG    1       24.017  34.417   1.349  0.00  0.00    -0.030 A 
ATOM     23  C   LIG    1       24.065  33.199   0.681  0.00  0.00    +0.114 A 
ATOM     24  N   LIG    1       24.503  32.035   1.229  0.00  0.00    -0.260 NA
BRANCH  22  25
ATOM     25  C   LIG    1       23.565  35.721   0.749  0.00  0.00    +0.033 C 
ATOM     26  C   LIG    1       23.532  36.930   1.671  0.00  0.00    +0.009 C 
ENDBRANCH  22  25
ENDBRANCH  18  19
ENDBRANCH  17  18
ENDBRANCH  16  17
ENDBRANCH   4  16
TORSDOF 7
ENDMDL
MODEL 8
REMARK VINA RESULT:      -7.5      2.100      3.337
REMARK  Name = 
REMARK                            x       y       z     vdW  Elec       q    Type
REMARK                         _______ _______ _______ _____ _____    ______ ____
ROOT
ATOM      1  C   LIG    1       20.927  29.313   9.065  0.00  0.00    -0.046 A 
ATOM      2  C   LIG    1       21.454  30.300   8.230  0.00  0.00    +0.007 A 
ATOM      3  C   LIG    1       22.307  29.965   7.181  0.00  0.00    +0.046 A 
ATOM      4  C   LIG    1       22.682  28.637   6.954  0.00  0.00    +0.121 A 
ATOM      5  C   LIG    1       22.173  27.647   7.794  0.00  0.00    +0.046 A 
ATOM      6  C   LIG    1       21.295  27.980   8.837  0.00  0.00    +0.007 A 
ENDROOT
BRANCH   1   7
ATOM      7  C   LIG    1       20.003  29.701  10.196  0.00  0.00    +0.059 C 
BRANCH   7  10
ATOM      8  O   LIG    1       18.124  27.451  11.601  0.00  0.00    -0.274 OA
ATOM      9  C   LIG    1       18.802  28.382  12.018  0.00  0.00    +0.234 C 
ATOM     10  C   LIG    1       20.139  28.827  11.450  0.00  0.00    +0.146 C 
ATOM     11  S   LIG    1       20.848  29.855  12.799  0.00  0.00    -0.054 S 
ATOM     12  C   LIG    1       19.352  29.889  13.699  0.00  0.00    +0.279 C 
ATOM     13  O   LIG    1       19.207  30.470  14.759  0.00  0.00    -0.263 OA
ATOM     14  N   LIG    1       18.413  29.140  13.079  0.00  0.00    -0.246 N 
ATOM     15  H   LIG    1       17.552  28.935  13.561  0.00  0.00    +0.158 HD
ENDBRANCH   7  10
ENDBRANCH   1   7
BRANCH   4  16
ATOM     16  O   LIG    1       23.538  28.216   5.958  0.00  0.00    -0.492 OA
BRANCH  16  17
ATOM     17  C   LIG    1       24.688  27.526   6.451  0.00  0.00    +0.235 C 
BRANCH  17  18
ATOM     18  C   LIG    1       26.015  28.136   6.007  0.00  0.00    +0.096 C 
BRANCH  18  19
ATOM     19  C   LIG    1       26.572  29.131   7.011  0.00  0.00    +0.045 A 
ATOM     20  C   LIG    1       26.142  30.457   7.078  0.00  0.00    +0.024 A 
ATOM     21  C   LIG    1       26.668  31.306   8.046  0.00  0.00    +0.007 A 
ATOM     22  C   LIG    1       27.633  30.841   8.936  0.00  0.00    -0.030 A 
ATOM     23  C   LIG    1       28.023  29.516   8.787  0.00  0.00    +0.114 A 
ATOM     24  N   LIG    1       27.520  28.663   7.857  0.00  0.00    -0.260 NA
BRANCH  22  25
ATOM     25  C   LIG    1       28.157  31.790   9.980  0.00  0.00    +0.033 C 
ATOM     26  C   LIG    1       29.408  32.581   9.626  0.00  0.00    +0.009 C 
ENDBRANCH  22  25
ENDBRANCH  18  19
ENDBRANCH  17  18
ENDBRANCH  16  17
ENDBRANCH   4  16
TORSDOF 7
ENDMDL
MODEL 9
REMARK VINA RESULT:      -7.5      2.713      3.611
REMARK  Name = 
REMARK                            x       y       z     vdW  Elec       q    Type
REMARK                         _______ _______ _______ _____ _____    ______ ____
ROOT
ATOM      1  C   LIG    1       19.430  28.971   9.790  0.00  0.00    -0.046 A 
ATOM      2  C   LIG    1       19.744  27.634  10.042  0.00  0.00    +0.007 A 
ATOM      3  C   LIG    1       20.885  27.055   9.489  0.00  0.00    +0.046 A 
ATOM      4  C   LIG    1       21.727  27.786   8.646  0.00  0.00    +0.121 A 
ATOM      5  C   LIG    1       21.411  29.117   8.378  0.00  0.00    +0.046 A 
ATOM      6  C   LIG    1       20.275  29.710   8.952  0.00  0.00    +0.007 A 
ENDROOT
BRANCH   1   7
ATOM      7  C   LIG    1       18.187  29.577  10.402  0.00  0.00    +0.059 C 
BRANCH   7  10
ATOM      8  O   LIG    1       17.441  32.579  11.402  0.00  0.00    -0.274 OA
ATOM      9  C   LIG    1       16.934  31.787  10.617  0.00  0.00    +0.234 C 
ATOM     10  C   LIG    1       17.692  30.846   9.695  0.00  0.00    +0.146 C 
ATOM     11  S   LIG    1       16.425  30.362   8.454  0.00  0.00    -0.054 S 
ATOM     12  C   LIG    1       15.113  31.063   9.368  0.00  0.00    +0.279 C 
ATOM     13  O   LIG    1       13.949  31.043   9.014  0.00  0.00    -0.263 OA
ATOM     14  N   LIG    1       15.585  31.669  10.481  0.00  0.00    -0.246 N 
ATOM     15  H   LIG    1       14.966  32.253  11.020  0.00  0.00    +0.158 HD
ENDBRANCH   7  10
ENDBRANCH   1   7
BRANCH   4  16
ATOM     16  O   LIG    1       22.862  27.290   8.038  0.00  0.00    -0.492 OA
BRANCH  16  17
ATOM     17  C   LIG    1       23.125  27.878   6.763  0.00  0.00    +0.235 C 
BRANCH  17  18
ATOM     18  C   LIG    1       24.484  27.505   6.176  0.00  0.00    +0.096 C 
BRANCH  18  19
ATOM     19  C   LIG    1       25.646  27.984   7.028  0.00  0.00    +0.045 A 
ATOM     20  C   LIG    1       26.327  27.149   7.914  0.00  0.00    +0.024 A 
ATOM     21  C   LIG    1       27.408  27.644   8.639  0.00  0.00    +0.007 A 
ATOM     22  C   LIG    1       27.799  28.972   8.494  0.00  0.00    -0.030 A 
ATOM     23  C   LIG    1       27.054  29.743   7.610  0.00  0.00    +0.114 A 
ATOM     24  N   LIG    1       26.001  29.283   6.884  0.00  0.00    -0.260 NA
BRANCH  22  25
ATOM     25  C   LIG    1       28.986  29.456   9.282  0.00  0.00    +0.033 C 
ATOM     26  C   LIG    1       30.328  28.810   8.974  0.00  0.00    +0.009 C 
ENDBRANCH  22  25
ENDBRANCH  18  19
ENDBRANCH  17  18
ENDBRANCH  16  17
ENDBRANCH   4  16
TORSDOF 7
ENDMDL
