MODEL 1
REMARK VINA RESULT:      -8.1      0.000      0.000
REMARK  Name = 
REMARK                            x       y       z     vdW  Elec       q    Type
REMARK                         _______ _______ _______ _____ _____    ______ ____
ROOT
ATOM      1  C   LIG    1       30.778  -1.275  26.250  0.00  0.00    -0.046 A 
ATOM      2  C   LIG    1       31.050  -0.940  24.923  0.00  0.00    +0.007 A 
ATOM      3  C   LIG    1       31.929  -1.707  24.160  0.00  0.00    +0.046 A 
ATOM      4  C   LIG    1       32.584  -2.812  24.711  0.00  0.00    +0.121 A 
ATOM      5  C   LIG    1       32.330  -3.144  26.041  0.00  0.00    +0.046 A 
ATOM      6  C   LIG    1       31.427  -2.387  26.804  0.00  0.00    +0.007 A 
ENDROOT
BRANCH   1   7
ATOM      7  C   LIG    1       29.821  -0.428  27.057  0.00  0.00    +0.059 C 
BRANCH   7  10
ATOM      8  O   LIG    1       27.231   1.482  27.517  0.00  0.00    -0.274 OA
ATOM      9  C   LIG    1       27.402   0.271  27.460  0.00  0.00    +0.234 C 
ATOM     10  C   LIG    1       28.376  -0.444  26.538  0.00  0.00    +0.146 C 
ATOM     11  S   LIG    1       27.773  -2.181  26.553  0.00  0.00    -0.054 S 
ATOM     12  C   LIG    1       26.675  -1.897  27.880  0.00  0.00    +0.279 C 
ATOM     13  O   LIG    1       25.955  -2.750  28.364  0.00  0.00    -0.263 OA
ATOM     14  N   LIG    1       26.704  -0.595  28.245  0.00  0.00    -0.246 N 
ATOM     15  H   LIG    1       26.008  -0.251  28.888  0.00  0.00    +0.158 HD
ENDBRANCH   7  10
ENDBRANCH   1   7
BRANCH   4  16
ATOM     16  O   LIG    1       33.485  -3.613  24.040  0.00  0.00    -0.492 OA
BRANCH  16  17
ATOM     17  C   LIG    1       33.877  -3.087  22.771  0.00  0.00    +0.235 C 
BRANCH  17  18
ATOM     18  C   LIG    1       33.078  -3.644  21.596  0.00  0.00    +0.096 C 
BRANCH  18  19
ATOM     19  C   LIG    1       33.420  -2.971  20.278  0.00  0.00    +0.045 A 
ATOM     20  C   LIG    1       32.571  -3.003  19.171  0.00  0.00    +0.024 A 
ATOM     21  C   LIG    1       32.929  -2.334  18.005  0.00  0.00    +0.007 A 
ATOM     22  C   LIG    1       34.138  -1.649  17.934  0.00  0.00    -0.030 A 
ATOM     23  C   LIG    1       34.937  -1.686  19.071  0.00  0.00    +0.114 A 
ATOM     24  N   LIG    1       34.608  -2.323  20.225  0.00  0.00    -0.260 NA
BRANCH  22  25
ATOM     25  C   LIG    1       34.474  -0.922  16.659  0.00  0.00    +0.033 C 
ATOM     26  C   LIG    1       34.892   0.535  16.786  0.00  0.00    +0.009 C 
ENDBRANCH  22  25
ENDBRANCH  18  19
ENDBRANCH  17  18
ENDBRANCH  16  17
ENDBRANCH   4  16
TORSDOF 7
ENDMDL
MODEL 2
REMARK VINA RESULT:      -8.0      3.441      9.077
REMARK  Name = 
REMARK                            x       y       z     vdW  Elec       q    Type
REMARK                         _______ _______ _______ _____ _____    ______ ____
ROOT
ATOM      1  C   LIG    1       32.458  -2.854  23.121  0.00  0.00    -0.046 A 
ATOM      2  C   LIG    1       33.190  -3.272  24.234  0.00  0.00    +0.007 A 
ATOM      3  C   LIG    1       33.190  -2.523  25.409  0.00  0.00    +0.046 A 
ATOM      4  C   LIG    1       32.482  -1.320  25.496  0.00  0.00    +0.121 A 
ATOM      5  C   LIG    1       31.762  -0.888  24.383  0.00  0.00    +0.046 A 
ATOM      6  C   LIG    1       31.742  -1.653  23.206  0.00  0.00    +0.007 A 
ENDROOT
BRANCH   1   7
ATOM      7  C   LIG    1       32.474  -3.685  21.858  0.00  0.00    +0.059 C 
BRANCH   7  10
ATOM      8  O   LIG    1       30.907  -2.954  19.105  0.00  0.00    -0.274 OA
ATOM      9  C   LIG    1       32.045  -3.319  19.371  0.00  0.00    +0.234 C 
ATOM     10  C   LIG    1       32.846  -2.900  20.593  0.00  0.00    +0.146 C 
ATOM     11  S   LIG    1       34.574  -3.330  20.131  0.00  0.00    -0.054 S 
ATOM     12  C   LIG    1       34.081  -4.232  18.720  0.00  0.00    +0.279 C 
ATOM     13  O   LIG    1       34.853  -4.794  17.966  0.00  0.00    -0.263 OA
ATOM     14  N   LIG    1       32.739  -4.167  18.564  0.00  0.00    -0.246 N 
ATOM     15  H   LIG    1       32.329  -4.504  17.708  0.00  0.00    +0.158 HD
ENDBRANCH   7  10
ENDBRANCH   1   7
BRANCH   4  16
ATOM     16  O   LIG    1       32.443  -0.503  26.607  0.00  0.00    -0.492 OA
BRANCH  16  17
ATOM     17  C   LIG    1       33.012  -1.103  27.772  0.00  0.00    +0.235 C 
BRANCH  17  18
ATOM     18  C   LIG    1       32.079  -1.118  28.980  0.00  0.00    +0.096 C 
BRANCH  18  19
ATOM     19  C   LIG    1       30.622  -0.918  28.603  0.00  0.00    +0.045 A 
ATOM     20  C   LIG    1       29.802  -1.963  28.174  0.00  0.00    +0.024 A 
ATOM     21  C   LIG    1       28.465  -1.716  27.879  0.00  0.00    +0.007 A 
ATOM     22  C   LIG    1       27.948  -0.429  27.992  0.00  0.00    -0.030 A 
ATOM     23  C   LIG    1       28.836   0.559  28.402  0.00  0.00    +0.114 A 
ATOM     24  N   LIG    1       30.144   0.344  28.705  0.00  0.00    -0.260 NA
BRANCH  22  25
ATOM     25  C   LIG    1       26.491  -0.214  27.682  0.00  0.00    +0.033 C 
ATOM     26  C   LIG    1       25.937  -0.919  26.453  0.00  0.00    +0.009 C 
ENDBRANCH  22  25
ENDBRANCH  18  19
ENDBRANCH  17  18
ENDBRANCH  16  17
ENDBRANCH   4  16
TORSDOF 7
ENDMDL
MODEL 3
REMARK VINA RESULT:      -7.9      3.782      9.732
REMARK  Name = 
REMARK                            x       y       z     vdW  Elec       q    Type
REMARK                         _______ _______ _______ _____ _____    ______ ____
ROOT
ATOM      1  C   LIG    1       33.695  -2.833  19.908  0.00  0.00    -0.046 A 
ATOM      2  C   LIG    1       32.349  -3.002  20.235  0.00  0.00    +0.007 A 
ATOM      3  C   LIG    1       31.965  -3.297  21.542  0.00  0.00    +0.046 A 
ATOM      4  C   LIG    1       32.918  -3.461  22.552  0.00  0.00    +0.121 A 
ATOM      5  C   LIG    1       34.266  -3.310  22.229  0.00  0.00    +0.046 A 
ATOM      6  C   LIG    1       34.653  -2.989  20.918  0.00  0.00    +0.007 A 
ENDROOT
BRANCH   1   7
ATOM      7  C   LIG    1       34.086  -2.512  18.483  0.00  0.00    +0.059 C 
BRANCH   7  10
ATOM      8  O   LIG    1       35.533   0.138  19.689  0.00  0.00    -0.274 OA
ATOM      9  C   LIG    1       35.512  -0.400  18.589  0.00  0.00    +0.234 C 
ATOM     10  C   LIG    1       35.485  -1.899  18.337  0.00  0.00    +0.146 C 
ATOM     11  S   LIG    1       35.999  -2.039  16.577  0.00  0.00    -0.054 S 
ATOM     12  C   LIG    1       35.857  -0.322  16.292  0.00  0.00    +0.279 C 
ATOM     13  O   LIG    1       36.083   0.212  15.222  0.00  0.00    -0.263 OA
ATOM     14  N   LIG    1       35.516   0.318  17.433  0.00  0.00    -0.246 N 
ATOM     15  H   LIG    1       35.554   1.325  17.460  0.00  0.00    +0.158 HD
ENDBRANCH   7  10
ENDBRANCH   1   7
BRANCH   4  16
ATOM     16  O   LIG    1       32.633  -3.776  23.864  0.00  0.00    -0.492 OA
BRANCH  16  17
ATOM     17  C   LIG    1       32.750  -2.664  24.753  0.00  0.00    +0.235 C 
BRANCH  17  18
ATOM     18  C   LIG    1       32.195  -2.926  26.151  0.00  0.00    +0.096 C 
BRANCH  18  19
ATOM     19  C   LIG    1       30.938  -2.128  26.447  0.00  0.00    +0.045 A 
ATOM     20  C   LIG    1       30.540  -1.033  25.677  0.00  0.00    +0.024 A 
ATOM     21  C   LIG    1       29.357  -0.368  25.981  0.00  0.00    +0.007 A 
ATOM     22  C   LIG    1       28.579  -0.779  27.060  0.00  0.00    -0.030 A 
ATOM     23  C   LIG    1       29.057  -1.861  27.789  0.00  0.00    +0.114 A 
ATOM     24  N   LIG    1       30.204  -2.535  27.509  0.00  0.00    -0.260 NA
BRANCH  22  25
ATOM     25  C   LIG    1       27.296  -0.042  27.338  0.00  0.00    +0.033 C 
ATOM     26  C   LIG    1       26.010  -0.686  26.842  0.00  0.00    +0.009 C 
ENDBRANCH  22  25
ENDBRANCH  18  19
ENDBRANCH  17  18
ENDBRANCH  16  17
ENDBRANCH   4  16
TORSDOF 7
ENDMDL
MODEL 4
REMARK VINA RESULT:      -7.8      3.785      9.141
REMARK  Name = 
REMARK                            x       y       z     vdW  Elec       q    Type
REMARK                         _______ _______ _______ _____ _____    ______ ____
ROOT
ATOM      1  C   LIG    1       33.107  -2.938  23.154  0.00  0.00    -0.046 A 
ATOM      2  C   LIG    1       33.215  -3.396  24.468  0.00  0.00    +0.007 A 
ATOM      3  C   LIG    1       32.375  -2.905  25.465  0.00  0.00    +0.046 A 
ATOM      4  C   LIG    1       31.423  -1.919  25.183  0.00  0.00    +0.121 A 
ATOM      5  C   LIG    1       31.320  -1.445  23.876  0.00  0.00    +0.046 A 
ATOM      6  C   LIG    1       32.150  -1.956  22.865  0.00  0.00    +0.007 A 
ENDROOT
BRANCH   1   7
ATOM      7  C   LIG    1       34.030  -3.487  22.090  0.00  0.00    +0.059 C 
BRANCH   7  10
ATOM      8  O   LIG    1       32.385  -3.003  19.328  0.00  0.00    -0.274 OA
ATOM      9  C   LIG    1       33.573  -3.090  19.612  0.00  0.00    +0.234 C 
ATOM     10  C   LIG    1       34.220  -2.560  20.881  0.00  0.00    +0.146 C 
ATOM     11  S   LIG    1       36.008  -2.520  20.457  0.00  0.00    -0.054 S 
ATOM     12  C   LIG    1       35.784  -3.430  18.983  0.00  0.00    +0.279 C 
ATOM     13  O   LIG    1       36.687  -3.737  18.227  0.00  0.00    -0.263 OA
ATOM     14  N   LIG    1       34.472  -3.690  18.786  0.00  0.00    -0.246 N 
ATOM     15  H   LIG    1       34.175  -4.066  17.899  0.00  0.00    +0.158 HD
ENDBRANCH   7  10
ENDBRANCH   1   7
BRANCH   4  16
ATOM     16  O   LIG    1       30.567  -1.359  26.108  0.00  0.00    -0.492 OA
BRANCH  16  17
ATOM     17  C   LIG    1       30.007  -2.312  27.014  0.00  0.00    +0.235 C 
BRANCH  17  18
ATOM     18  C   LIG    1       30.238  -1.978  28.486  0.00  0.00    +0.096 C 
BRANCH  18  19
ATOM     19  C   LIG    1       31.447  -1.086  28.706  0.00  0.00    +0.045 A 
ATOM     20  C   LIG    1       32.756  -1.570  28.687  0.00  0.00    +0.024 A 
ATOM     21  C   LIG    1       33.820  -0.691  28.861  0.00  0.00    +0.007 A 
ATOM     22  C   LIG    1       33.582   0.665  29.070  0.00  0.00    -0.030 A 
ATOM     23  C   LIG    1       32.250   1.061  29.099  0.00  0.00    +0.114 A 
ATOM     24  N   LIG    1       31.193   0.226  28.923  0.00  0.00    -0.260 NA
BRANCH  22  25
ATOM     25  C   LIG    1       34.766   1.581  29.231  0.00  0.00    +0.033 C 
ATOM     26  C   LIG    1       35.209   2.357  28.001  0.00  0.00    +0.009 C 
ENDBRANCH  22  25
ENDBRANCH  18  19
ENDBRANCH  17  18
ENDBRANCH  16  17
ENDBRANCH   4  16
TORSDOF 7
ENDMDL
MODEL 5
REMARK VINA RESULT:      -7.7      3.926     10.034
REMARK  Name = 
REMARK                            x       y       z     vdW  Elec       q    Type
REMARK                         _______ _______ _______ _____ _____    ______ ____
ROOT
ATOM      1  C   LIG    1       33.520  -2.798  19.750  0.00  0.00    -0.046 A 
ATOM      2  C   LIG    1       32.230  -3.083  20.198  0.00  0.00    +0.007 A 
ATOM      3  C   LIG    1       31.991  -3.383  21.538  0.00  0.00    +0.046 A 
ATOM      4  C   LIG    1       33.039  -3.434  22.462  0.00  0.00    +0.121 A 
ATOM      5  C   LIG    1       34.333  -3.166  22.018  0.00  0.00    +0.046 A 
ATOM      6  C   LIG    1       34.573  -2.841  20.674  0.00  0.00    +0.007 A 
ENDROOT
BRANCH   1   7
ATOM      7  C   LIG    1       33.754  -2.475  18.291  0.00  0.00    +0.059 C 
BRANCH   7  10
ATOM      8  O   LIG    1       36.590  -2.082  16.754  0.00  0.00    -0.274 OA
ATOM      9  C   LIG    1       35.581  -2.739  16.533  0.00  0.00    +0.234 C 
ATOM     10  C   LIG    1       34.726  -3.428  17.583  0.00  0.00    +0.146 C 
ATOM     11  S   LIG    1       33.744  -4.634  16.602  0.00  0.00    -0.054 S 
ATOM     12  C   LIG    1       34.229  -3.942  15.074  0.00  0.00    +0.279 C 
ATOM     13  O   LIG    1       33.860  -4.355  13.991  0.00  0.00    -0.263 OA
ATOM     14  N   LIG    1       35.106  -2.932  15.272  0.00  0.00    -0.246 N 
ATOM     15  H   LIG    1       35.594  -2.544  14.480  0.00  0.00    +0.158 HD
ENDBRANCH   7  10
ENDBRANCH   1   7
BRANCH   4  16
ATOM     16  O   LIG    1       32.900  -3.744  23.799  0.00  0.00    -0.492 OA
BRANCH  16  17
ATOM     17  C   LIG    1       32.796  -2.594  24.640  0.00  0.00    +0.235 C 
BRANCH  17  18
ATOM     18  C   LIG    1       32.229  -2.888  26.026  0.00  0.00    +0.096 C 
BRANCH  18  19
ATOM     19  C   LIG    1       30.978  -2.085  26.335  0.00  0.00    +0.045 A 
ATOM     20  C   LIG    1       30.599  -0.963  25.596  0.00  0.00    +0.024 A 
ATOM     21  C   LIG    1       29.421  -0.294  25.910  0.00  0.00    +0.007 A 
ATOM     22  C   LIG    1       28.628  -0.730  26.968  0.00  0.00    -0.030 A 
ATOM     23  C   LIG    1       29.088  -1.839  27.668  0.00  0.00    +0.114 A 
ATOM     24  N   LIG    1       30.230  -2.516  27.377  0.00  0.00    -0.260 NA
BRANCH  22  25
ATOM     25  C   LIG    1       27.352   0.013  27.257  0.00  0.00    +0.033 C 
ATOM     26  C   LIG    1       26.052  -0.668  26.855  0.00  0.00    +0.009 C 
ENDBRANCH  22  25
ENDBRANCH  18  19
ENDBRANCH  17  18
ENDBRANCH  16  17
ENDBRANCH   4  16
TORSDOF 7
ENDMDL
MODEL 6
REMARK VINA RESULT:      -7.7      1.719      2.333
REMARK  Name = 
REMARK                            x       y       z     vdW  Elec       q    Type
REMARK                         _______ _______ _______ _____ _____    ______ ____
ROOT
ATOM      1  C   LIG    1       31.914  -0.906  25.381  0.00  0.00    -0.046 A 
ATOM      2  C   LIG    1       31.535  -0.899  24.037  0.00  0.00    +0.007 A 
ATOM      3  C   LIG    1       31.937  -1.920  23.179  0.00  0.00    +0.046 A 
ATOM      4  C   LIG    1       32.752  -2.962  23.631  0.00  0.00    +0.121 A 
ATOM      5  C   LIG    1       33.148  -2.968  24.968  0.00  0.00    +0.046 A 
ATOM      6  C   LIG    1       32.725  -1.952  25.840  0.00  0.00    +0.007 A 
ENDROOT
BRANCH   1   7
ATOM      7  C   LIG    1       31.465   0.213  26.293  0.00  0.00    +0.059 C 
BRANCH   7  10
ATOM      8  O   LIG    1       29.412  -2.278  26.683  0.00  0.00    -0.274 OA
ATOM      9  C   LIG    1       29.366  -1.082  26.942  0.00  0.00    +0.234 C 
ATOM     10  C   LIG    1       30.531  -0.235  27.426  0.00  0.00    +0.146 C 
ATOM     11  S   LIG    1       29.708   1.255  28.121  0.00  0.00    -0.054 S 
ATOM     12  C   LIG    1       28.149   0.830  27.458  0.00  0.00    +0.279 C 
ATOM     13  O   LIG    1       27.143   1.499  27.600  0.00  0.00    -0.263 OA
ATOM     14  N   LIG    1       28.218  -0.361  26.822  0.00  0.00    -0.246 N 
ATOM     15  H   LIG    1       27.364  -0.810  26.530  0.00  0.00    +0.158 HD
ENDBRANCH   7  10
ENDBRANCH   1   7
BRANCH   4  16
ATOM     16  O   LIG    1       33.216  -4.000  22.849  0.00  0.00    -0.492 OA
BRANCH  16  17
ATOM     17  C   LIG    1       34.009  -3.567  21.743  0.00  0.00    +0.235 C 
BRANCH  17  18
ATOM     18  C   LIG    1       33.295  -3.654  20.396  0.00  0.00    +0.096 C 
BRANCH  18  19
ATOM     19  C   LIG    1       33.793  -2.625  19.396  0.00  0.00    +0.045 A 
ATOM     20  C   LIG    1       34.827  -1.733  19.682  0.00  0.00    +0.024 A 
ATOM     21  C   LIG    1       35.259  -0.840  18.707  0.00  0.00    +0.007 A 
ATOM     22  C   LIG    1       34.652  -0.822  17.455  0.00  0.00    -0.030 A 
ATOM     23  C   LIG    1       33.613  -1.725  17.259  0.00  0.00    +0.114 A 
ATOM     24  N   LIG    1       33.178  -2.614  18.190  0.00  0.00    -0.260 NA
BRANCH  22  25
ATOM     25  C   LIG    1       35.167   0.147  16.425  0.00  0.00    +0.033 C 
ATOM     26  C   LIG    1       36.333  -0.316  15.566  0.00  0.00    +0.009 C 
ENDBRANCH  22  25
ENDBRANCH  18  19
ENDBRANCH  17  18
ENDBRANCH  16  17
ENDBRANCH   4  16
TORSDOF 7
ENDMDL
MODEL 7
REMARK VINA RESULT:      -7.7      3.831      9.779
REMARK  Name = 
REMARK                            x       y       z     vdW  Elec       q    Type
REMARK                         _______ _______ _______ _____ _____    ______ ____
ROOT
ATOM      1  C   LIG    1       33.196  -2.982  19.957  0.00  0.00    -0.046 A 
ATOM      2  C   LIG    1       34.388  -2.931  20.682  0.00  0.00    +0.007 A 
ATOM      3  C   LIG    1       34.397  -3.172  22.055  0.00  0.00    +0.046 A 
ATOM      4  C   LIG    1       33.212  -3.442  22.746  0.00  0.00    +0.121 A 
ATOM      5  C   LIG    1       32.016  -3.479  22.031  0.00  0.00    +0.046 A 
ATOM      6  C   LIG    1       32.007  -3.260  20.645  0.00  0.00    +0.007 A 
ENDROOT
BRANCH   1   7
ATOM      7  C   LIG    1       33.212  -2.718  18.469  0.00  0.00    +0.059 C 
BRANCH   7  10
ATOM      8  O   LIG    1       34.848  -2.171  15.714  0.00  0.00    -0.274 OA
ATOM      9  C   LIG    1       34.331  -3.158  16.220  0.00  0.00    +0.234 C 
ATOM     10  C   LIG    1       34.304  -3.480  17.705  0.00  0.00    +0.146 C 
ATOM     11  S   LIG    1       33.893  -5.272  17.740  0.00  0.00    -0.054 S 
ATOM     12  C   LIG    1       33.492  -5.318  16.042  0.00  0.00    +0.279 C 
ATOM     13  O   LIG    1       33.119  -6.318  15.456  0.00  0.00    -0.263 OA
ATOM     14  N   LIG    1       33.708  -4.110  15.474  0.00  0.00    -0.246 N 
ATOM     15  H   LIG    1       33.674  -4.027  14.470  0.00  0.00    +0.158 HD
ENDBRANCH   7  10
ENDBRANCH   1   7
BRANCH   4  16
ATOM     16  O   LIG    1       33.123  -3.669  24.104  0.00  0.00    -0.492 OA
BRANCH  16  17
ATOM     17  C   LIG    1       32.794  -2.499  24.855  0.00  0.00    +0.235 C 
BRANCH  17  18
ATOM     18  C   LIG    1       32.205  -2.791  26.233  0.00  0.00    +0.096 C 
BRANCH  18  19
ATOM     19  C   LIG    1       30.902  -2.054  26.486  0.00  0.00    +0.045 A 
ATOM     20  C   LIG    1       29.956  -2.490  27.415  0.00  0.00    +0.024 A 
ATOM     21  C   LIG    1       28.799  -1.746  27.624  0.00  0.00    +0.007 A 
ATOM     22  C   LIG    1       28.575  -0.579  26.898  0.00  0.00    -0.030 A 
ATOM     23  C   LIG    1       29.554  -0.228  25.977  0.00  0.00    +0.114 A 
ATOM     24  N   LIG    1       30.697  -0.930  25.759  0.00  0.00    -0.260 NA
BRANCH  22  25
ATOM     25  C   LIG    1       27.319   0.203  27.174  0.00  0.00    +0.033 C 
ATOM     26  C   LIG    1       26.006  -0.563  27.127  0.00  0.00    +0.009 C 
ENDBRANCH  22  25
ENDBRANCH  18  19
ENDBRANCH  17  18
ENDBRANCH  16  17
ENDBRANCH   4  16
TORSDOF 7
ENDMDL
MODEL 8
REMARK VINA RESULT:      -7.6      3.542      3.922
REMARK  Name = 
REMARK                            x       y       z     vdW  Elec       q    Type
REMARK                         _______ _______ _______ _____ _____    ______ ____
ROOT
ATOM      1  C   LIG    1       32.627  -1.485  26.026  0.00  0.00    -0.046 A 
ATOM      2  C   LIG    1       31.861  -0.661  25.200  0.00  0.00    +0.007 A 
ATOM      3  C   LIG    1       31.594  -1.025  23.882  0.00  0.00    +0.046 A 
ATOM      4  C   LIG    1       32.109  -2.207  23.343  0.00  0.00    +0.121 A 
ATOM      5  C   LIG    1       32.889  -3.028  24.157  0.00  0.00    +0.046 A 
ATOM      6  C   LIG    1       33.139  -2.675  25.493  0.00  0.00    +0.007 A 
ENDROOT
BRANCH   1   7
ATOM      7  C   LIG    1       32.902  -1.069  27.453  0.00  0.00    +0.059 C 
BRANCH   7  10
ATOM      8  O   LIG    1       34.552   1.727  27.285  0.00  0.00    -0.274 OA
ATOM      9  C   LIG    1       33.776   1.239  28.097  0.00  0.00    +0.234 C 
ATOM     10  C   LIG    1       32.558   0.395  27.760  0.00  0.00    +0.146 C 
ATOM     11  S   LIG    1       31.569   0.446  29.309  0.00  0.00    -0.054 S 
ATOM     12  C   LIG    1       32.863   1.168  30.233  0.00  0.00    +0.279 C 
ATOM     13  O   LIG    1       32.784   1.449  31.414  0.00  0.00    -0.263 OA
ATOM     14  N   LIG    1       33.929   1.414  29.438  0.00  0.00    -0.246 N 
ATOM     15  H   LIG    1       34.688   1.973  29.795  0.00  0.00    +0.158 HD
ENDBRANCH   7  10
ENDBRANCH   1   7
BRANCH   4  16
ATOM     16  O   LIG    1       31.917  -2.635  22.045  0.00  0.00    -0.492 OA
BRANCH  16  17
ATOM     17  C   LIG    1       33.097  -3.170  21.443  0.00  0.00    +0.235 C 
BRANCH  17  18
ATOM     18  C   LIG    1       32.920  -3.571  19.981  0.00  0.00    +0.096 C 
BRANCH  18  19
ATOM     19  C   LIG    1       33.556  -2.584  19.017  0.00  0.00    +0.045 A 
ATOM     20  C   LIG    1       33.107  -2.413  17.707  0.00  0.00    +0.024 A 
ATOM     21  C   LIG    1       33.712  -1.465  16.887  0.00  0.00    +0.007 A 
ATOM     22  C   LIG    1       34.772  -0.700  17.365  0.00  0.00    -0.030 A 
ATOM     23  C   LIG    1       35.174  -0.949  18.673  0.00  0.00    +0.114 A 
ATOM     24  N   LIG    1       34.595  -1.861  19.497  0.00  0.00    -0.260 NA
BRANCH  22  25
ATOM     25  C   LIG    1       35.381   0.328  16.449  0.00  0.00    +0.033 C 
ATOM     26  C   LIG    1       36.208  -0.192  15.283  0.00  0.00    +0.009 C 
ENDBRANCH  22  25
ENDBRANCH  18  19
ENDBRANCH  17  18
ENDBRANCH  16  17
ENDBRANCH   4  16
TORSDOF 7
ENDMDL
MODEL 9
REMARK VINA RESULT:      -7.5      3.529      4.018
REMARK  Name = 
REMARK                            x       y       z     vdW  Elec       q    Type
REMARK                         _______ _______ _______ _____ _____    ______ ____
ROOT
ATOM      1  C   LIG    1       32.125  -1.619  26.113  0.00  0.00    -0.046 A 
ATOM      2  C   LIG    1       31.563  -0.762  25.166  0.00  0.00    +0.007 A 
ATOM      3  C   LIG    1       31.598  -1.077  23.810  0.00  0.00    +0.046 A 
ATOM      4  C   LIG    1       32.223  -2.244  23.358  0.00  0.00    +0.121 A 
ATOM      5  C   LIG    1       32.801  -3.098  24.297  0.00  0.00    +0.046 A 
ATOM      6  C   LIG    1       32.745  -2.793  25.666  0.00  0.00    +0.007 A 
ENDROOT
BRANCH   1   7
ATOM      7  C   LIG    1       32.072  -1.256  27.580  0.00  0.00    +0.059 C 
BRANCH   7  10
ATOM      8  O   LIG    1       33.933   1.342  26.984  0.00  0.00    -0.274 OA
ATOM      9  C   LIG    1       33.259   0.973  27.937  0.00  0.00    +0.234 C 
ATOM     10  C   LIG    1       31.926   0.248  27.851  0.00  0.00    +0.146 C 
ATOM     11  S   LIG    1       31.217   0.468  29.533  0.00  0.00    -0.054 S 
ATOM     12  C   LIG    1       32.710   1.089  30.193  0.00  0.00    +0.279 C 
ATOM     13  O   LIG    1       32.855   1.427  31.353  0.00  0.00    -0.263 OA
ATOM     14  N   LIG    1       33.648   1.187  29.224  0.00  0.00    -0.246 N 
ATOM     15  H   LIG    1       34.506   1.679  29.420  0.00  0.00    +0.158 HD
ENDBRANCH   7  10
ENDBRANCH   1   7
BRANCH   4  16
ATOM     16  O   LIG    1       32.327  -2.625  22.036  0.00  0.00    -0.492 OA
BRANCH  16  17
ATOM     17  C   LIG    1       33.623  -3.115  21.687  0.00  0.00    +0.235 C 
BRANCH  17  18
ATOM     18  C   LIG    1       34.299  -2.335  20.563  0.00  0.00    +0.096 C 
BRANCH  18  19
ATOM     19  C   LIG    1       34.028  -2.924  19.190  0.00  0.00    +0.045 A 
ATOM     20  C   LIG    1       33.210  -2.298  18.247  0.00  0.00    +0.024 A 
ATOM     21  C   LIG    1       33.033  -2.875  16.994  0.00  0.00    +0.007 A 
ATOM     22  C   LIG    1       33.654  -4.082  16.684  0.00  0.00    -0.030 A 
ATOM     23  C   LIG    1       34.432  -4.651  17.685  0.00  0.00    +0.114 A 
ATOM     24  N   LIG    1       34.629  -4.105  18.914  0.00  0.00    -0.260 NA
BRANCH  22  25
ATOM     25  C   LIG    1       33.450  -4.657  15.308  0.00  0.00    +0.033 C 
ATOM     26  C   LIG    1       34.397  -4.183  14.216  0.00  0.00    +0.009 C 
ENDBRANCH  22  25
ENDBRANCH  18  19
ENDBRANCH  17  18
ENDBRANCH  16  17
ENDBRANCH   4  16
TORSDOF 7
ENDMDL
