MODEL 1
REMARK VINA RESULT:      -7.1      0.000      0.000
REMARK  Name = 
REMARK                            x       y       z     vdW  Elec       q    Type
REMARK                         _______ _______ _______ _____ _____    ______ ____
ROOT
ATOM      1  C   LIG    1       66.774  46.758  96.422  0.00  0.00    -0.046 A 
ATOM      2  C   LIG    1       67.631  45.658  96.480  0.00  0.00    +0.007 A 
ATOM      3  C   LIG    1       67.663  44.838  97.607  0.00  0.00    +0.046 A 
ATOM      4  C   LIG    1       66.861  45.112  98.719  0.00  0.00    +0.121 A 
ATOM      5  C   LIG    1       66.014  46.219  98.675  0.00  0.00    +0.046 A 
ATOM      6  C   LIG    1       65.963  47.032  97.532  0.00  0.00    +0.007 A 
ENDROOT
BRANCH   1   7
ATOM      7  C   LIG    1       66.757  47.632  95.188  0.00  0.00    +0.059 C 
BRANCH   7  10
ATOM      8  O   LIG    1       69.998  47.480  94.989  0.00  0.00    -0.274 OA
ATOM      9  C   LIG    1       69.110  47.842  94.228  0.00  0.00    +0.234 C 
ATOM     10  C   LIG    1       67.741  47.195  94.094  0.00  0.00    +0.146 C 
ATOM     11  S   LIG    1       67.131  47.830  92.480  0.00  0.00    -0.054 S 
ATOM     12  C   LIG    1       68.412  49.010  92.343  0.00  0.00    +0.279 C 
ATOM     13  O   LIG    1       68.531  49.782  91.411  0.00  0.00    -0.263 OA
ATOM     14  N   LIG    1       69.266  48.899  93.386  0.00  0.00    -0.246 N 
ATOM     15  H   LIG    1       70.138  49.404  93.360  0.00  0.00    +0.158 HD
ENDBRANCH   7  10
ENDBRANCH   1   7
BRANCH   4  16
ATOM     16  O   LIG    1       66.844  44.372  99.883  0.00  0.00    -0.492 OA
BRANCH  16  17
ATOM     17  C   LIG    1       67.076  45.154 101.056  0.00  0.00    +0.235 C 
BRANCH  17  18
ATOM     18  C   LIG    1       68.493  45.714 101.157  0.00  0.00    +0.096 C 
BRANCH  18  19
ATOM     19  C   LIG    1       68.696  46.961 100.313  0.00  0.00    +0.045 A 
ATOM     20  C   LIG    1       69.613  47.021  99.263  0.00  0.00    +0.024 A 
ATOM     21  C   LIG    1       69.723  48.183  98.507  0.00  0.00    +0.007 A 
ATOM     22  C   LIG    1       68.933  49.290  98.805  0.00  0.00    -0.030 A 
ATOM     23  C   LIG    1       68.063  49.157  99.880  0.00  0.00    +0.114 A 
ATOM     24  N   LIG    1       67.929  48.031 100.629  0.00  0.00    -0.260 NA
BRANCH  22  25
ATOM     25  C   LIG    1       69.072  50.518  97.946  0.00  0.00    +0.033 C 
ATOM     26  C   LIG    1       68.377  50.495  96.592  0.00  0.00    +0.009 C 
ENDBRANCH  22  25
ENDBRANCH  18  19
ENDBRANCH  17  18
ENDBRANCH  16  17
ENDBRANCH   4  16
TORSDOF 7
ENDMDL
MODEL 2
REMARK VINA RESULT:      -6.7      1.492      3.473
REMARK  Name = 
REMARK                            x       y       z     vdW  Elec       q    Type
REMARK                         _______ _______ _______ _____ _____    ______ ____
ROOT
ATOM      1  C   LIG    1       68.616  49.000  97.395  0.00  0.00    -0.046 A 
ATOM      2  C   LIG    1       67.658  49.435  98.312  0.00  0.00    +0.007 A 
ATOM      3  C   LIG    1       67.673  48.979  99.628  0.00  0.00    +0.046 A 
ATOM      4  C   LIG    1       68.628  48.051 100.057  0.00  0.00    +0.121 A 
ATOM      5  C   LIG    1       69.578  47.600  99.142  0.00  0.00    +0.046 A 
ATOM      6  C   LIG    1       69.579  48.077  97.822  0.00  0.00    +0.007 A 
ENDROOT
BRANCH   1   7
ATOM      7  C   LIG    1       68.579  49.511  95.972  0.00  0.00    +0.059 C 
BRANCH   7  10
ATOM      8  O   LIG    1       70.899  47.637  94.678  0.00  0.00    -0.274 OA
ATOM      9  C   LIG    1       69.938  48.247  94.224  0.00  0.00    +0.234 C 
ATOM     10  C   LIG    1       68.590  48.407  94.906  0.00  0.00    +0.146 C 
ATOM     11  S   LIG    1       67.481  48.919  93.531  0.00  0.00    -0.054 S 
ATOM     12  C   LIG    1       68.806  49.188  92.426  0.00  0.00    +0.279 C 
ATOM     13  O   LIG    1       68.671  49.569  91.279  0.00  0.00    -0.263 OA
ATOM     14  N   LIG    1       69.981  48.862  93.011  0.00  0.00    -0.246 N 
ATOM     15  H   LIG    1       70.813  48.813  92.445  0.00  0.00    +0.158 HD
ENDBRANCH   7  10
ENDBRANCH   1   7
BRANCH   4  16
ATOM     16  O   LIG    1       68.705  47.527 101.331  0.00  0.00    -0.492 OA
BRANCH  16  17
ATOM     17  C   LIG    1       68.711  46.099 101.358  0.00  0.00    +0.235 C 
BRANCH  17  18
ATOM     18  C   LIG    1       67.377  45.465 100.972  0.00  0.00    +0.096 C 
BRANCH  18  19
ATOM     19  C   LIG    1       67.159  45.415  99.470  0.00  0.00    +0.045 A 
ATOM     20  C   LIG    1       66.128  46.107  98.833  0.00  0.00    +0.024 A 
ATOM     21  C   LIG    1       66.008  46.047  97.448  0.00  0.00    +0.007 A 
ATOM     22  C   LIG    1       66.901  45.286  96.700  0.00  0.00    -0.030 A 
ATOM     23  C   LIG    1       67.883  44.608  97.412  0.00  0.00    +0.114 A 
ATOM     24  N   LIG    1       68.029  44.657  98.763  0.00  0.00    -0.260 NA
BRANCH  22  25
ATOM     25  C   LIG    1       66.744  45.268  95.203  0.00  0.00    +0.033 C 
ATOM     26  C   LIG    1       65.683  46.183  94.610  0.00  0.00    +0.009 C 
ENDBRANCH  22  25
ENDBRANCH  18  19
ENDBRANCH  17  18
ENDBRANCH  16  17
ENDBRANCH   4  16
TORSDOF 7
ENDMDL
MODEL 3
REMARK VINA RESULT:      -6.6      2.131      6.120
REMARK  Name = 
REMARK                            x       y       z     vdW  Elec       q    Type
REMARK                         _______ _______ _______ _____ _____    ______ ____
ROOT
ATOM      1  C   LIG    1       66.226  46.905  96.599  0.00  0.00    -0.046 A 
ATOM      2  C   LIG    1       66.092  48.187  96.065  0.00  0.00    +0.007 A 
ATOM      3  C   LIG    1       66.314  48.421  94.709  0.00  0.00    +0.046 A 
ATOM      4  C   LIG    1       66.706  47.385  93.855  0.00  0.00    +0.121 A 
ATOM      5  C   LIG    1       66.858  46.104  94.385  0.00  0.00    +0.046 A 
ATOM      6  C   LIG    1       66.611  45.862  95.746  0.00  0.00    +0.007 A 
ENDROOT
BRANCH   1   7
ATOM      7  C   LIG    1       65.978  46.676  98.073  0.00  0.00    +0.059 C 
BRANCH   7  10
ATOM      8  O   LIG    1       64.982  44.366 100.131  0.00  0.00    -0.274 OA
ATOM      9  C   LIG    1       66.034  44.971  99.968  0.00  0.00    +0.234 C 
ATOM     10  C   LIG    1       66.612  45.394  98.627  0.00  0.00    +0.146 C 
ATOM     11  S   LIG    1       68.375  45.742  99.020  0.00  0.00    -0.054 S 
ATOM     12  C   LIG    1       68.113  45.660 100.745  0.00  0.00    +0.279 C 
ATOM     13  O   LIG    1       68.986  45.827 101.575  0.00  0.00    -0.263 OA
ATOM     14  N   LIG    1       66.828  45.335 101.011  0.00  0.00    -0.246 N 
ATOM     15  H   LIG    1       66.569  45.095 101.955  0.00  0.00    +0.158 HD
ENDBRANCH   7  10
ENDBRANCH   1   7
BRANCH   4  16
ATOM     16  O   LIG    1       66.971  47.527  92.509  0.00  0.00    -0.492 OA
BRANCH  16  17
ATOM     17  C   LIG    1       67.897  48.576  92.220  0.00  0.00    +0.235 C 
BRANCH  17  18
ATOM     18  C   LIG    1       69.308  48.318  92.744  0.00  0.00    +0.096 C 
BRANCH  18  19
ATOM     19  C   LIG    1       69.439  48.574  94.235  0.00  0.00    +0.045 A 
ATOM     20  C   LIG    1       69.208  49.824  94.810  0.00  0.00    +0.024 A 
ATOM     21  C   LIG    1       69.310  49.981  96.189  0.00  0.00    +0.007 A 
ATOM     22  C   LIG    1       69.659  48.899  96.993  0.00  0.00    -0.030 A 
ATOM     23  C   LIG    1       69.896  47.695  96.340  0.00  0.00    +0.114 A 
ATOM     24  N   LIG    1       69.795  47.513  94.997  0.00  0.00    -0.260 NA
BRANCH  22  25
ATOM     25  C   LIG    1       69.738  49.112  98.481  0.00  0.00    +0.033 C 
ATOM     26  C   LIG    1       68.446  49.485  99.192  0.00  0.00    +0.009 C 
ENDBRANCH  22  25
ENDBRANCH  18  19
ENDBRANCH  17  18
ENDBRANCH  16  17
ENDBRANCH   4  16
TORSDOF 7
ENDMDL
MODEL 4
REMARK VINA RESULT:      -6.5      1.202      2.193
REMARK  Name = 
REMARK                            x       y       z     vdW  Elec       q    Type
REMARK                         _______ _______ _______ _____ _____    ______ ____
ROOT
ATOM      1  C   LIG    1       66.848  46.828  94.809  0.00  0.00    -0.046 A 
ATOM      2  C   LIG    1       65.932  46.996  95.849  0.00  0.00    +0.007 A 
ATOM      3  C   LIG    1       66.038  46.248  97.020  0.00  0.00    +0.046 A 
ATOM      4  C   LIG    1       67.045  45.290  97.173  0.00  0.00    +0.121 A 
ATOM      5  C   LIG    1       67.955  45.105  96.133  0.00  0.00    +0.046 A 
ATOM      6  C   LIG    1       67.864  45.874  94.962  0.00  0.00    +0.007 A 
ENDROOT
BRANCH   1   7
ATOM      7  C   LIG    1       66.713  47.652  93.549  0.00  0.00    +0.059 C 
BRANCH   7  10
ATOM      8  O   LIG    1       68.594  49.171  91.377  0.00  0.00    -0.274 OA
ATOM      9  C   LIG    1       68.677  48.957  92.580  0.00  0.00    +0.234 C 
ATOM     10  C   LIG    1       67.517  48.959  93.562  0.00  0.00    +0.146 C 
ATOM     11  S   LIG    1       68.347  49.113  95.195  0.00  0.00    -0.054 S 
ATOM     12  C   LIG    1       69.936  48.826  94.529  0.00  0.00    +0.279 C 
ATOM     13  O   LIG    1       70.958  48.804  95.189  0.00  0.00    -0.263 OA
ATOM     14  N   LIG    1       69.866  48.690  93.186  0.00  0.00    -0.246 N 
ATOM     15  H   LIG    1       70.719  48.680  92.649  0.00  0.00    +0.158 HD
ENDBRANCH   7  10
ENDBRANCH   1   7
BRANCH   4  16
ATOM     16  O   LIG    1       67.213  44.489  98.284  0.00  0.00    -0.492 OA
BRANCH  16  17
ATOM     17  C   LIG    1       66.368  44.852  99.378  0.00  0.00    +0.235 C 
BRANCH  17  18
ATOM     18  C   LIG    1       67.092  45.585 100.504  0.00  0.00    +0.096 C 
BRANCH  18  19
ATOM     19  C   LIG    1       67.854  46.806 100.020  0.00  0.00    +0.045 A 
ATOM     20  C   LIG    1       69.142  46.730  99.487  0.00  0.00    +0.024 A 
ATOM     21  C   LIG    1       69.770  47.884  99.029  0.00  0.00    +0.007 A 
ATOM     22  C   LIG    1       69.124  49.114  99.115  0.00  0.00    -0.030 A 
ATOM     23  C   LIG    1       67.854  49.107  99.680  0.00  0.00    +0.114 A 
ATOM     24  N   LIG    1       67.215  47.994 100.127  0.00  0.00    -0.260 NA
BRANCH  22  25
ATOM     25  C   LIG    1       69.834  50.331  98.587  0.00  0.00    +0.033 C 
ATOM     26  C   LIG    1       68.991  51.345  97.828  0.00  0.00    +0.009 C 
ENDBRANCH  22  25
ENDBRANCH  18  19
ENDBRANCH  17  18
ENDBRANCH  16  17
ENDBRANCH   4  16
TORSDOF 7
ENDMDL
MODEL 5
REMARK VINA RESULT:      -6.0      2.323      6.008
REMARK  Name = 
REMARK                            x       y       z     vdW  Elec       q    Type
REMARK                         _______ _______ _______ _____ _____    ______ ____
ROOT
ATOM      1  C   LIG    1       67.373  45.892  96.426  0.00  0.00    -0.046 A 
ATOM      2  C   LIG    1       66.274  46.402  95.734  0.00  0.00    +0.007 A 
ATOM      3  C   LIG    1       66.428  46.975  94.473  0.00  0.00    +0.046 A 
ATOM      4  C   LIG    1       67.691  47.082  93.882  0.00  0.00    +0.121 A 
ATOM      5  C   LIG    1       68.797  46.590  94.574  0.00  0.00    +0.046 A 
ATOM      6  C   LIG    1       68.639  45.991  95.834  0.00  0.00    +0.007 A 
ENDROOT
BRANCH   1   7
ATOM      7  C   LIG    1       67.179  45.275  97.792  0.00  0.00    +0.059 C 
BRANCH   7  10
ATOM      8  O   LIG    1       69.808  46.714  99.052  0.00  0.00    -0.274 OA
ATOM      9  C   LIG    1       68.819  46.171  99.527  0.00  0.00    +0.234 C 
ATOM     10  C   LIG    1       67.410  46.243  98.960  0.00  0.00    +0.146 C 
ATOM     11  S   LIG    1       66.360  45.711 100.372  0.00  0.00    -0.054 S 
ATOM     12  C   LIG    1       67.725  45.169 101.317  0.00  0.00    +0.279 C 
ATOM     13  O   LIG    1       67.635  44.679 102.427  0.00  0.00    -0.263 OA
ATOM     14  N   LIG    1       68.881  45.423 100.662  0.00  0.00    -0.246 N 
ATOM     15  H   LIG    1       69.755  45.313 101.151  0.00  0.00    +0.158 HD
ENDBRANCH   7  10
ENDBRANCH   1   7
BRANCH   4  16
ATOM     16  O   LIG    1       67.942  47.654  92.651  0.00  0.00    -0.492 OA
BRANCH  16  17
ATOM     17  C   LIG    1       67.976  49.082  92.685  0.00  0.00    +0.235 C 
BRANCH  17  18
ATOM     18  C   LIG    1       69.123  49.655  93.513  0.00  0.00    +0.096 C 
BRANCH  18  19
ATOM     19  C   LIG    1       68.818  49.692  95.000  0.00  0.00    +0.045 A 
ATOM     20  C   LIG    1       67.563  50.035  95.504  0.00  0.00    +0.024 A 
ATOM     21  C   LIG    1       67.340  50.014  96.878  0.00  0.00    +0.007 A 
ATOM     22  C   LIG    1       68.369  49.667  97.749  0.00  0.00    -0.030 A 
ATOM     23  C   LIG    1       69.594  49.362  97.167  0.00  0.00    +0.114 A 
ATOM     24  N   LIG    1       69.836  49.366  95.830  0.00  0.00    -0.260 NA
BRANCH  22  25
ATOM     25  C   LIG    1       68.076  49.637  99.225  0.00  0.00    +0.033 C 
ATOM     26  C   LIG    1       69.251  49.855 100.166  0.00  0.00    +0.009 C 
ENDBRANCH  22  25
ENDBRANCH  18  19
ENDBRANCH  17  18
ENDBRANCH  16  17
ENDBRANCH   4  16
TORSDOF 7
ENDMDL
MODEL 6
REMARK VINA RESULT:      -5.8      2.274      6.838
REMARK  Name = 
REMARK                            x       y       z     vdW  Elec       q    Type
REMARK                         _______ _______ _______ _____ _____    ______ ____
ROOT
ATOM      1  C   LIG    1       69.868  48.196  96.550  0.00  0.00    -0.046 A 
ATOM      2  C   LIG    1       69.736  49.544  96.211  0.00  0.00    +0.007 A 
ATOM      3  C   LIG    1       69.812  49.955  94.882  0.00  0.00    +0.046 A 
ATOM      4  C   LIG    1       70.052  49.035  93.857  0.00  0.00    +0.121 A 
ATOM      5  C   LIG    1       70.201  47.689  94.189  0.00  0.00    +0.046 A 
ATOM      6  C   LIG    1       70.101  47.270  95.525  0.00  0.00    +0.007 A 
ENDROOT
BRANCH   1   7
ATOM      7  C   LIG    1       69.782  47.775  97.999  0.00  0.00    +0.059 C 
BRANCH   7  10
ATOM      8  O   LIG    1       67.174  49.091  99.426  0.00  0.00    -0.274 OA
ATOM      9  C   LIG    1       67.772  48.029  99.548  0.00  0.00    +0.234 C 
ATOM     10  C   LIG    1       68.407  47.236  98.417  0.00  0.00    +0.146 C 
ATOM     11  S   LIG    1       68.637  45.567  99.152  0.00  0.00    -0.054 S 
ATOM     12  C   LIG    1       68.263  46.113 100.768  0.00  0.00    +0.279 C 
ATOM     13  O   LIG    1       68.261  45.392 101.748  0.00  0.00    -0.263 OA
ATOM     14  N   LIG    1       67.929  47.424 100.756  0.00  0.00    -0.246 N 
ATOM     15  H   LIG    1       67.536  47.836 101.587  0.00  0.00    +0.158 HD
ENDBRANCH   7  10
ENDBRANCH   1   7
BRANCH   4  16
ATOM     16  O   LIG    1       70.165  49.353  92.519  0.00  0.00    -0.492 OA
BRANCH  16  17
ATOM     17  C   LIG    1       69.181  48.720  91.700  0.00  0.00    +0.235 C 
BRANCH  17  18
ATOM     18  C   LIG    1       67.748  49.145  92.012  0.00  0.00    +0.096 C 
BRANCH  18  19
ATOM     19  C   LIG    1       67.159  48.405  93.200  0.00  0.00    +0.045 A 
ATOM     20  C   LIG    1       66.923  47.029  93.192  0.00  0.00    +0.024 A 
ATOM     21  C   LIG    1       66.414  46.408  94.328  0.00  0.00    +0.007 A 
ATOM     22  C   LIG    1       66.126  47.156  95.466  0.00  0.00    -0.030 A 
ATOM     23  C   LIG    1       66.367  48.523  95.384  0.00  0.00    +0.114 A 
ATOM     24  N   LIG    1       66.871  49.154  94.291  0.00  0.00    -0.260 NA
BRANCH  22  25
ATOM     25  C   LIG    1       65.597  46.438  96.678  0.00  0.00    +0.033 C 
ATOM     26  C   LIG    1       66.078  45.011  96.897  0.00  0.00    +0.009 C 
ENDBRANCH  22  25
ENDBRANCH  18  19
ENDBRANCH  17  18
ENDBRANCH  16  17
ENDBRANCH   4  16
TORSDOF 7
ENDMDL
MODEL 7
REMARK VINA RESULT:      -5.7      1.875      3.060
REMARK  Name = 
REMARK                            x       y       z     vdW  Elec       q    Type
REMARK                         _______ _______ _______ _____ _____    ______ ____
ROOT
ATOM      1  C   LIG    1       67.811  47.168  94.199  0.00  0.00    -0.046 A 
ATOM      2  C   LIG    1       68.731  46.584  95.072  0.00  0.00    +0.007 A 
ATOM      3  C   LIG    1       68.312  45.684  96.050  0.00  0.00    +0.046 A 
ATOM      4  C   LIG    1       66.959  45.365  96.203  0.00  0.00    +0.121 A 
ATOM      5  C   LIG    1       66.033  45.957  95.345  0.00  0.00    +0.046 A 
ATOM      6  C   LIG    1       66.455  46.846  94.344  0.00  0.00    +0.007 A 
ENDROOT
BRANCH   1   7
ATOM      7  C   LIG    1       68.291  48.140  93.146  0.00  0.00    +0.059 C 
BRANCH   7  10
ATOM      8  O   LIG    1       70.783  50.205  93.449  0.00  0.00    -0.274 OA
ATOM      9  C   LIG    1       69.819  49.919  94.147  0.00  0.00    +0.234 C 
ATOM     10  C   LIG    1       68.425  49.587  93.639  0.00  0.00    +0.146 C 
ATOM     11  S   LIG    1       67.373  49.791  95.133  0.00  0.00    -0.054 S 
ATOM     12  C   LIG    1       68.744  49.915  96.208  0.00  0.00    +0.279 C 
ATOM     13  O   LIG    1       68.655  50.066  97.412  0.00  0.00    -0.263 OA
ATOM     14  N   LIG    1       69.899  49.873  95.505  0.00  0.00    -0.246 N 
ATOM     15  H   LIG    1       70.764  50.094  95.971  0.00  0.00    +0.158 HD
ENDBRANCH   7  10
ENDBRANCH   1   7
BRANCH   4  16
ATOM     16  O   LIG    1       66.452  44.506  97.155  0.00  0.00    -0.492 OA
BRANCH  16  17
ATOM     17  C   LIG    1       67.373  44.218  98.209  0.00  0.00    +0.235 C 
BRANCH  17  18
ATOM     18  C   LIG    1       66.916  44.705  99.582  0.00  0.00    +0.096 C 
BRANCH  18  19
ATOM     19  C   LIG    1       67.369  46.122  99.887  0.00  0.00    +0.045 A 
ATOM     20  C   LIG    1       66.609  47.245  99.557  0.00  0.00    +0.024 A 
ATOM     21  C   LIG    1       67.067  48.514  99.898  0.00  0.00    +0.007 A 
ATOM     22  C   LIG    1       68.287  48.666 100.552  0.00  0.00    -0.030 A 
ATOM     23  C   LIG    1       68.992  47.500 100.823  0.00  0.00    +0.114 A 
ATOM     24  N   LIG    1       68.565  46.248 100.509  0.00  0.00    -0.260 NA
BRANCH  22  25
ATOM     25  C   LIG    1       68.731  50.056 100.920  0.00  0.00    +0.033 C 
ATOM     26  C   LIG    1       69.904  50.173 101.882  0.00  0.00    +0.009 C 
ENDBRANCH  22  25
ENDBRANCH  18  19
ENDBRANCH  17  18
ENDBRANCH  16  17
ENDBRANCH   4  16
TORSDOF 7
ENDMDL
MODEL 8
REMARK VINA RESULT:      -5.1      2.225      6.837
REMARK  Name = 
REMARK                            x       y       z     vdW  Elec       q    Type
REMARK                         _______ _______ _______ _____ _____    ______ ____
ROOT
ATOM      1  C   LIG    1       69.402  47.421  97.259  0.00  0.00    -0.046 A 
ATOM      2  C   LIG    1       69.124  48.770  97.483  0.00  0.00    +0.007 A 
ATOM      3  C   LIG    1       69.409  49.727  96.510  0.00  0.00    +0.046 A 
ATOM      4  C   LIG    1       70.006  49.366  95.299  0.00  0.00    +0.121 A 
ATOM      5  C   LIG    1       70.301  48.022  95.074  0.00  0.00    +0.046 A 
ATOM      6  C   LIG    1       69.994  47.054  96.043  0.00  0.00    +0.007 A 
ENDROOT
BRANCH   1   7
ATOM      7  C   LIG    1       69.084  46.402  98.329  0.00  0.00    +0.059 C 
BRANCH   7  10
ATOM      8  O   LIG    1       69.222  46.155 101.567  0.00  0.00    -0.274 OA
ATOM      9  C   LIG    1       68.318  46.105 100.743  0.00  0.00    +0.234 C 
ATOM     10  C   LIG    1       68.225  46.944  99.479  0.00  0.00    +0.146 C 
ATOM     11  S   LIG    1       66.455  46.792  99.004  0.00  0.00    -0.054 S 
ATOM     12  C   LIG    1       66.149  45.515 100.154  0.00  0.00    +0.279 C 
ATOM     13  O   LIG    1       65.069  44.973 100.300  0.00  0.00    -0.263 OA
ATOM     14  N   LIG    1       67.259  45.262 100.884  0.00  0.00    -0.246 N 
ATOM     15  H   LIG    1       67.188  44.665 101.692  0.00  0.00    +0.158 HD
ENDBRANCH   7  10
ENDBRANCH   1   7
BRANCH   4  16
ATOM     16  O   LIG    1       70.344  50.245  94.291  0.00  0.00    -0.492 OA
BRANCH  16  17
ATOM     17  C   LIG    1       69.918  49.815  92.997  0.00  0.00    +0.235 C 
BRANCH  17  18
ATOM     18  C   LIG    1       68.408  49.887  92.785  0.00  0.00    +0.096 C 
BRANCH  18  19
ATOM     19  C   LIG    1       67.653  48.818  93.556  0.00  0.00    +0.045 A 
ATOM     20  C   LIG    1       66.844  49.110  94.655  0.00  0.00    +0.024 A 
ATOM     21  C   LIG    1       66.151  48.086  95.294  0.00  0.00    +0.007 A 
ATOM     22  C   LIG    1       66.276  46.773  94.851  0.00  0.00    -0.030 A 
ATOM     23  C   LIG    1       67.119  46.564  93.766  0.00  0.00    +0.114 A 
ATOM     24  N   LIG    1       67.800  47.546  93.118  0.00  0.00    -0.260 NA
BRANCH  22  25
ATOM     25  C   LIG    1       65.490  45.702  95.560  0.00  0.00    +0.033 C 
ATOM     26  C   LIG    1       66.283  44.559  96.175  0.00  0.00    +0.009 C 
ENDBRANCH  22  25
ENDBRANCH  18  19
ENDBRANCH  17  18
ENDBRANCH  16  17
ENDBRANCH   4  16
TORSDOF 7
ENDMDL
MODEL 9
REMARK VINA RESULT:      -5.1      1.754      2.160
REMARK  Name = 
REMARK                            x       y       z     vdW  Elec       q    Type
REMARK                         _______ _______ _______ _____ _____    ______ ____
ROOT
ATOM      1  C   LIG    1       68.267  48.020  96.018  0.00  0.00    -0.046 A 
ATOM      2  C   LIG    1       68.917  46.803  95.805  0.00  0.00    +0.007 A 
ATOM      3  C   LIG    1       68.327  45.603  96.195  0.00  0.00    +0.046 A 
ATOM      4  C   LIG    1       67.085  45.586  96.837  0.00  0.00    +0.121 A 
ATOM      5  C   LIG    1       66.437  46.799  97.068  0.00  0.00    +0.046 A 
ATOM      6  C   LIG    1       67.019  48.008  96.654  0.00  0.00    +0.007 A 
ENDROOT
BRANCH   1   7
ATOM      7  C   LIG    1       68.927  49.309  95.584  0.00  0.00    +0.059 C 
BRANCH   7  10
ATOM      8  O   LIG    1       66.396  48.673  93.646  0.00  0.00    -0.274 OA
ATOM      9  C   LIG    1       67.599  48.818  93.464  0.00  0.00    +0.234 C 
ATOM     10  C   LIG    1       68.493  49.804  94.198  0.00  0.00    +0.146 C 
ATOM     11  S   LIG    1       69.982  49.902  93.124  0.00  0.00    -0.054 S 
ATOM     12  C   LIG    1       69.493  48.540  92.146  0.00  0.00    +0.279 C 
ATOM     13  O   LIG    1       70.138  48.105  91.211  0.00  0.00    -0.263 OA
ATOM     14  N   LIG    1       68.283  48.085  92.544  0.00  0.00    -0.246 N 
ATOM     15  H   LIG    1       67.802  47.408  91.973  0.00  0.00    +0.158 HD
ENDBRANCH   7  10
ENDBRANCH   1   7
BRANCH   4  16
ATOM     16  O   LIG    1       66.438  44.451  97.278  0.00  0.00    -0.492 OA
BRANCH  16  17
ATOM     17  C   LIG    1       66.105  44.491  98.667  0.00  0.00    +0.235 C 
BRANCH  17  18
ATOM     18  C   LIG    1       67.317  44.520  99.595  0.00  0.00    +0.096 C 
BRANCH  18  19
ATOM     19  C   LIG    1       67.942  45.899  99.707  0.00  0.00    +0.045 A 
ATOM     20  C   LIG    1       69.268  46.157  99.356  0.00  0.00    +0.024 A 
ATOM     21  C   LIG    1       69.768  47.453  99.449  0.00  0.00    +0.007 A 
ATOM     22  C   LIG    1       68.955  48.486  99.906  0.00  0.00    -0.030 A 
ATOM     23  C   LIG    1       67.655  48.140 100.257  0.00  0.00    +0.114 A 
ATOM     24  N   LIG    1       67.139  46.886 100.168  0.00  0.00    -0.260 NA
BRANCH  22  25
ATOM     25  C   LIG    1       69.532  49.874  99.969  0.00  0.00    +0.033 C 
ATOM     26  C   LIG    1       69.334  50.760  98.748  0.00  0.00    +0.009 C 
ENDBRANCH  22  25
ENDBRANCH  18  19
ENDBRANCH  17  18
ENDBRANCH  16  17
ENDBRANCH   4  16
TORSDOF 7
ENDMDL
