MODEL 1
REMARK VINA RESULT:      -8.8      0.000      0.000
REMARK  Name = 
REMARK                            x       y       z     vdW  Elec       q    Type
REMARK                         _______ _______ _______ _____ _____    ______ ____
ROOT
ATOM      1  C   LIG    1       38.188  32.105   8.971  0.00  0.00    -0.046 A 
ATOM      2  C   LIG    1       37.411  33.022   9.681  0.00  0.00    +0.007 A 
ATOM      3  C   LIG    1       37.099  34.265   9.135  0.00  0.00    +0.046 A 
ATOM      4  C   LIG    1       37.579  34.639   7.876  0.00  0.00    +0.121 A 
ATOM      5  C   LIG    1       38.369  33.735   7.167  0.00  0.00    +0.046 A 
ATOM      6  C   LIG    1       38.665  32.473   7.706  0.00  0.00    +0.007 A 
ENDROOT
BRANCH   1   7
ATOM      7  C   LIG    1       38.513  30.762   9.585  0.00  0.00    +0.059 C 
BRANCH   7  10
ATOM      8  O   LIG    1       36.031  28.968   8.494  0.00  0.00    -0.274 OA
ATOM      9  C   LIG    1       37.170  28.717   8.866  0.00  0.00    +0.234 C 
ATOM     10  C   LIG    1       38.395  29.581   8.613  0.00  0.00    +0.146 C 
ATOM     11  S   LIG    1       39.794  28.430   8.927  0.00  0.00    -0.054 S 
ATOM     12  C   LIG    1       38.764  27.203   9.623  0.00  0.00    +0.279 C 
ATOM     13  O   LIG    1       39.165  26.136  10.047  0.00  0.00    -0.263 OA
ATOM     14  N   LIG    1       37.469  27.590   9.568  0.00  0.00    -0.246 N 
ATOM     15  H   LIG    1       36.748  26.920   9.785  0.00  0.00    +0.158 HD
ENDBRANCH   7  10
ENDBRANCH   1   7
BRANCH   4  16
ATOM     16  O   LIG    1       37.341  35.854   7.268  0.00  0.00    -0.492 OA
BRANCH  16  17
ATOM     17  C   LIG    1       38.302  36.184   6.263  0.00  0.00    +0.235 C 
BRANCH  17  18
ATOM     18  C   LIG    1       37.743  37.035   5.126  0.00  0.00    +0.096 C 
BRANCH  18  19
ATOM     19  C   LIG    1       36.696  36.306   4.302  0.00  0.00    +0.045 A 
ATOM     20  C   LIG    1       36.830  34.970   3.922  0.00  0.00    +0.024 A 
ATOM     21  C   LIG    1       35.815  34.352   3.198  0.00  0.00    +0.007 A 
ATOM     22  C   LIG    1       34.676  35.066   2.838  0.00  0.00    -0.030 A 
ATOM     23  C   LIG    1       34.631  36.397   3.235  0.00  0.00    +0.114 A 
ATOM     24  N   LIG    1       35.603  37.023   3.950  0.00  0.00    -0.260 NA
BRANCH  22  25
ATOM     25  C   LIG    1       33.596  34.349   2.074  0.00  0.00    +0.033 C 
ATOM     26  C   LIG    1       33.868  34.058   0.606  0.00  0.00    +0.009 C 
ENDBRANCH  22  25
ENDBRANCH  18  19
ENDBRANCH  17  18
ENDBRANCH  16  17
ENDBRANCH   4  16
TORSDOF 7
ENDMDL
MODEL 2
REMARK VINA RESULT:      -8.7      3.483     10.095
REMARK  Name = 
REMARK                            x       y       z     vdW  Elec       q    Type
REMARK                         _______ _______ _______ _____ _____    ______ ____
ROOT
ATOM      1  C   LIG    1       38.245  33.731   7.375  0.00  0.00    -0.046 A 
ATOM      2  C   LIG    1       37.610  33.027   8.400  0.00  0.00    +0.007 A 
ATOM      3  C   LIG    1       38.093  31.788   8.818  0.00  0.00    +0.046 A 
ATOM      4  C   LIG    1       39.205  31.205   8.204  0.00  0.00    +0.121 A 
ATOM      5  C   LIG    1       39.835  31.895   7.168  0.00  0.00    +0.046 A 
ATOM      6  C   LIG    1       39.364  33.153   6.762  0.00  0.00    +0.007 A 
ENDROOT
BRANCH   1   7
ATOM      7  C   LIG    1       37.702  35.073   6.940  0.00  0.00    +0.059 C 
BRANCH   7  10
ATOM      8  O   LIG    1       38.481  37.876   5.489  0.00  0.00    -0.274 OA
ATOM      9  C   LIG    1       37.775  36.922   5.186  0.00  0.00    +0.234 C 
ATOM     10  C   LIG    1       38.071  35.466   5.503  0.00  0.00    +0.146 C 
ATOM     11  S   LIG    1       36.969  34.552   4.350  0.00  0.00    -0.054 S 
ATOM     12  C   LIG    1       36.085  35.987   3.893  0.00  0.00    +0.279 C 
ATOM     13  O   LIG    1       35.162  35.996   3.101  0.00  0.00    -0.263 OA
ATOM     14  N   LIG    1       36.610  37.076   4.501  0.00  0.00    -0.246 N 
ATOM     15  H   LIG    1       36.308  37.992   4.210  0.00  0.00    +0.158 HD
ENDBRANCH   7  10
ENDBRANCH   1   7
BRANCH   4  16
ATOM     16  O   LIG    1       39.738  29.976   8.535  0.00  0.00    -0.492 OA
BRANCH  16  17
ATOM     17  C   LIG    1       41.077  30.051   9.027  0.00  0.00    +0.235 C 
BRANCH  17  18
ATOM     18  C   LIG    1       41.172  30.360  10.519  0.00  0.00    +0.096 C 
BRANCH  18  19
ATOM     19  C   LIG    1       41.243  29.109  11.377  0.00  0.00    +0.045 A 
ATOM     20  C   LIG    1       41.284  29.150  12.772  0.00  0.00    +0.024 A 
ATOM     21  C   LIG    1       41.312  27.964  13.498  0.00  0.00    +0.007 A 
ATOM     22  C   LIG    1       41.315  26.738  12.839  0.00  0.00    -0.030 A 
ATOM     23  C   LIG    1       41.297  26.784  11.450  0.00  0.00    +0.114 A 
ATOM     24  N   LIG    1       41.261  27.928  10.716  0.00  0.00    -0.260 NA
BRANCH  22  25
ATOM     25  C   LIG    1       41.324  25.482  13.667  0.00  0.00    +0.033 C 
ATOM     26  C   LIG    1       41.494  25.648  15.170  0.00  0.00    +0.009 C 
ENDBRANCH  22  25
ENDBRANCH  18  19
ENDBRANCH  17  18
ENDBRANCH  16  17
ENDBRANCH   4  16
TORSDOF 7
ENDMDL
MODEL 3
REMARK VINA RESULT:      -8.7      3.250      9.636
REMARK  Name = 
REMARK                            x       y       z     vdW  Elec       q    Type
REMARK                         _______ _______ _______ _____ _____    ______ ____
ROOT
ATOM      1  C   LIG    1       38.966  32.703   7.222  0.00  0.00    -0.046 A 
ATOM      2  C   LIG    1       40.022  31.796   7.321  0.00  0.00    +0.007 A 
ATOM      3  C   LIG    1       40.123  30.936   8.413  0.00  0.00    +0.046 A 
ATOM      4  C   LIG    1       39.187  30.979   9.452  0.00  0.00    +0.121 A 
ATOM      5  C   LIG    1       38.138  31.893   9.367  0.00  0.00    +0.046 A 
ATOM      6  C   LIG    1       38.022  32.744   8.257  0.00  0.00    +0.007 A 
ENDROOT
BRANCH   1   7
ATOM      7  C   LIG    1       38.878  33.624   6.027  0.00  0.00    +0.059 C 
BRANCH   7  10
ATOM      8  O   LIG    1       36.600  34.273   3.800  0.00  0.00    -0.274 OA
ATOM      9  C   LIG    1       37.225  34.950   4.607  0.00  0.00    +0.234 C 
ATOM     10  C   LIG    1       37.626  34.512   6.007  0.00  0.00    +0.146 C 
ATOM     11  S   LIG    1       38.026  36.098   6.845  0.00  0.00    -0.054 S 
ATOM     12  C   LIG    1       37.985  37.014   5.359  0.00  0.00    +0.279 C 
ATOM     13  O   LIG    1       38.195  38.210   5.289  0.00  0.00    -0.263 OA
ATOM     14  N   LIG    1       37.637  36.215   4.324  0.00  0.00    -0.246 N 
ATOM     15  H   LIG    1       37.416  36.635   3.435  0.00  0.00    +0.158 HD
ENDBRANCH   7  10
ENDBRANCH   1   7
BRANCH   4  16
ATOM     16  O   LIG    1       39.220  30.185  10.579  0.00  0.00    -0.492 OA
BRANCH  16  17
ATOM     17  C   LIG    1       38.199  29.186  10.600  0.00  0.00    +0.235 C 
BRANCH  17  18
ATOM     18  C   LIG    1       38.602  27.873   9.933  0.00  0.00    +0.096 C 
BRANCH  18  19
ATOM     19  C   LIG    1       40.087  27.580  10.058  0.00  0.00    +0.045 A 
ATOM     20  C   LIG    1       40.955  27.601   8.965  0.00  0.00    +0.024 A 
ATOM     21  C   LIG    1       42.312  27.358   9.155  0.00  0.00    +0.007 A 
ATOM     22  C   LIG    1       42.802  27.078  10.428  0.00  0.00    -0.030 A 
ATOM     23  C   LIG    1       41.868  27.053  11.457  0.00  0.00    +0.114 A 
ATOM     24  N   LIG    1       40.540  27.295  11.301  0.00  0.00    -0.260 NA
BRANCH  22  25
ATOM     25  C   LIG    1       44.280  26.843  10.588  0.00  0.00    +0.033 C 
ATOM     26  C   LIG    1       44.988  26.111   9.458  0.00  0.00    +0.009 C 
ENDBRANCH  22  25
ENDBRANCH  18  19
ENDBRANCH  17  18
ENDBRANCH  16  17
ENDBRANCH   4  16
TORSDOF 7
ENDMDL
MODEL 4
REMARK VINA RESULT:      -8.6      3.122      9.569
REMARK  Name = 
REMARK                            x       y       z     vdW  Elec       q    Type
REMARK                         _______ _______ _______ _____ _____    ______ ____
ROOT
ATOM      1  C   LIG    1       38.238  33.544   7.220  0.00  0.00    -0.046 A 
ATOM      2  C   LIG    1       37.456  32.727   8.038  0.00  0.00    +0.007 A 
ATOM      3  C   LIG    1       37.862  31.430   8.346  0.00  0.00    +0.046 A 
ATOM      4  C   LIG    1       39.046  30.902   7.822  0.00  0.00    +0.121 A 
ATOM      5  C   LIG    1       39.825  31.707   6.992  0.00  0.00    +0.046 A 
ATOM      6  C   LIG    1       39.430  33.022   6.699  0.00  0.00    +0.007 A 
ENDROOT
BRANCH   1   7
ATOM      7  C   LIG    1       37.777  34.948   6.901  0.00  0.00    +0.059 C 
BRANCH   7  10
ATOM      8  O   LIG    1       38.460  37.829   5.561  0.00  0.00    -0.274 OA
ATOM      9  C   LIG    1       37.772  36.872   5.228  0.00  0.00    +0.234 C 
ATOM     10  C   LIG    1       38.109  35.411   5.477  0.00  0.00    +0.146 C 
ATOM     11  S   LIG    1       37.008  34.520   4.305  0.00  0.00    -0.054 S 
ATOM     12  C   LIG    1       36.081  35.951   3.927  0.00  0.00    +0.279 C 
ATOM     13  O   LIG    1       35.143  35.971   3.152  0.00  0.00    -0.263 OA
ATOM     14  N   LIG    1       36.590  37.026   4.571  0.00  0.00    -0.246 N 
ATOM     15  H   LIG    1       36.261  37.946   4.326  0.00  0.00    +0.158 HD
ENDBRANCH   7  10
ENDBRANCH   1   7
BRANCH   4  16
ATOM     16  O   LIG    1       39.514  29.625   8.053  0.00  0.00    -0.492 OA
BRANCH  16  17
ATOM     17  C   LIG    1       38.507  28.620   7.926  0.00  0.00    +0.235 C 
BRANCH  17  18
ATOM     18  C   LIG    1       38.352  27.737   9.161  0.00  0.00    +0.096 C 
BRANCH  18  19
ATOM     19  C   LIG    1       39.317  28.105  10.275  0.00  0.00    +0.045 A 
ATOM     20  C   LIG    1       39.074  29.148  11.170  0.00  0.00    +0.024 A 
ATOM     21  C   LIG    1       39.983  29.409  12.191  0.00  0.00    +0.007 A 
ATOM     22  C   LIG    1       41.141  28.645  12.309  0.00  0.00    -0.030 A 
ATOM     23  C   LIG    1       41.320  27.643  11.363  0.00  0.00    +0.114 A 
ATOM     24  N   LIG    1       40.444  27.361  10.363  0.00  0.00    -0.260 NA
BRANCH  22  25
ATOM     25  C   LIG    1       42.085  28.951  13.441  0.00  0.00    +0.033 C 
ATOM     26  C   LIG    1       43.457  29.491  13.067  0.00  0.00    +0.009 C 
ENDBRANCH  22  25
ENDBRANCH  18  19
ENDBRANCH  17  18
ENDBRANCH  16  17
ENDBRANCH   4  16
TORSDOF 7
ENDMDL
MODEL 5
REMARK VINA RESULT:      -8.5      2.759      9.587
REMARK  Name = 
REMARK                            x       y       z     vdW  Elec       q    Type
REMARK                         _______ _______ _______ _____ _____    ______ ____
ROOT
ATOM      1  C   LIG    1       38.025  34.379   7.478  0.00  0.00    -0.046 A 
ATOM      2  C   LIG    1       37.268  34.015   8.593  0.00  0.00    +0.007 A 
ATOM      3  C   LIG    1       37.468  32.787   9.220  0.00  0.00    +0.046 A 
ATOM      4  C   LIG    1       38.408  31.875   8.733  0.00  0.00    +0.121 A 
ATOM      5  C   LIG    1       39.157  32.224   7.610  0.00  0.00    +0.046 A 
ATOM      6  C   LIG    1       38.974  33.470   6.990  0.00  0.00    +0.007 A 
ENDROOT
BRANCH   1   7
ATOM      7  C   LIG    1       37.790  35.717   6.815  0.00  0.00    +0.059 C 
BRANCH   7  10
ATOM      8  O   LIG    1       38.307  38.063   4.625  0.00  0.00    -0.274 OA
ATOM      9  C   LIG    1       37.651  37.029   4.633  0.00  0.00    +0.234 C 
ATOM     10  C   LIG    1       38.058  35.727   5.304  0.00  0.00    +0.146 C 
ATOM     11  S   LIG    1       36.960  34.484   4.511  0.00  0.00    -0.054 S 
ATOM     12  C   LIG    1       35.962  35.698   3.751  0.00  0.00    +0.279 C 
ATOM     13  O   LIG    1       35.001  35.449   3.048  0.00  0.00    -0.263 OA
ATOM     14  N   LIG    1       36.445  36.935   4.011  0.00  0.00    -0.246 N 
ATOM     15  H   LIG    1       36.068  37.723   3.509  0.00  0.00    +0.158 HD
ENDBRANCH   7  10
ENDBRANCH   1   7
BRANCH   4  16
ATOM     16  O   LIG    1       38.657  30.630   9.274  0.00  0.00    -0.492 OA
BRANCH  16  17
ATOM     17  C   LIG    1       37.830  29.600   8.730  0.00  0.00    +0.235 C 
BRANCH  17  18
ATOM     18  C   LIG    1       38.607  28.476   8.048  0.00  0.00    +0.096 C 
BRANCH  18  19
ATOM     19  C   LIG    1       39.423  27.646   9.024  0.00  0.00    +0.045 A 
ATOM     20  C   LIG    1       38.855  26.668   9.842  0.00  0.00    +0.024 A 
ATOM     21  C   LIG    1       39.666  25.918  10.688  0.00  0.00    +0.007 A 
ATOM     22  C   LIG    1       41.037  26.152  10.732  0.00  0.00    -0.030 A 
ATOM     23  C   LIG    1       41.520  27.159   9.904  0.00  0.00    +0.114 A 
ATOM     24  N   LIG    1       40.752  27.900   9.063  0.00  0.00    -0.260 NA
BRANCH  22  25
ATOM     25  C   LIG    1       41.877  25.302  11.647  0.00  0.00    +0.033 C 
ATOM     26  C   LIG    1       41.317  25.019  13.033  0.00  0.00    +0.009 C 
ENDBRANCH  22  25
ENDBRANCH  18  19
ENDBRANCH  17  18
ENDBRANCH  16  17
ENDBRANCH   4  16
TORSDOF 7
ENDMDL
MODEL 6
REMARK VINA RESULT:      -8.5      3.558      6.144
REMARK  Name = 
REMARK                            x       y       z     vdW  Elec       q    Type
REMARK                         _______ _______ _______ _____ _____    ______ ____
ROOT
ATOM      1  C   LIG    1       42.556  27.355  10.315  0.00  0.00    -0.046 A 
ATOM      2  C   LIG    1       42.301  27.244   8.947  0.00  0.00    +0.007 A 
ATOM      3  C   LIG    1       41.664  28.272   8.256  0.00  0.00    +0.046 A 
ATOM      4  C   LIG    1       41.237  29.428   8.917  0.00  0.00    +0.121 A 
ATOM      5  C   LIG    1       41.473  29.539  10.287  0.00  0.00    +0.046 A 
ATOM      6  C   LIG    1       42.136  28.514  10.981  0.00  0.00    +0.007 A 
ENDROOT
BRANCH   1   7
ATOM      7  C   LIG    1       43.250  26.226  11.043  0.00  0.00    +0.059 C 
BRANCH   7  10
ATOM      8  O   LIG    1       40.050  25.694  10.824  0.00  0.00    -0.274 OA
ATOM      9  C   LIG    1       40.860  25.674  11.742  0.00  0.00    +0.234 C 
ATOM     10  C   LIG    1       42.296  25.185  11.645  0.00  0.00    +0.146 C 
ATOM     11  S   LIG    1       42.768  24.915  13.402  0.00  0.00    -0.054 S 
ATOM     12  C   LIG    1       41.343  25.716  14.016  0.00  0.00    +0.279 C 
ATOM     13  O   LIG    1       41.097  25.858  15.198  0.00  0.00    -0.263 OA
ATOM     14  N   LIG    1       40.543  26.100  12.995  0.00  0.00    -0.246 N 
ATOM     15  H   LIG    1       39.613  26.430  13.200  0.00  0.00    +0.158 HD
ENDBRANCH   7  10
ENDBRANCH   1   7
BRANCH   4  16
ATOM     16  O   LIG    1       40.579  30.483   8.321  0.00  0.00    -0.492 OA
BRANCH  16  17
ATOM     17  C   LIG    1       39.171  30.278   8.197  0.00  0.00    +0.235 C 
BRANCH  17  18
ATOM     18  C   LIG    1       38.327  31.267   8.997  0.00  0.00    +0.096 C 
BRANCH  18  19
ATOM     19  C   LIG    1       38.183  32.613   8.308  0.00  0.00    +0.045 A 
ATOM     20  C   LIG    1       37.389  33.641   8.818  0.00  0.00    +0.024 A 
ATOM     21  C   LIG    1       37.331  34.863   8.155  0.00  0.00    +0.007 A 
ATOM     22  C   LIG    1       38.047  35.056   6.977  0.00  0.00    -0.030 A 
ATOM     23  C   LIG    1       38.793  33.974   6.524  0.00  0.00    +0.114 A 
ATOM     24  N   LIG    1       38.876  32.774   7.156  0.00  0.00    -0.260 NA
BRANCH  22  25
ATOM     25  C   LIG    1       37.969  36.401   6.306  0.00  0.00    +0.033 C 
ATOM     26  C   LIG    1       37.252  36.462   4.966  0.00  0.00    +0.009 C 
ENDBRANCH  22  25
ENDBRANCH  18  19
ENDBRANCH  17  18
ENDBRANCH  16  17
ENDBRANCH   4  16
TORSDOF 7
ENDMDL
MODEL 7
REMARK VINA RESULT:      -8.4      3.884      9.989
REMARK  Name = 
REMARK                            x       y       z     vdW  Elec       q    Type
REMARK                         _______ _______ _______ _____ _____    ______ ____
ROOT
ATOM      1  C   LIG    1       38.940  32.671   7.158  0.00  0.00    -0.046 A 
ATOM      2  C   LIG    1       37.942  32.688   8.133  0.00  0.00    +0.007 A 
ATOM      3  C   LIG    1       37.969  31.786   9.196  0.00  0.00    +0.046 A 
ATOM      4  C   LIG    1       38.978  30.823   9.296  0.00  0.00    +0.121 A 
ATOM      5  C   LIG    1       39.969  30.790   8.316  0.00  0.00    +0.046 A 
ATOM      6  C   LIG    1       39.957  31.713   7.259  0.00  0.00    +0.007 A 
ENDROOT
BRANCH   1   7
ATOM      7  C   LIG    1       38.889  33.661   6.016  0.00  0.00    +0.059 C 
BRANCH   7  10
ATOM      8  O   LIG    1       36.588  34.305   3.811  0.00  0.00    -0.274 OA
ATOM      9  C   LIG    1       37.221  34.983   4.610  0.00  0.00    +0.234 C 
ATOM     10  C   LIG    1       37.637  34.548   6.006  0.00  0.00    +0.146 C 
ATOM     11  S   LIG    1       38.045  36.136   6.838  0.00  0.00    -0.054 S 
ATOM     12  C   LIG    1       37.988  37.048   5.350  0.00  0.00    +0.279 C 
ATOM     13  O   LIG    1       38.197  38.245   5.275  0.00  0.00    -0.263 OA
ATOM     14  N   LIG    1       37.630  36.248   4.320  0.00  0.00    -0.246 N 
ATOM     15  H   LIG    1       37.400  36.665   3.432  0.00  0.00    +0.158 HD
ENDBRANCH   7  10
ENDBRANCH   1   7
BRANCH   4  16
ATOM     16  O   LIG    1       39.072  29.878  10.297  0.00  0.00    -0.492 OA
BRANCH  16  17
ATOM     17  C   LIG    1       39.152  28.539   9.806  0.00  0.00    +0.235 C 
BRANCH  17  18
ATOM     18  C   LIG    1       39.821  27.564  10.772  0.00  0.00    +0.096 C 
BRANCH  18  19
ATOM     19  C   LIG    1       40.928  28.207  11.587  0.00  0.00    +0.045 A 
ATOM     20  C   LIG    1       40.768  28.570  12.925  0.00  0.00    +0.024 A 
ATOM     21  C   LIG    1       41.836  29.122  13.625  0.00  0.00    +0.007 A 
ATOM     22  C   LIG    1       43.057  29.329  12.990  0.00  0.00    -0.030 A 
ATOM     23  C   LIG    1       43.127  28.963  11.650  0.00  0.00    +0.114 A 
ATOM     24  N   LIG    1       42.103  28.414  10.946  0.00  0.00    -0.260 NA
BRANCH  22  25
ATOM     25  C   LIG    1       44.190  29.910  13.792  0.00  0.00    +0.033 C 
ATOM     26  C   LIG    1       45.368  30.477  13.013  0.00  0.00    +0.009 C 
ENDBRANCH  22  25
ENDBRANCH  18  19
ENDBRANCH  17  18
ENDBRANCH  16  17
ENDBRANCH   4  16
TORSDOF 7
ENDMDL
MODEL 8
REMARK VINA RESULT:      -8.3      1.931      2.291
REMARK  Name = 
REMARK                            x       y       z     vdW  Elec       q    Type
REMARK                         _______ _______ _______ _____ _____    ______ ____
ROOT
ATOM      1  C   LIG    1       38.741  31.815   8.453  0.00  0.00    -0.046 A 
ATOM      2  C   LIG    1       39.308  32.342   7.292  0.00  0.00    +0.007 A 
ATOM      3  C   LIG    1       38.871  33.560   6.776  0.00  0.00    +0.046 A 
ATOM      4  C   LIG    1       37.833  34.271   7.387  0.00  0.00    +0.121 A 
ATOM      5  C   LIG    1       37.251  33.742   8.539  0.00  0.00    +0.046 A 
ATOM      6  C   LIG    1       37.706  32.527   9.074  0.00  0.00    +0.007 A 
ENDROOT
BRANCH   1   7
ATOM      7  C   LIG    1       39.234  30.492   8.995  0.00  0.00    +0.059 C 
BRANCH   7  10
ATOM      8  O   LIG    1       41.453  29.536   6.821  0.00  0.00    -0.274 OA
ATOM      9  C   LIG    1       41.285  29.336   8.018  0.00  0.00    +0.234 C 
ATOM     10  C   LIG    1       40.762  30.352   9.020  0.00  0.00    +0.146 C 
ATOM     11  S   LIG    1       41.252  29.635  10.640  0.00  0.00    -0.054 S 
ATOM     12  C   LIG    1       41.707  28.101   9.941  0.00  0.00    +0.279 C 
ATOM     13  O   LIG    1       42.135  27.160  10.582  0.00  0.00    -0.263 OA
ATOM     14  N   LIG    1       41.568  28.137   8.596  0.00  0.00    -0.246 N 
ATOM     15  H   LIG    1       41.943  27.382   8.045  0.00  0.00    +0.158 HD
ENDBRANCH   7  10
ENDBRANCH   1   7
BRANCH   4  16
ATOM     16  O   LIG    1       37.321  35.469   6.935  0.00  0.00    -0.492 OA
BRANCH  16  17
ATOM     17  C   LIG    1       38.040  36.011   5.826  0.00  0.00    +0.235 C 
BRANCH  17  18
ATOM     18  C   LIG    1       37.214  36.951   4.951  0.00  0.00    +0.096 C 
BRANCH  18  19
ATOM     19  C   LIG    1       36.229  36.215   4.060  0.00  0.00    +0.045 A 
ATOM     20  C   LIG    1       36.445  34.911   3.612  0.00  0.00    +0.024 A 
ATOM     21  C   LIG    1       35.484  34.282   2.826  0.00  0.00    +0.007 A 
ATOM     22  C   LIG    1       34.317  34.955   2.474  0.00  0.00    -0.030 A 
ATOM     23  C   LIG    1       34.191  36.258   2.941  0.00  0.00    +0.114 A 
ATOM     24  N   LIG    1       35.109  36.893   3.716  0.00  0.00    -0.260 NA
BRANCH  22  25
ATOM     25  C   LIG    1       33.297  34.227   1.640  0.00  0.00    +0.033 C 
ATOM     26  C   LIG    1       33.777  33.638   0.322  0.00  0.00    +0.009 C 
ENDBRANCH  22  25
ENDBRANCH  18  19
ENDBRANCH  17  18
ENDBRANCH  16  17
ENDBRANCH   4  16
TORSDOF 7
ENDMDL
MODEL 9
REMARK VINA RESULT:      -8.2      3.455      5.448
REMARK  Name = 
REMARK                            x       y       z     vdW  Elec       q    Type
REMARK                         _______ _______ _______ _____ _____    ______ ____
ROOT
ATOM      1  C   LIG    1       40.929  29.132  12.014  0.00  0.00    -0.046 A 
ATOM      2  C   LIG    1       39.567  29.335  11.785  0.00  0.00    +0.007 A 
ATOM      3  C   LIG    1       39.132  30.108  10.711  0.00  0.00    +0.046 A 
ATOM      4  C   LIG    1       40.047  30.725   9.852  0.00  0.00    +0.121 A 
ATOM      5  C   LIG    1       41.409  30.540  10.083  0.00  0.00    +0.046 A 
ATOM      6  C   LIG    1       41.849  29.743  11.151  0.00  0.00    +0.007 A 
ENDROOT
BRANCH   1   7
ATOM      7  C   LIG    1       41.375  28.289  13.186  0.00  0.00    +0.059 C 
BRANCH   7  10
ATOM      8  O   LIG    1       42.334  25.614  14.765  0.00  0.00    -0.274 OA
ATOM      9  C   LIG    1       42.164  25.897  13.586  0.00  0.00    +0.234 C 
ATOM     10  C   LIG    1       41.064  26.793  13.041  0.00  0.00    +0.146 C 
ATOM     11  S   LIG    1       41.033  26.379  11.249  0.00  0.00    -0.054 S 
ATOM     12  C   LIG    1       42.519  25.465  11.330  0.00  0.00    +0.279 C 
ATOM     13  O   LIG    1       43.034  24.915  10.374  0.00  0.00    -0.263 OA
ATOM     14  N   LIG    1       42.972  25.414  12.603  0.00  0.00    -0.246 N 
ATOM     15  H   LIG    1       43.730  24.789  12.829  0.00  0.00    +0.158 HD
ENDBRANCH   7  10
ENDBRANCH   1   7
BRANCH   4  16
ATOM     16  O   LIG    1       39.710  31.525   8.779  0.00  0.00    -0.492 OA
BRANCH  16  17
ATOM     17  C   LIG    1       38.431  31.216   8.221  0.00  0.00    +0.235 C 
BRANCH  17  18
ATOM     18  C   LIG    1       37.372  32.287   8.468  0.00  0.00    +0.096 C 
BRANCH  18  19
ATOM     19  C   LIG    1       37.622  33.559   7.677  0.00  0.00    +0.045 A 
ATOM     20  C   LIG    1       38.109  33.551   6.369  0.00  0.00    +0.024 A 
ATOM     21  C   LIG    1       38.281  34.752   5.689  0.00  0.00    +0.007 A 
ATOM     22  C   LIG    1       37.987  35.961   6.314  0.00  0.00    -0.030 A 
ATOM     23  C   LIG    1       37.530  35.883   7.624  0.00  0.00    +0.114 A 
ATOM     24  N   LIG    1       37.344  34.724   8.309  0.00  0.00    -0.260 NA
BRANCH  22  25
ATOM     25  C   LIG    1       38.169  37.233   5.531  0.00  0.00    +0.033 C 
ATOM     26  C   LIG    1       37.698  37.226   4.085  0.00  0.00    +0.009 C 
ENDBRANCH  22  25
ENDBRANCH  18  19
ENDBRANCH  17  18
ENDBRANCH  16  17
ENDBRANCH   4  16
TORSDOF 7
ENDMDL
