MODEL 1
REMARK VINA RESULT:      -8.3      0.000      0.000
REMARK  Name = 
REMARK                            x       y       z     vdW  Elec       q    Type
REMARK                         _______ _______ _______ _____ _____    ______ ____
ROOT
ATOM      1  C   LIG    1        9.546  -4.413  28.008  0.00  0.00    -0.046 A 
ATOM      2  C   LIG    1       10.675  -4.019  27.288  0.00  0.00    +0.007 A 
ATOM      3  C   LIG    1       10.575  -3.662  25.945  0.00  0.00    +0.046 A 
ATOM      4  C   LIG    1        9.348  -3.718  25.275  0.00  0.00    +0.121 A 
ATOM      5  C   LIG    1        8.219  -4.126  25.984  0.00  0.00    +0.046 A 
ATOM      6  C   LIG    1        8.314  -4.463  27.343  0.00  0.00    +0.007 A 
ENDROOT
BRANCH   1   7
ATOM      7  C   LIG    1        9.681  -4.795  29.465  0.00  0.00    +0.059 C 
BRANCH   7  10
ATOM      8  O   LIG    1       11.206  -3.830  32.168  0.00  0.00    -0.274 OA
ATOM      9  C   LIG    1       10.032  -3.914  31.832  0.00  0.00    +0.234 C 
ATOM     10  C   LIG    1        9.487  -3.628  30.442  0.00  0.00    +0.146 C 
ATOM     11  S   LIG    1        7.684  -3.410  30.734  0.00  0.00    -0.054 S 
ATOM     12  C   LIG    1        7.774  -4.002  32.374  0.00  0.00    +0.279 C 
ATOM     13  O   LIG    1        6.815  -4.098  33.118  0.00  0.00    -0.263 OA
ATOM     14  N   LIG    1        9.055  -4.282  32.705  0.00  0.00    -0.246 N 
ATOM     15  H   LIG    1        9.281  -4.479  33.667  0.00  0.00    +0.158 HD
ENDBRANCH   7  10
ENDBRANCH   1   7
BRANCH   4  16
ATOM     16  O   LIG    1        9.159  -3.406  23.945  0.00  0.00    -0.492 OA
BRANCH  16  17
ATOM     17  C   LIG    1        8.059  -4.098  23.351  0.00  0.00    +0.235 C 
BRANCH  17  18
ATOM     18  C   LIG    1        8.447  -4.978  22.166  0.00  0.00    +0.096 C 
BRANCH  18  19
ATOM     19  C   LIG    1        8.939  -4.178  20.973  0.00  0.00    +0.045 A 
ATOM     20  C   LIG    1       10.121  -4.483  20.295  0.00  0.00    +0.024 A 
ATOM     21  C   LIG    1       10.495  -3.730  19.186  0.00  0.00    +0.007 A 
ATOM     22  C   LIG    1        9.705  -2.666  18.763  0.00  0.00    -0.030 A 
ATOM     23  C   LIG    1        8.558  -2.413  19.506  0.00  0.00    +0.114 A 
ATOM     24  N   LIG    1        8.164  -3.137  20.587  0.00  0.00    -0.260 NA
BRANCH  22  25
ATOM     25  C   LIG    1       10.140  -1.894  17.546  0.00  0.00    +0.033 C 
ATOM     26  C   LIG    1       10.933  -2.655  16.494  0.00  0.00    +0.009 C 
ENDBRANCH  22  25
ENDBRANCH  18  19
ENDBRANCH  17  18
ENDBRANCH  16  17
ENDBRANCH   4  16
TORSDOF 7
ENDMDL
MODEL 2
REMARK VINA RESULT:      -8.2      1.543      2.433
REMARK  Name = 
REMARK                            x       y       z     vdW  Elec       q    Type
REMARK                         _______ _______ _______ _____ _____    ______ ____
ROOT
ATOM      1  C   LIG    1        9.454  -4.471  28.021  0.00  0.00    -0.046 A 
ATOM      2  C   LIG    1        8.219  -4.760  27.439  0.00  0.00    +0.007 A 
ATOM      3  C   LIG    1        7.975  -4.461  26.100  0.00  0.00    +0.046 A 
ATOM      4  C   LIG    1        8.948  -3.837  25.313  0.00  0.00    +0.121 A 
ATOM      5  C   LIG    1       10.179  -3.531  25.892  0.00  0.00    +0.046 A 
ATOM      6  C   LIG    1       10.435  -3.853  27.234  0.00  0.00    +0.007 A 
ENDROOT
BRANCH   1   7
ATOM      7  C   LIG    1        9.695  -4.807  29.475  0.00  0.00    +0.059 C 
BRANCH   7  10
ATOM      8  O   LIG    1       11.186  -3.787  32.178  0.00  0.00    -0.274 OA
ATOM      9  C   LIG    1       10.016  -3.892  31.834  0.00  0.00    +0.234 C 
ATOM     10  C   LIG    1        9.477  -3.631  30.437  0.00  0.00    +0.146 C 
ATOM     11  S   LIG    1        7.669  -3.435  30.713  0.00  0.00    -0.054 S 
ATOM     12  C   LIG    1        7.755  -4.007  32.361  0.00  0.00    +0.279 C 
ATOM     13  O   LIG    1        6.793  -4.108  33.098  0.00  0.00    -0.263 OA
ATOM     14  N   LIG    1        9.038  -4.263  32.704  0.00  0.00    -0.246 N 
ATOM     15  H   LIG    1        9.259  -4.446  33.670  0.00  0.00    +0.158 HD
ENDBRANCH   7  10
ENDBRANCH   1   7
BRANCH   4  16
ATOM     16  O   LIG    1        8.788  -3.483  23.989  0.00  0.00    -0.492 OA
BRANCH  16  17
ATOM     17  C   LIG    1        9.585  -4.260  23.093  0.00  0.00    +0.235 C 
BRANCH  17  18
ATOM     18  C   LIG    1        8.791  -4.907  21.960  0.00  0.00    +0.096 C 
BRANCH  18  19
ATOM     19  C   LIG    1        7.925  -3.915  21.205  0.00  0.00    +0.045 A 
ATOM     20  C   LIG    1        8.442  -3.027  20.261  0.00  0.00    +0.024 A 
ATOM     21  C   LIG    1        7.585  -2.168  19.578  0.00  0.00    +0.007 A 
ATOM     22  C   LIG    1        6.220  -2.182  19.846  0.00  0.00    -0.030 A 
ATOM     23  C   LIG    1        5.789  -3.078  20.817  0.00  0.00    +0.114 A 
ATOM     24  N   LIG    1        6.602  -3.934  21.492  0.00  0.00    -0.260 NA
BRANCH  22  25
ATOM     25  C   LIG    1        5.330  -1.250  19.068  0.00  0.00    +0.033 C 
ATOM     26  C   LIG    1        4.070  -1.847  18.461  0.00  0.00    +0.009 C 
ENDBRANCH  22  25
ENDBRANCH  18  19
ENDBRANCH  17  18
ENDBRANCH  16  17
ENDBRANCH   4  16
TORSDOF 7
ENDMDL
MODEL 3
REMARK VINA RESULT:      -8.2      7.899     10.935
REMARK  Name = 
REMARK                            x       y       z     vdW  Elec       q    Type
REMARK                         _______ _______ _______ _____ _____    ______ ____
ROOT
ATOM      1  C   LIG    1        6.315  -1.849  19.370  0.00  0.00    -0.046 A 
ATOM      2  C   LIG    1        6.176  -1.465  20.705  0.00  0.00    +0.007 A 
ATOM      3  C   LIG    1        5.130  -0.636  21.103  0.00  0.00    +0.046 A 
ATOM      4  C   LIG    1        4.209  -0.142  20.173  0.00  0.00    +0.121 A 
ATOM      5  C   LIG    1        4.351  -0.508  18.835  0.00  0.00    +0.046 A 
ATOM      6  C   LIG    1        5.391  -1.362  18.436  0.00  0.00    +0.007 A 
ENDROOT
BRANCH   1   7
ATOM      7  C   LIG    1        7.459  -2.750  18.964  0.00  0.00    +0.059 C 
BRANCH   7  10
ATOM      8  O   LIG    1        9.236  -0.029  18.995  0.00  0.00    -0.274 OA
ATOM      9  C   LIG    1        9.493  -1.217  18.850  0.00  0.00    +0.234 C 
ATOM     10  C   LIG    1        8.812  -2.366  19.576  0.00  0.00    +0.146 C 
ATOM     11  S   LIG    1        9.978  -3.767  19.334  0.00  0.00    -0.054 S 
ATOM     12  C   LIG    1       10.929  -2.905  18.150  0.00  0.00    +0.279 C 
ATOM     13  O   LIG    1       11.906  -3.369  17.591  0.00  0.00    -0.263 OA
ATOM     14  N   LIG    1       10.458  -1.648  17.992  0.00  0.00    -0.246 N 
ATOM     15  H   LIG    1       11.001  -0.984  17.463  0.00  0.00    +0.158 HD
ENDBRANCH   7  10
ENDBRANCH   1   7
BRANCH   4  16
ATOM     16  O   LIG    1        3.159   0.701  20.470  0.00  0.00    -0.492 OA
BRANCH  16  17
ATOM     17  C   LIG    1        3.045   0.995  21.864  0.00  0.00    +0.235 C 
BRANCH  17  18
ATOM     18  C   LIG    1        1.632   0.832  22.419  0.00  0.00    +0.096 C 
BRANCH  18  19
ATOM     19  C   LIG    1        1.415  -0.509  23.097  0.00  0.00    +0.045 A 
ATOM     20  C   LIG    1        0.959  -0.625  24.411  0.00  0.00    +0.024 A 
ATOM     21  C   LIG    1        0.747  -1.886  24.961  0.00  0.00    +0.007 A 
ATOM     22  C   LIG    1        1.006  -3.030  24.210  0.00  0.00    -0.030 A 
ATOM     23  C   LIG    1        1.481  -2.827  22.920  0.00  0.00    +0.114 A 
ATOM     24  N   LIG    1        1.688  -1.608  22.356  0.00  0.00    -0.260 NA
BRANCH  22  25
ATOM     25  C   LIG    1        0.743  -4.371  24.840  0.00  0.00    +0.033 C 
ATOM     26  C   LIG    1       -0.287  -5.261  24.160  0.00  0.00    +0.009 C 
ENDBRANCH  22  25
ENDBRANCH  18  19
ENDBRANCH  17  18
ENDBRANCH  16  17
ENDBRANCH   4  16
TORSDOF 7
ENDMDL
MODEL 4
REMARK VINA RESULT:      -8.1      7.503     10.646
REMARK  Name = 
REMARK                            x       y       z     vdW  Elec       q    Type
REMARK                         _______ _______ _______ _____ _____    ______ ____
ROOT
ATOM      1  C   LIG    1        7.779  -2.138  19.555  0.00  0.00    -0.046 A 
ATOM      2  C   LIG    1        7.674  -2.912  20.712  0.00  0.00    +0.007 A 
ATOM      3  C   LIG    1        6.450  -3.063  21.360  0.00  0.00    +0.046 A 
ATOM      4  C   LIG    1        5.301  -2.421  20.887  0.00  0.00    +0.121 A 
ATOM      5  C   LIG    1        5.401  -1.633  19.741  0.00  0.00    +0.046 A 
ATOM      6  C   LIG    1        6.629  -1.498  19.074  0.00  0.00    +0.007 A 
ENDROOT
BRANCH   1   7
ATOM      7  C   LIG    1        9.118  -1.990  18.870  0.00  0.00    +0.059 C 
BRANCH   7  10
ATOM      8  O   LIG    1       11.027  -4.291  20.146  0.00  0.00    -0.274 OA
ATOM      9  C   LIG    1       10.975  -3.727  19.060  0.00  0.00    +0.234 C 
ATOM     10  C   LIG    1        9.704  -3.306  18.341  0.00  0.00    +0.146 C 
ATOM     11  S   LIG    1       10.268  -3.037  16.612  0.00  0.00    -0.054 S 
ATOM     12  C   LIG    1       11.958  -3.136  17.039  0.00  0.00    +0.279 C 
ATOM     13  O   LIG    1       12.870  -3.019  16.242  0.00  0.00    -0.263 OA
ATOM     14  N   LIG    1       12.096  -3.413  18.356  0.00  0.00    -0.246 N 
ATOM     15  H   LIG    1       13.006  -3.657  18.712  0.00  0.00    +0.158 HD
ENDBRANCH   7  10
ENDBRANCH   1   7
BRANCH   4  16
ATOM     16  O   LIG    1        4.055  -2.494  21.475  0.00  0.00    -0.492 OA
BRANCH  16  17
ATOM     17  C   LIG    1        3.007  -1.984  20.648  0.00  0.00    +0.235 C 
BRANCH  17  18
ATOM     18  C   LIG    1        1.821  -1.423  21.427  0.00  0.00    +0.096 C 
BRANCH  18  19
ATOM     19  C   LIG    1        2.004   0.034  21.813  0.00  0.00    +0.045 A 
ATOM     20  C   LIG    1        1.112   0.714  22.644  0.00  0.00    +0.024 A 
ATOM     21  C   LIG    1        1.360   2.039  22.987  0.00  0.00    +0.007 A 
ATOM     22  C   LIG    1        2.483   2.693  22.491  0.00  0.00    -0.030 A 
ATOM     23  C   LIG    1        3.308   1.954  21.651  0.00  0.00    +0.114 A 
ATOM     24  N   LIG    1        3.095   0.656  21.307  0.00  0.00    -0.260 NA
BRANCH  22  25
ATOM     25  C   LIG    1        2.721   4.120  22.907  0.00  0.00    +0.033 C 
ATOM     26  C   LIG    1        2.035   5.201  22.084  0.00  0.00    +0.009 C 
ENDBRANCH  22  25
ENDBRANCH  18  19
ENDBRANCH  17  18
ENDBRANCH  16  17
ENDBRANCH   4  16
TORSDOF 7
ENDMDL
MODEL 5
REMARK VINA RESULT:      -8.1      7.750     11.040
REMARK  Name = 
REMARK                            x       y       z     vdW  Elec       q    Type
REMARK                         _______ _______ _______ _____ _____    ______ ____
ROOT
ATOM      1  C   LIG    1        8.011  -1.787  19.328  0.00  0.00    -0.046 A 
ATOM      2  C   LIG    1        7.717  -1.230  20.573  0.00  0.00    +0.007 A 
ATOM      3  C   LIG    1        6.404  -1.180  21.039  0.00  0.00    +0.046 A 
ATOM      4  C   LIG    1        5.346  -1.659  20.261  0.00  0.00    +0.121 A 
ATOM      5  C   LIG    1        5.631  -2.203  19.009  0.00  0.00    +0.046 A 
ATOM      6  C   LIG    1        6.954  -2.275  18.548  0.00  0.00    +0.007 A 
ENDROOT
BRANCH   1   7
ATOM      7  C   LIG    1        9.443  -1.830  18.845  0.00  0.00    +0.059 C 
BRANCH   7  10
ATOM      8  O   LIG    1       11.124  -4.286  20.152  0.00  0.00    -0.274 OA
ATOM      9  C   LIG    1       11.123  -3.737  19.058  0.00  0.00    +0.234 C 
ATOM     10  C   LIG    1        9.895  -3.205  18.336  0.00  0.00    +0.146 C 
ATOM     11  S   LIG    1       10.475  -3.020  16.601  0.00  0.00    -0.054 S 
ATOM     12  C   LIG    1       12.150  -3.276  17.024  0.00  0.00    +0.279 C 
ATOM     13  O   LIG    1       13.065  -3.261  16.223  0.00  0.00    -0.263 OA
ATOM     14  N   LIG    1       12.266  -3.544  18.345  0.00  0.00    -0.246 N 
ATOM     15  H   LIG    1       13.149  -3.870  18.703  0.00  0.00    +0.158 HD
ENDBRANCH   7  10
ENDBRANCH   1   7
BRANCH   4  16
ATOM     16  O   LIG    1        4.017  -1.630  20.629  0.00  0.00    -0.492 OA
BRANCH  16  17
ATOM     17  C   LIG    1        3.598  -0.366  21.146  0.00  0.00    +0.235 C 
BRANCH  17  18
ATOM     18  C   LIG    1        2.095  -0.262  21.390  0.00  0.00    +0.096 C 
BRANCH  18  19
ATOM     19  C   LIG    1        1.627  -1.112  22.558  0.00  0.00    +0.045 A 
ATOM     20  C   LIG    1        1.166  -0.561  23.755  0.00  0.00    +0.024 A 
ATOM     21  C   LIG    1        0.717  -1.397  24.773  0.00  0.00    +0.007 A 
ATOM     22  C   LIG    1        0.743  -2.779  24.607  0.00  0.00    -0.030 A 
ATOM     23  C   LIG    1        1.239  -3.247  23.396  0.00  0.00    +0.114 A 
ATOM     24  N   LIG    1        1.675  -2.453  22.383  0.00  0.00    -0.260 NA
BRANCH  22  25
ATOM     25  C   LIG    1        0.228  -3.642  25.728  0.00  0.00    +0.033 C 
ATOM     26  C   LIG    1       -0.357  -2.926  26.936  0.00  0.00    +0.009 C 
ENDBRANCH  22  25
ENDBRANCH  18  19
ENDBRANCH  17  18
ENDBRANCH  16  17
ENDBRANCH   4  16
TORSDOF 7
ENDMDL
MODEL 6
REMARK VINA RESULT:      -8.1      5.111      7.576
REMARK  Name = 
REMARK                            x       y       z     vdW  Elec       q    Type
REMARK                         _______ _______ _______ _____ _____    ______ ____
ROOT
ATOM      1  C   LIG    1        8.308  -4.062  22.896  0.00  0.00    -0.046 A 
ATOM      2  C   LIG    1        8.098  -2.695  22.712  0.00  0.00    +0.007 A 
ATOM      3  C   LIG    1        7.091  -2.237  21.863  0.00  0.00    +0.046 A 
ATOM      4  C   LIG    1        6.286  -3.132  21.153  0.00  0.00    +0.121 A 
ATOM      5  C   LIG    1        6.501  -4.500  21.320  0.00  0.00    +0.046 A 
ATOM      6  C   LIG    1        7.498  -4.963  22.192  0.00  0.00    +0.007 A 
ENDROOT
BRANCH   1   7
ATOM      7  C   LIG    1        9.405  -4.535  23.822  0.00  0.00    +0.059 C 
BRANCH   7  10
ATOM      8  O   LIG    1       12.256  -3.171  24.582  0.00  0.00    -0.274 OA
ATOM      9  C   LIG    1       11.316  -3.608  25.234  0.00  0.00    +0.234 C 
ATOM     10  C   LIG    1        9.848  -3.491  24.857  0.00  0.00    +0.146 C 
ATOM     11  S   LIG    1        8.979  -3.839  26.440  0.00  0.00    -0.054 S 
ATOM     12  C   LIG    1       10.433  -4.389  27.236  0.00  0.00    +0.279 C 
ATOM     13  O   LIG    1       10.473  -4.780  28.388  0.00  0.00    -0.263 OA
ATOM     14  N   LIG    1       11.497  -4.264  26.412  0.00  0.00    -0.246 N 
ATOM     15  H   LIG    1       12.424  -4.391  26.786  0.00  0.00    +0.158 HD
ENDBRANCH   7  10
ENDBRANCH   1   7
BRANCH   4  16
ATOM     16  O   LIG    1        5.285  -2.771  20.276  0.00  0.00    -0.492 OA
BRANCH  16  17
ATOM     17  C   LIG    1        4.511  -1.657  20.725  0.00  0.00    +0.235 C 
BRANCH  17  18
ATOM     18  C   LIG    1        3.009  -1.815  20.504  0.00  0.00    +0.096 C 
BRANCH  18  19
ATOM     19  C   LIG    1        2.209  -1.712  21.790  0.00  0.00    +0.045 A 
ATOM     20  C   LIG    1        1.741  -0.496  22.293  0.00  0.00    +0.024 A 
ATOM     21  C   LIG    1        0.982  -0.477  23.459  0.00  0.00    +0.007 A 
ATOM     22  C   LIG    1        0.702  -1.663  24.132  0.00  0.00    -0.030 A 
ATOM     23  C   LIG    1        1.224  -2.826  23.578  0.00  0.00    +0.114 A 
ATOM     24  N   LIG    1        1.961  -2.874  22.437  0.00  0.00    -0.260 NA
BRANCH  22  25
ATOM     25  C   LIG    1       -0.141  -1.595  25.377  0.00  0.00    +0.033 C 
ATOM     26  C   LIG    1        0.142  -2.627  26.458  0.00  0.00    +0.009 C 
ENDBRANCH  22  25
ENDBRANCH  18  19
ENDBRANCH  17  18
ENDBRANCH  16  17
ENDBRANCH   4  16
TORSDOF 7
ENDMDL
MODEL 7
REMARK VINA RESULT:      -7.8      1.660      2.063
REMARK  Name = 
REMARK                            x       y       z     vdW  Elec       q    Type
REMARK                         _______ _______ _______ _____ _____    ______ ____
ROOT
ATOM      1  C   LIG    1        9.982  -4.166  27.546  0.00  0.00    -0.046 A 
ATOM      2  C   LIG    1       10.961  -3.889  26.591  0.00  0.00    +0.007 A 
ATOM      3  C   LIG    1       10.613  -3.633  25.266  0.00  0.00    +0.046 A 
ATOM      4  C   LIG    1        9.278  -3.677  24.852  0.00  0.00    +0.121 A 
ATOM      5  C   LIG    1        8.295  -3.968  25.797  0.00  0.00    +0.046 A 
ATOM      6  C   LIG    1        8.642  -4.203  27.137  0.00  0.00    +0.007 A 
ENDROOT
BRANCH   1   7
ATOM      7  C   LIG    1       10.385  -4.439  28.977  0.00  0.00    +0.059 C 
BRANCH   7  10
ATOM      8  O   LIG    1       11.552  -1.440  29.440  0.00  0.00    -0.274 OA
ATOM      9  C   LIG    1       11.216  -2.352  30.185  0.00  0.00    +0.234 C 
ATOM     10  C   LIG    1       10.052  -3.302  29.953  0.00  0.00    +0.146 C 
ATOM     11  S   LIG    1        9.766  -4.030  31.617  0.00  0.00    -0.054 S 
ATOM     12  C   LIG    1       11.245  -3.374  32.272  0.00  0.00    +0.279 C 
ATOM     13  O   LIG    1       11.618  -3.543  33.418  0.00  0.00    -0.263 OA
ATOM     14  N   LIG    1       11.875  -2.616  31.346  0.00  0.00    -0.246 N 
ATOM     15  H   LIG    1       12.656  -2.044  31.629  0.00  0.00    +0.158 HD
ENDBRANCH   7  10
ENDBRANCH   1   7
BRANCH   4  16
ATOM     16  O   LIG    1        8.844  -3.461  23.561  0.00  0.00    -0.492 OA
BRANCH  16  17
ATOM     17  C   LIG    1        8.110  -4.560  23.018  0.00  0.00    +0.235 C 
BRANCH  17  18
ATOM     18  C   LIG    1        7.273  -4.202  21.792  0.00  0.00    +0.096 C 
BRANCH  18  19
ATOM     19  C   LIG    1        8.075  -3.492  20.717  0.00  0.00    +0.045 A 
ATOM     20  C   LIG    1        7.673  -2.281  20.150  0.00  0.00    +0.024 A 
ATOM     21  C   LIG    1        8.474  -1.665  19.193  0.00  0.00    +0.007 A 
ATOM     22  C   LIG    1        9.666  -2.261  18.789  0.00  0.00    -0.030 A 
ATOM     23  C   LIG    1        9.982  -3.476  19.385  0.00  0.00    +0.114 A 
ATOM     24  N   LIG    1        9.223  -4.095  20.327  0.00  0.00    -0.260 NA
BRANCH  22  25
ATOM     25  C   LIG    1       10.510  -1.547  17.768  0.00  0.00    +0.033 C 
ATOM     26  C   LIG    1       10.777  -2.279  16.462  0.00  0.00    +0.009 C 
ENDBRANCH  22  25
ENDBRANCH  18  19
ENDBRANCH  17  18
ENDBRANCH  16  17
ENDBRANCH   4  16
TORSDOF 7
ENDMDL
MODEL 8
REMARK VINA RESULT:      -7.7      4.584     10.171
REMARK  Name = 
REMARK                            x       y       z     vdW  Elec       q    Type
REMARK                         _______ _______ _______ _____ _____    ______ ____
ROOT
ATOM      1  C   LIG    1        5.910  -1.854  19.807  0.00  0.00    -0.046 A 
ATOM      2  C   LIG    1        6.968  -1.229  20.469  0.00  0.00    +0.007 A 
ATOM      3  C   LIG    1        7.720  -1.917  21.418  0.00  0.00    +0.046 A 
ATOM      4  C   LIG    1        7.418  -3.240  21.755  0.00  0.00    +0.121 A 
ATOM      5  C   LIG    1        6.352  -3.866  21.110  0.00  0.00    +0.046 A 
ATOM      6  C   LIG    1        5.608  -3.182  20.136  0.00  0.00    +0.007 A 
ENDROOT
BRANCH   1   7
ATOM      7  C   LIG    1        5.109  -1.086  18.780  0.00  0.00    +0.059 C 
BRANCH   7  10
ATOM      8  O   LIG    1        3.200   1.425  17.993  0.00  0.00    -0.274 OA
ATOM      9  C   LIG    1        3.554   0.917  19.050  0.00  0.00    +0.234 C 
ATOM     10  C   LIG    1        3.758  -0.569  19.293  0.00  0.00    +0.146 C 
ATOM     11  S   LIG    1        3.745  -0.701  21.127  0.00  0.00    -0.054 S 
ATOM     12  C   LIG    1        3.831   1.028  21.355  0.00  0.00    +0.279 C 
ATOM     13  O   LIG    1        3.859   1.572  22.443  0.00  0.00    -0.263 OA
ATOM     14  N   LIG    1        3.806   1.662  20.160  0.00  0.00    -0.246 N 
ATOM     15  H   LIG    1        3.688   2.663  20.139  0.00  0.00    +0.158 HD
ENDBRANCH   7  10
ENDBRANCH   1   7
BRANCH   4  16
ATOM     16  O   LIG    1        8.091  -3.990  22.697  0.00  0.00    -0.492 OA
BRANCH  16  17
ATOM     17  C   LIG    1        8.313  -3.294  23.924  0.00  0.00    +0.235 C 
BRANCH  17  18
ATOM     18  C   LIG    1        9.357  -3.945  24.827  0.00  0.00    +0.096 C 
BRANCH  18  19
ATOM     19  C   LIG    1        8.883  -4.103  26.261  0.00  0.00    +0.045 A 
ATOM     20  C   LIG    1        9.758  -4.130  27.347  0.00  0.00    +0.024 A 
ATOM     21  C   LIG    1        9.253  -4.241  28.639  0.00  0.00    +0.007 A 
ATOM     22  C   LIG    1        7.881  -4.343  28.849  0.00  0.00    -0.030 A 
ATOM     23  C   LIG    1        7.080  -4.333  27.713  0.00  0.00    +0.114 A 
ATOM     24  N   LIG    1        7.546  -4.216  26.441  0.00  0.00    -0.260 NA
BRANCH  22  25
ATOM     25  C   LIG    1        7.380  -4.440  30.265  0.00  0.00    +0.033 C 
ATOM     26  C   LIG    1        8.430  -4.504  31.364  0.00  0.00    +0.009 C 
ENDBRANCH  22  25
ENDBRANCH  18  19
ENDBRANCH  17  18
ENDBRANCH  16  17
ENDBRANCH   4  16
TORSDOF 7
ENDMDL
MODEL 9
REMARK VINA RESULT:      -7.7      4.173      9.525
REMARK  Name = 
REMARK                            x       y       z     vdW  Elec       q    Type
REMARK                         _______ _______ _______ _____ _____    ______ ____
ROOT
ATOM      1  C   LIG    1        7.544  -3.925  21.807  0.00  0.00    -0.046 A 
ATOM      2  C   LIG    1        8.739  -4.412  21.274  0.00  0.00    +0.007 A 
ATOM      3  C   LIG    1        9.882  -4.514  22.064  0.00  0.00    +0.046 A 
ATOM      4  C   LIG    1        9.872  -4.105  23.401  0.00  0.00    +0.121 A 
ATOM      5  C   LIG    1        8.687  -3.603  23.936  0.00  0.00    +0.046 A 
ATOM      6  C   LIG    1        7.528  -3.521  23.149  0.00  0.00    +0.007 A 
ENDROOT
BRANCH   1   7
ATOM      7  C   LIG    1        6.317  -3.825  20.930  0.00  0.00    +0.059 C 
BRANCH   7  10
ATOM      8  O   LIG    1        7.976  -1.032  20.806  0.00  0.00    -0.274 OA
ATOM      9  C   LIG    1        6.807  -1.342  20.614  0.00  0.00    +0.234 C 
ATOM     10  C   LIG    1        6.329  -2.631  19.965  0.00  0.00    +0.146 C 
ATOM     11  S   LIG    1        4.593  -2.247  19.496  0.00  0.00    -0.054 S 
ATOM     12  C   LIG    1        4.566  -0.760  20.410  0.00  0.00    +0.279 C 
ATOM     13  O   LIG    1        3.602  -0.021  20.481  0.00  0.00    -0.263 OA
ATOM     14  N   LIG    1        5.776  -0.529  20.970  0.00  0.00    -0.246 N 
ATOM     15  H   LIG    1        5.957   0.368  21.392  0.00  0.00    +0.158 HD
ENDBRANCH   7  10
ENDBRANCH   1   7
BRANCH   4  16
ATOM     16  O   LIG    1       10.959  -4.148  24.250  0.00  0.00    -0.492 OA
BRANCH  16  17
ATOM     17  C   LIG    1       10.753  -3.438  25.472  0.00  0.00    +0.235 C 
BRANCH  17  18
ATOM     18  C   LIG    1       11.191  -4.206  26.717  0.00  0.00    +0.096 C 
BRANCH  18  19
ATOM     19  C   LIG    1       10.120  -4.246  27.793  0.00  0.00    +0.045 A 
ATOM     20  C   LIG    1       10.380  -3.935  29.129  0.00  0.00    +0.024 A 
ATOM     21  C   LIG    1        9.344  -3.956  30.057  0.00  0.00    +0.007 A 
ATOM     22  C   LIG    1        8.056  -4.303  29.662  0.00  0.00    -0.030 A 
ATOM     23  C   LIG    1        7.886  -4.622  28.320  0.00  0.00    +0.114 A 
ATOM     24  N   LIG    1        8.877  -4.600  27.390  0.00  0.00    -0.260 NA
BRANCH  22  25
ATOM     25  C   LIG    1        6.964  -4.291  30.698  0.00  0.00    +0.033 C 
ATOM     26  C   LIG    1        7.385  -4.060  32.141  0.00  0.00    +0.009 C 
ENDBRANCH  22  25
ENDBRANCH  18  19
ENDBRANCH  17  18
ENDBRANCH  16  17
ENDBRANCH   4  16
TORSDOF 7
ENDMDL
