MODEL 1
REMARK VINA RESULT:      -9.0      0.000      0.000
REMARK  Name = 
REMARK                            x       y       z     vdW  Elec       q    Type
REMARK                         _______ _______ _______ _____ _____    ______ ____
ROOT
ATOM      1  C   LIG    1       10.166   0.970  30.921  0.00  0.00    -0.046 A 
ATOM      2  C   LIG    1       11.002   1.394  29.887  0.00  0.00    +0.007 A 
ATOM      3  C   LIG    1       10.548   1.426  28.570  0.00  0.00    +0.046 A 
ATOM      4  C   LIG    1        9.254   1.007  28.245  0.00  0.00    +0.121 A 
ATOM      5  C   LIG    1        8.417   0.567  29.271  0.00  0.00    +0.046 A 
ATOM      6  C   LIG    1        8.866   0.557  30.601  0.00  0.00    +0.007 A 
ENDROOT
BRANCH   1   7
ATOM      7  C   LIG    1       10.682   0.945  32.342  0.00  0.00    +0.059 C 
BRANCH   7  10
ATOM      8  O   LIG    1       11.583   4.063  32.148  0.00  0.00    -0.274 OA
ATOM      9  C   LIG    1       11.432   3.271  33.070  0.00  0.00    +0.234 C 
ATOM     10  C   LIG    1       10.352   2.205  33.154  0.00  0.00    +0.146 C 
ATOM     11  S   LIG    1       10.339   1.759  34.937  0.00  0.00    -0.054 S 
ATOM     12  C   LIG    1       11.810   2.637  35.274  0.00  0.00    +0.279 C 
ATOM     13  O   LIG    1       12.330   2.701  36.372  0.00  0.00    -0.263 OA
ATOM     14  N   LIG    1       12.246   3.269  34.160  0.00  0.00    -0.246 N 
ATOM     15  H   LIG    1       12.992   3.942  34.240  0.00  0.00    +0.158 HD
ENDBRANCH   7  10
ENDBRANCH   1   7
BRANCH   4  16
ATOM     16  O   LIG    1        8.727   0.982  26.971  0.00  0.00    -0.492 OA
BRANCH  16  17
ATOM     17  C   LIG    1        7.400   1.506  26.894  0.00  0.00    +0.235 C 
BRANCH  17  18
ATOM     18  C   LIG    1        7.272   2.744  26.011  0.00  0.00    +0.096 C 
BRANCH  18  19
ATOM     19  C   LIG    1        6.534   3.882  26.694  0.00  0.00    +0.045 A 
ATOM     20  C   LIG    1        5.382   3.685  27.457  0.00  0.00    +0.024 A 
ATOM     21  C   LIG    1        4.776   4.768  28.086  0.00  0.00    +0.007 A 
ATOM     22  C   LIG    1        5.305   6.048  27.943  0.00  0.00    -0.030 A 
ATOM     23  C   LIG    1        6.440   6.162  27.148  0.00  0.00    +0.114 A 
ATOM     24  N   LIG    1        7.056   5.120  26.529  0.00  0.00    -0.260 NA
BRANCH  22  25
ATOM     25  C   LIG    1        4.628   7.185  28.659  0.00  0.00    +0.033 C 
ATOM     26  C   LIG    1        5.445   8.450  28.872  0.00  0.00    +0.009 C 
ENDBRANCH  22  25
ENDBRANCH  18  19
ENDBRANCH  17  18
ENDBRANCH  16  17
ENDBRANCH   4  16
TORSDOF 7
ENDMDL
MODEL 2
REMARK VINA RESULT:      -8.2      3.768      7.972
REMARK  Name = 
REMARK                            x       y       z     vdW  Elec       q    Type
REMARK                         _______ _______ _______ _____ _____    ______ ____
ROOT
ATOM      1  C   LIG    1        6.395   4.566  27.202  0.00  0.00    -0.046 A 
ATOM      2  C   LIG    1        7.779   4.496  27.368  0.00  0.00    +0.007 A 
ATOM      3  C   LIG    1        8.440   3.270  27.329  0.00  0.00    +0.046 A 
ATOM      4  C   LIG    1        7.734   2.077  27.153  0.00  0.00    +0.121 A 
ATOM      5  C   LIG    1        6.349   2.137  27.003  0.00  0.00    +0.046 A 
ATOM      6  C   LIG    1        5.684   3.372  27.018  0.00  0.00    +0.007 A 
ENDROOT
BRANCH   1   7
ATOM      7  C   LIG    1        5.700   5.908  27.247  0.00  0.00    +0.059 C 
BRANCH   7  10
ATOM      8  O   LIG    1        5.914   8.333  29.401  0.00  0.00    -0.274 OA
ATOM      9  C   LIG    1        6.022   8.258  28.183  0.00  0.00    +0.234 C 
ATOM     10  C   LIG    1        6.648   7.102  27.420  0.00  0.00    +0.146 C 
ATOM     11  S   LIG    1        6.980   7.824  25.762  0.00  0.00    -0.054 S 
ATOM     12  C   LIG    1        6.049   9.264  26.089  0.00  0.00    +0.279 C 
ATOM     13  O   LIG    1        5.895  10.172  25.293  0.00  0.00    -0.263 OA
ATOM     14  N   LIG    1        5.579   9.243  27.357  0.00  0.00    -0.246 N 
ATOM     15  H   LIG    1        5.161  10.077  27.738  0.00  0.00    +0.158 HD
ENDBRANCH   7  10
ENDBRANCH   1   7
BRANCH   4  16
ATOM     16  O   LIG    1        8.301   0.819  27.125  0.00  0.00    -0.492 OA
BRANCH  16  17
ATOM     17  C   LIG    1        9.420   0.681  28.003  0.00  0.00    +0.235 C 
BRANCH  17  18
ATOM     18  C   LIG    1        9.043   0.303  29.433  0.00  0.00    +0.096 C 
BRANCH  18  19
ATOM     19  C   LIG    1        9.878   1.027  30.474  0.00  0.00    +0.045 A 
ATOM     20  C   LIG    1       10.006   0.575  31.788  0.00  0.00    +0.024 A 
ATOM     21  C   LIG    1       10.816   1.267  32.682  0.00  0.00    +0.007 A 
ATOM     22  C   LIG    1       11.485   2.418  32.275  0.00  0.00    -0.030 A 
ATOM     23  C   LIG    1       11.285   2.815  30.958  0.00  0.00    +0.114 A 
ATOM     24  N   LIG    1       10.507   2.153  30.062  0.00  0.00    -0.260 NA
BRANCH  22  25
ATOM     25  C   LIG    1       12.367   3.122  33.271  0.00  0.00    +0.033 C 
ATOM     26  C   LIG    1       12.181   2.755  34.736  0.00  0.00    +0.009 C 
ENDBRANCH  22  25
ENDBRANCH  18  19
ENDBRANCH  17  18
ENDBRANCH  16  17
ENDBRANCH   4  16
TORSDOF 7
ENDMDL
MODEL 3
REMARK VINA RESULT:      -8.1      7.289      9.830
REMARK  Name = 
REMARK                            x       y       z     vdW  Elec       q    Type
REMARK                         _______ _______ _______ _____ _____    ______ ____
ROOT
ATOM      1  C   LIG    1       16.852   3.947  26.546  0.00  0.00    -0.046 A 
ATOM      2  C   LIG    1       17.056   3.833  27.922  0.00  0.00    +0.007 A 
ATOM      3  C   LIG    1       16.179   3.094  28.713  0.00  0.00    +0.046 A 
ATOM      4  C   LIG    1       15.056   2.473  28.156  0.00  0.00    +0.121 A 
ATOM      5  C   LIG    1       14.837   2.596  26.785  0.00  0.00    +0.046 A 
ATOM      6  C   LIG    1       15.732   3.320  25.982  0.00  0.00    +0.007 A 
ENDROOT
BRANCH   1   7
ATOM      7  C   LIG    1       17.818   4.754  25.708  0.00  0.00    +0.059 C 
BRANCH   7  10
ATOM      8  O   LIG    1       20.973   5.506  25.503  0.00  0.00    -0.274 OA
ATOM      9  C   LIG    1       20.193   4.889  24.790  0.00  0.00    +0.234 C 
ATOM     10  C   LIG    1       19.074   3.984  25.278  0.00  0.00    +0.146 C 
ATOM     11  S   LIG    1       18.661   2.986  23.791  0.00  0.00    -0.054 S 
ATOM     12  C   LIG    1       19.621   3.984  22.727  0.00  0.00    +0.279 C 
ATOM     13  O   LIG    1       19.732   3.794  21.531  0.00  0.00    -0.263 OA
ATOM     14  N   LIG    1       20.254   4.949  23.432  0.00  0.00    -0.246 N 
ATOM     15  H   LIG    1       20.966   5.499  22.978  0.00  0.00    +0.158 HD
ENDBRANCH   7  10
ENDBRANCH   1   7
BRANCH   4  16
ATOM     16  O   LIG    1       14.124   1.742  28.864  0.00  0.00    -0.492 OA
BRANCH  16  17
ATOM     17  C   LIG    1       12.927   2.470  29.144  0.00  0.00    +0.235 C 
BRANCH  17  18
ATOM     18  C   LIG    1       11.767   1.597  29.615  0.00  0.00    +0.096 C 
BRANCH  18  19
ATOM     19  C   LIG    1       11.383   1.856  31.061  0.00  0.00    +0.045 A 
ATOM     20  C   LIG    1       10.595   0.974  31.803  0.00  0.00    +0.024 A 
ATOM     21  C   LIG    1       10.311   1.254  33.136  0.00  0.00    +0.007 A 
ATOM     22  C   LIG    1       10.796   2.418  33.726  0.00  0.00    -0.030 A 
ATOM     23  C   LIG    1       11.552   3.254  32.912  0.00  0.00    +0.114 A 
ATOM     24  N   LIG    1       11.852   3.001  31.611  0.00  0.00    -0.260 NA
BRANCH  22  25
ATOM     25  C   LIG    1       10.481   2.668  35.176  0.00  0.00    +0.033 C 
ATOM     26  C   LIG    1       10.285   1.445  36.060  0.00  0.00    +0.009 C 
ENDBRANCH  22  25
ENDBRANCH  18  19
ENDBRANCH  17  18
ENDBRANCH  16  17
ENDBRANCH   4  16
TORSDOF 7
ENDMDL
MODEL 4
REMARK VINA RESULT:      -8.0      3.481      7.892
REMARK  Name = 
REMARK                            x       y       z     vdW  Elec       q    Type
REMARK                         _______ _______ _______ _____ _____    ______ ____
ROOT
ATOM      1  C   LIG    1        8.355   3.980  26.596  0.00  0.00    -0.046 A 
ATOM      2  C   LIG    1        7.266   3.160  26.295  0.00  0.00    +0.007 A 
ATOM      3  C   LIG    1        7.188   1.865  26.804  0.00  0.00    +0.046 A 
ATOM      4  C   LIG    1        8.209   1.342  27.602  0.00  0.00    +0.121 A 
ATOM      5  C   LIG    1        9.308   2.150  27.893  0.00  0.00    +0.046 A 
ATOM      6  C   LIG    1        9.378   3.462  27.402  0.00  0.00    +0.007 A 
ENDROOT
BRANCH   1   7
ATOM      7  C   LIG    1        8.417   5.382  26.033  0.00  0.00    +0.059 C 
BRANCH   7  10
ATOM      8  O   LIG    1        7.277   7.701  24.061  0.00  0.00    -0.274 OA
ATOM      9  C   LIG    1        7.133   7.441  25.249  0.00  0.00    +0.234 C 
ATOM     10  C   LIG    1        7.046   6.046  25.845  0.00  0.00    +0.146 C 
ATOM     11  S   LIG    1        6.313   6.343  27.505  0.00  0.00    -0.054 S 
ATOM     12  C   LIG    1        6.514   8.074  27.398  0.00  0.00    +0.279 C 
ATOM     13  O   LIG    1        6.188   8.854  28.272  0.00  0.00    -0.263 OA
ATOM     14  N   LIG    1        7.027   8.414  26.194  0.00  0.00    -0.246 N 
ATOM     15  H   LIG    1        7.049   9.386  25.927  0.00  0.00    +0.158 HD
ENDBRANCH   7  10
ENDBRANCH   1   7
BRANCH   4  16
ATOM     16  O   LIG    1        8.228   0.067  28.128  0.00  0.00    -0.492 OA
BRANCH  16  17
ATOM     17  C   LIG    1        9.057  -0.057  29.285  0.00  0.00    +0.235 C 
BRANCH  17  18
ATOM     18  C   LIG    1        8.460   0.564  30.546  0.00  0.00    +0.096 C 
BRANCH  18  19
ATOM     19  C   LIG    1        9.515   1.110  31.491  0.00  0.00    +0.045 A 
ATOM     20  C   LIG    1       10.846   1.293  31.113  0.00  0.00    +0.024 A 
ATOM     21  C   LIG    1       11.754   1.833  32.019  0.00  0.00    +0.007 A 
ATOM     22  C   LIG    1       11.343   2.173  33.305  0.00  0.00    -0.030 A 
ATOM     23  C   LIG    1       10.007   1.937  33.609  0.00  0.00    +0.114 A 
ATOM     24  N   LIG    1        9.098   1.420  32.741  0.00  0.00    -0.260 NA
BRANCH  22  25
ATOM     25  C   LIG    1       12.355   2.773  34.243  0.00  0.00    +0.033 C 
ATOM     26  C   LIG    1       12.133   2.549  35.731  0.00  0.00    +0.009 C 
ENDBRANCH  22  25
ENDBRANCH  18  19
ENDBRANCH  17  18
ENDBRANCH  16  17
ENDBRANCH   4  16
TORSDOF 7
ENDMDL
MODEL 5
REMARK VINA RESULT:      -7.9      7.333      9.902
REMARK  Name = 
REMARK                            x       y       z     vdW  Elec       q    Type
REMARK                         _______ _______ _______ _____ _____    ______ ____
ROOT
ATOM      1  C   LIG    1       16.869   4.009  26.583  0.00  0.00    -0.046 A 
ATOM      2  C   LIG    1       15.756   3.382  26.020  0.00  0.00    +0.007 A 
ATOM      3  C   LIG    1       14.874   2.649  26.811  0.00  0.00    +0.046 A 
ATOM      4  C   LIG    1       15.095   2.497  28.184  0.00  0.00    +0.121 A 
ATOM      5  C   LIG    1       16.214   3.107  28.751  0.00  0.00    +0.046 A 
ATOM      6  C   LIG    1       17.090   3.865  27.959  0.00  0.00    +0.007 A 
ENDROOT
BRANCH   1   7
ATOM      7  C   LIG    1       17.810   4.799  25.703  0.00  0.00    +0.059 C 
BRANCH   7  10
ATOM      8  O   LIG    1       20.969   5.549  25.542  0.00  0.00    -0.274 OA
ATOM      9  C   LIG    1       20.196   4.940  24.814  0.00  0.00    +0.234 C 
ATOM     10  C   LIG    1       19.070   4.032  25.280  0.00  0.00    +0.146 C 
ATOM     11  S   LIG    1       18.673   3.048  23.779  0.00  0.00    -0.054 S 
ATOM     12  C   LIG    1       19.647   4.055  22.736  0.00  0.00    +0.279 C 
ATOM     13  O   LIG    1       19.772   3.877  21.539  0.00  0.00    -0.263 OA
ATOM     14  N   LIG    1       20.272   5.013  23.457  0.00  0.00    -0.246 N 
ATOM     15  H   LIG    1       20.991   5.566  23.017  0.00  0.00    +0.158 HD
ENDBRANCH   7  10
ENDBRANCH   1   7
BRANCH   4  16
ATOM     16  O   LIG    1       14.291   1.772  29.039  0.00  0.00    -0.492 OA
BRANCH  16  17
ATOM     17  C   LIG    1       12.895   1.972  28.811  0.00  0.00    +0.235 C 
BRANCH  17  18
ATOM     18  C   LIG    1       12.304   3.154  29.574  0.00  0.00    +0.096 C 
BRANCH  18  19
ATOM     19  C   LIG    1       11.872   2.789  30.983  0.00  0.00    +0.045 A 
ATOM     20  C   LIG    1       12.320   3.476  32.113  0.00  0.00    +0.024 A 
ATOM     21  C   LIG    1       11.855   3.113  33.373  0.00  0.00    +0.007 A 
ATOM     22  C   LIG    1       10.958   2.057  33.511  0.00  0.00    -0.030 A 
ATOM     23  C   LIG    1       10.580   1.410  32.340  0.00  0.00    +0.114 A 
ATOM     24  N   LIG    1       11.012   1.750  31.097  0.00  0.00    -0.260 NA
BRANCH  22  25
ATOM     25  C   LIG    1       10.467   1.714  34.892  0.00  0.00    +0.033 C 
ATOM     26  C   LIG    1       10.824   2.681  36.010  0.00  0.00    +0.009 C 
ENDBRANCH  22  25
ENDBRANCH  18  19
ENDBRANCH  17  18
ENDBRANCH  16  17
ENDBRANCH   4  16
TORSDOF 7
ENDMDL
MODEL 6
REMARK VINA RESULT:      -7.9      6.764      9.606
REMARK  Name = 
REMARK                            x       y       z     vdW  Elec       q    Type
REMARK                         _______ _______ _______ _____ _____    ______ ____
ROOT
ATOM      1  C   LIG    1       16.986   3.420  27.567  0.00  0.00    -0.046 A 
ATOM      2  C   LIG    1       15.876   2.627  27.272  0.00  0.00    +0.007 A 
ATOM      3  C   LIG    1       14.820   2.514  28.174  0.00  0.00    +0.046 A 
ATOM      4  C   LIG    1       14.857   3.167  29.410  0.00  0.00    +0.121 A 
ATOM      5  C   LIG    1       15.970   3.948  29.719  0.00  0.00    +0.046 A 
ATOM      6  C   LIG    1       17.024   4.082  28.802  0.00  0.00    +0.007 A 
ENDROOT
BRANCH   1   7
ATOM      7  C   LIG    1       18.119   3.527  26.572  0.00  0.00    +0.059 C 
BRANCH   7  10
ATOM      8  O   LIG    1       16.642   2.633  23.817  0.00  0.00    -0.274 OA
ATOM      9  C   LIG    1       17.619   3.323  24.080  0.00  0.00    +0.234 C 
ATOM     10  C   LIG    1       17.749   4.256  25.273  0.00  0.00    +0.146 C 
ATOM     11  S   LIG    1       19.150   5.349  24.802  0.00  0.00    -0.054 S 
ATOM     12  C   LIG    1       19.595   4.361  23.433  0.00  0.00    +0.279 C 
ATOM     13  O   LIG    1       20.526   4.606  22.689  0.00  0.00    -0.263 OA
ATOM     14  N   LIG    1       18.730   3.331  23.294  0.00  0.00    -0.246 N 
ATOM     15  H   LIG    1       18.765   2.771  22.457  0.00  0.00    +0.158 HD
ENDBRANCH   7  10
ENDBRANCH   1   7
BRANCH   4  16
ATOM     16  O   LIG    1       13.871   3.095  30.372  0.00  0.00    -0.492 OA
BRANCH  16  17
ATOM     17  C   LIG    1       12.568   2.863  29.834  0.00  0.00    +0.235 C 
BRANCH  17  18
ATOM     18  C   LIG    1       11.458   3.631  30.546  0.00  0.00    +0.096 C 
BRANCH  18  19
ATOM     19  C   LIG    1       11.042   2.987  31.857  0.00  0.00    +0.045 A 
ATOM     20  C   LIG    1       10.595   1.668  31.942  0.00  0.00    +0.024 A 
ATOM     21  C   LIG    1       10.264   1.129  33.181  0.00  0.00    +0.007 A 
ATOM     22  C   LIG    1       10.362   1.906  34.332  0.00  0.00    -0.030 A 
ATOM     23  C   LIG    1       10.792   3.216  34.158  0.00  0.00    +0.114 A 
ATOM     24  N   LIG    1       11.130   3.765  32.962  0.00  0.00    -0.260 NA
BRANCH  22  25
ATOM     25  C   LIG    1       10.014   1.273  35.653  0.00  0.00    +0.033 C 
ATOM     26  C   LIG    1       10.689   1.845  36.890  0.00  0.00    +0.009 C 
ENDBRANCH  22  25
ENDBRANCH  18  19
ENDBRANCH  17  18
ENDBRANCH  16  17
ENDBRANCH   4  16
TORSDOF 7
ENDMDL
MODEL 7
REMARK VINA RESULT:      -7.8      6.273      8.621
REMARK  Name = 
REMARK                            x       y       z     vdW  Elec       q    Type
REMARK                         _______ _______ _______ _____ _____    ______ ____
ROOT
ATOM      1  C   LIG    1       16.362   3.191  28.356  0.00  0.00    -0.046 A 
ATOM      2  C   LIG    1       16.398   3.933  29.537  0.00  0.00    +0.007 A 
ATOM      3  C   LIG    1       15.313   3.930  30.413  0.00  0.00    +0.046 A 
ATOM      4  C   LIG    1       14.152   3.210  30.118  0.00  0.00    +0.121 A 
ATOM      5  C   LIG    1       14.103   2.479  28.931  0.00  0.00    +0.046 A 
ATOM      6  C   LIG    1       15.203   2.462  28.060  0.00  0.00    +0.007 A 
ENDROOT
BRANCH   1   7
ATOM      7  C   LIG    1       17.551   3.209  27.422  0.00  0.00    +0.059 C 
BRANCH   7  10
ATOM      8  O   LIG    1       15.693   4.119  24.916  0.00  0.00    -0.274 OA
ATOM      9  C   LIG    1       16.899   4.099  25.124  0.00  0.00    +0.234 C 
ATOM     10  C   LIG    1       17.573   4.399  26.453  0.00  0.00    +0.146 C 
ATOM     11  S   LIG    1       19.318   4.726  25.976  0.00  0.00    -0.054 S 
ATOM     12  C   LIG    1       19.088   4.151  24.343  0.00  0.00    +0.279 C 
ATOM     13  O   LIG    1       19.965   4.122  23.500  0.00  0.00    -0.263 OA
ATOM     14  N   LIG    1       17.796   3.802  24.145  0.00  0.00    -0.246 N 
ATOM     15  H   LIG    1       17.480   3.604  23.208  0.00  0.00    +0.158 HD
ENDBRANCH   7  10
ENDBRANCH   1   7
BRANCH   4  16
ATOM     16  O   LIG    1       13.024   3.168  30.911  0.00  0.00    -0.492 OA
BRANCH  16  17
ATOM     17  C   LIG    1       11.807   3.126  30.165  0.00  0.00    +0.235 C 
BRANCH  17  18
ATOM     18  C   LIG    1       10.746   2.204  30.762  0.00  0.00    +0.096 C 
BRANCH  18  19
ATOM     19  C   LIG    1       10.082   1.318  29.723  0.00  0.00    +0.045 A 
ATOM     20  C   LIG    1       10.310   1.460  28.353  0.00  0.00    +0.024 A 
ATOM     21  C   LIG    1        9.697   0.589  27.456  0.00  0.00    +0.007 A 
ATOM     22  C   LIG    1        8.846  -0.410  27.921  0.00  0.00    -0.030 A 
ATOM     23  C   LIG    1        8.654  -0.468  29.296  0.00  0.00    +0.114 A 
ATOM     24  N   LIG    1        9.246   0.363  30.194  0.00  0.00    -0.260 NA
BRANCH  22  25
ATOM     25  C   LIG    1        8.223  -1.341  26.915  0.00  0.00    +0.033 C 
ATOM     26  C   LIG    1        9.172  -2.153  26.048  0.00  0.00    +0.009 C 
ENDBRANCH  22  25
ENDBRANCH  18  19
ENDBRANCH  17  18
ENDBRANCH  16  17
ENDBRANCH   4  16
TORSDOF 7
ENDMDL
MODEL 8
REMARK VINA RESULT:      -7.5      6.060      8.618
REMARK  Name = 
REMARK                            x       y       z     vdW  Elec       q    Type
REMARK                         _______ _______ _______ _____ _____    ______ ____
ROOT
ATOM      1  C   LIG    1       16.436   3.432  28.455  0.00  0.00    -0.046 A 
ATOM      2  C   LIG    1       15.917   2.614  27.450  0.00  0.00    +0.007 A 
ATOM      3  C   LIG    1       14.641   2.067  27.564  0.00  0.00    +0.046 A 
ATOM      4  C   LIG    1       13.858   2.298  28.700  0.00  0.00    +0.121 A 
ATOM      5  C   LIG    1       14.376   3.101  29.715  0.00  0.00    +0.046 A 
ATOM      6  C   LIG    1       15.652   3.672  29.591  0.00  0.00    +0.007 A 
ENDROOT
BRANCH   1   7
ATOM      7  C   LIG    1       17.823   4.014  28.307  0.00  0.00    +0.059 C 
BRANCH   7  10
ATOM      8  O   LIG    1       18.735   5.805  25.752  0.00  0.00    -0.274 OA
ATOM      9  C   LIG    1       18.876   5.908  26.964  0.00  0.00    +0.234 C 
ATOM     10  C   LIG    1       17.846   5.519  28.012  0.00  0.00    +0.146 C 
ATOM     11  S   LIG    1       18.428   6.397  29.519  0.00  0.00    -0.054 S 
ATOM     12  C   LIG    1       19.961   6.827  28.802  0.00  0.00    +0.279 C 
ATOM     13  O   LIG    1       20.829   7.458  29.376  0.00  0.00    -0.263 OA
ATOM     14  N   LIG    1       20.014   6.407  27.518  0.00  0.00    -0.246 N 
ATOM     15  H   LIG    1       20.770   6.723  26.930  0.00  0.00    +0.158 HD
ENDBRANCH   7  10
ENDBRANCH   1   7
BRANCH   4  16
ATOM     16  O   LIG    1       12.596   1.781  28.909  0.00  0.00    -0.492 OA
BRANCH  16  17
ATOM     17  C   LIG    1       11.710   2.693  29.560  0.00  0.00    +0.235 C 
BRANCH  17  18
ATOM     18  C   LIG    1       10.602   2.015  30.362  0.00  0.00    +0.096 C 
BRANCH  18  19
ATOM     19  C   LIG    1       10.783   2.165  31.863  0.00  0.00    +0.045 A 
ATOM     20  C   LIG    1       10.031   1.442  32.790  0.00  0.00    +0.024 A 
ATOM     21  C   LIG    1       10.274   1.601  34.151  0.00  0.00    +0.007 A 
ATOM     22  C   LIG    1       11.251   2.491  34.589  0.00  0.00    -0.030 A 
ATOM     23  C   LIG    1       11.937   3.189  33.603  0.00  0.00    +0.114 A 
ATOM     24  N   LIG    1       11.727   3.047  32.268  0.00  0.00    -0.260 NA
BRANCH  22  25
ATOM     25  C   LIG    1       11.492   2.614  36.070  0.00  0.00    +0.033 C 
ATOM     26  C   LIG    1       12.606   1.762  36.660  0.00  0.00    +0.009 C 
ENDBRANCH  22  25
ENDBRANCH  18  19
ENDBRANCH  17  18
ENDBRANCH  16  17
ENDBRANCH   4  16
TORSDOF 7
ENDMDL
MODEL 9
REMARK VINA RESULT:      -7.4     10.430     13.134
REMARK  Name = 
REMARK                            x       y       z     vdW  Elec       q    Type
REMARK                         _______ _______ _______ _____ _____    ______ ____
ROOT
ATOM      1  C   LIG    1       18.494   4.608  26.024  0.00  0.00    -0.046 A 
ATOM      2  C   LIG    1       18.523   5.974  25.735  0.00  0.00    +0.007 A 
ATOM      3  C   LIG    1       18.171   6.914  26.701  0.00  0.00    +0.046 A 
ATOM      4  C   LIG    1       17.751   6.516  27.974  0.00  0.00    +0.121 A 
ATOM      5  C   LIG    1       17.704   5.153  28.265  0.00  0.00    +0.046 A 
ATOM      6  C   LIG    1       18.081   4.205  27.301  0.00  0.00    +0.007 A 
ENDROOT
BRANCH   1   7
ATOM      7  C   LIG    1       18.882   3.608  24.960  0.00  0.00    +0.059 C 
BRANCH   7  10
ATOM      8  O   LIG    1       16.089   2.406  23.810  0.00  0.00    -0.274 OA
ATOM      9  C   LIG    1       17.203   2.586  23.335  0.00  0.00    +0.234 C 
ATOM     10  C   LIG    1       18.115   3.763  23.640  0.00  0.00    +0.146 C 
ATOM     11  S   LIG    1       19.326   3.726  22.257  0.00  0.00    -0.054 S 
ATOM     12  C   LIG    1       18.799   2.157  21.701  0.00  0.00    +0.279 C 
ATOM     13  O   LIG    1       19.279   1.574  20.747  0.00  0.00    -0.263 OA
ATOM     14  N   LIG    1       17.757   1.719  22.445  0.00  0.00    -0.246 N 
ATOM     15  H   LIG    1       17.246   0.906  22.141  0.00  0.00    +0.158 HD
ENDBRANCH   7  10
ENDBRANCH   1   7
BRANCH   4  16
ATOM     16  O   LIG    1       17.362   7.373  28.982  0.00  0.00    -0.492 OA
BRANCH  16  17
ATOM     17  C   LIG    1       17.229   6.732  30.252  0.00  0.00    +0.235 C 
BRANCH  17  18
ATOM     18  C   LIG    1       18.407   6.969  31.193  0.00  0.00    +0.096 C 
BRANCH  18  19
ATOM     19  C   LIG    1       18.899   8.406  31.172  0.00  0.00    +0.045 A 
ATOM     20  C   LIG    1       20.204   8.752  30.819  0.00  0.00    +0.024 A 
ATOM     21  C   LIG    1       20.579  10.092  30.785  0.00  0.00    +0.007 A 
ATOM     22  C   LIG    1       19.662  11.084  31.119  0.00  0.00    -0.030 A 
ATOM     23  C   LIG    1       18.391  10.654  31.482  0.00  0.00    +0.114 A 
ATOM     24  N   LIG    1       17.996   9.354  31.515  0.00  0.00    -0.260 NA
BRANCH  22  25
ATOM     25  C   LIG    1       20.107  12.520  31.047  0.00  0.00    +0.033 C 
ATOM     26  C   LIG    1       19.592  13.456  32.131  0.00  0.00    +0.009 C 
ENDBRANCH  22  25
ENDBRANCH  18  19
ENDBRANCH  17  18
ENDBRANCH  16  17
ENDBRANCH   4  16
TORSDOF 7
ENDMDL
