MODEL 1
REMARK VINA RESULT:      -2.4      0.000      0.000
REMARK  Name = 
REMARK                            x       y       z     vdW  Elec       q    Type
REMARK                         _______ _______ _______ _____ _____    ______ ____
ROOT
ATOM      1  C   LIG    1       19.282   5.653  51.188  0.00  0.00    -0.046 A 
ATOM      2  C   LIG    1       19.304   5.940  52.554  0.00  0.00    +0.007 A 
ATOM      3  C   LIG    1       18.184   6.476  53.186  0.00  0.00    +0.046 A 
ATOM      4  C   LIG    1       17.021   6.768  52.466  0.00  0.00    +0.121 A 
ATOM      5  C   LIG    1       16.998   6.498  51.099  0.00  0.00    +0.046 A 
ATOM      6  C   LIG    1       18.116   5.936  50.464  0.00  0.00    +0.007 A 
ENDROOT
BRANCH   1   7
ATOM      7  C   LIG    1       20.510   5.071  50.525  0.00  0.00    +0.059 C 
BRANCH   7  10
ATOM      8  O   LIG    1       23.604   6.064  50.589  0.00  0.00    -0.274 OA
ATOM      9  C   LIG    1       23.043   4.999  50.809  0.00  0.00    +0.234 C 
ATOM     10  C   LIG    1       21.688   4.833  51.479  0.00  0.00    +0.146 C 
ATOM     11  S   LIG    1       21.681   3.065  51.982  0.00  0.00    -0.054 S 
ATOM     12  C   LIG    1       23.113   2.689  51.056  0.00  0.00    +0.279 C 
ATOM     13  O   LIG    1       23.616   1.583  50.999  0.00  0.00    -0.263 OA
ATOM     14  N   LIG    1       23.600   3.805  50.468  0.00  0.00    -0.246 N 
ATOM     15  H   LIG    1       24.509   3.773  50.035  0.00  0.00    +0.158 HD
ENDBRANCH   7  10
ENDBRANCH   1   7
BRANCH   4  16
ATOM     16  O   LIG    1       15.876   7.319  53.003  0.00  0.00    -0.492 OA
BRANCH  16  17
ATOM     17  C   LIG    1       14.740   6.457  52.923  0.00  0.00    +0.235 C 
BRANCH  17  18
ATOM     18  C   LIG    1       14.829   5.229  53.826  0.00  0.00    +0.096 C 
BRANCH  18  19
ATOM     19  C   LIG    1       14.783   3.923  53.053  0.00  0.00    +0.045 A 
ATOM     20  C   LIG    1       15.931   3.278  52.591  0.00  0.00    +0.024 A 
ATOM     21  C   LIG    1       15.820   2.064  51.920  0.00  0.00    +0.007 A 
ATOM     22  C   LIG    1       14.567   1.501  51.694  0.00  0.00    -0.030 A 
ATOM     23  C   LIG    1       13.473   2.218  52.165  0.00  0.00    +0.114 A 
ATOM     24  N   LIG    1       13.554   3.400  52.831  0.00  0.00    -0.260 NA
BRANCH  22  25
ATOM     25  C   LIG    1       14.497   0.176  50.982  0.00  0.00    +0.033 C 
ATOM     26  C   LIG    1       14.324  -1.062  51.848  0.00  0.00    +0.009 C 
ENDBRANCH  22  25
ENDBRANCH  18  19
ENDBRANCH  17  18
ENDBRANCH  16  17
ENDBRANCH   4  16
TORSDOF 7
ENDMDL
MODEL 2
REMARK VINA RESULT:      -2.4      3.078      7.555
REMARK  Name = 
REMARK                            x       y       z     vdW  Elec       q    Type
REMARK                         _______ _______ _______ _____ _____    ______ ____
ROOT
ATOM      1  C   LIG    1       17.231   3.798  51.743  0.00  0.00    -0.046 A 
ATOM      2  C   LIG    1       18.160   2.995  51.079  0.00  0.00    +0.007 A 
ATOM      3  C   LIG    1       19.294   3.554  50.492  0.00  0.00    +0.046 A 
ATOM      4  C   LIG    1       19.516   4.934  50.526  0.00  0.00    +0.121 A 
ATOM      5  C   LIG    1       18.584   5.744  51.173  0.00  0.00    +0.046 A 
ATOM      6  C   LIG    1       17.454   5.181  51.785  0.00  0.00    +0.007 A 
ENDROOT
BRANCH   1   7
ATOM      7  C   LIG    1       16.010   3.168  52.372  0.00  0.00    +0.059 C 
BRANCH   7  10
ATOM      8  O   LIG    1       13.877   1.452  50.619  0.00  0.00    -0.274 OA
ATOM      9  C   LIG    1       14.409   1.297  51.711  0.00  0.00    +0.234 C 
ATOM     10  C   LIG    1       15.839   1.676  52.061  0.00  0.00    +0.146 C 
ATOM     11  S   LIG    1       16.163   0.721  53.598  0.00  0.00    -0.054 S 
ATOM     12  C   LIG    1       14.487   0.272  53.796  0.00  0.00    +0.279 C 
ATOM     13  O   LIG    1       14.067  -0.408  54.713  0.00  0.00    -0.263 OA
ATOM     14  N   LIG    1       13.750   0.741  52.763  0.00  0.00    -0.246 N 
ATOM     15  H   LIG    1       12.799   0.425  52.658  0.00  0.00    +0.158 HD
ENDBRANCH   7  10
ENDBRANCH   1   7
BRANCH   4  16
ATOM     16  O   LIG    1       20.595   5.575  49.953  0.00  0.00    -0.492 OA
BRANCH  16  17
ATOM     17  C   LIG    1       21.633   5.881  50.886  0.00  0.00    +0.235 C 
BRANCH  17  18
ATOM     18  C   LIG    1       22.943   5.143  50.620  0.00  0.00    +0.096 C 
BRANCH  18  19
ATOM     19  C   LIG    1       22.989   3.770  51.267  0.00  0.00    +0.045 A 
ATOM     20  C   LIG    1       22.358   3.486  52.480  0.00  0.00    +0.024 A 
ATOM     21  C   LIG    1       22.409   2.196  53.000  0.00  0.00    +0.007 A 
ATOM     22  C   LIG    1       23.100   1.195  52.323  0.00  0.00    -0.030 A 
ATOM     23  C   LIG    1       23.720   1.566  51.136  0.00  0.00    +0.114 A 
ATOM     24  N   LIG    1       23.679   2.815  50.601  0.00  0.00    -0.260 NA
BRANCH  22  25
ATOM     25  C   LIG    1       23.110  -0.189  52.914  0.00  0.00    +0.033 C 
ATOM     26  C   LIG    1       21.933  -0.570  53.798  0.00  0.00    +0.009 C 
ENDBRANCH  22  25
ENDBRANCH  18  19
ENDBRANCH  17  18
ENDBRANCH  16  17
ENDBRANCH   4  16
TORSDOF 7
ENDMDL
MODEL 3
REMARK VINA RESULT:      -2.4      3.585      7.341
REMARK  Name = 
REMARK                            x       y       z     vdW  Elec       q    Type
REMARK                         _______ _______ _______ _____ _____    ______ ____
ROOT
ATOM      1  C   LIG    1       17.024   3.612  51.855  0.00  0.00    -0.046 A 
ATOM      2  C   LIG    1       17.997   2.796  51.274  0.00  0.00    +0.007 A 
ATOM      3  C   LIG    1       19.111   3.351  50.647  0.00  0.00    +0.046 A 
ATOM      4  C   LIG    1       19.270   4.737  50.557  0.00  0.00    +0.121 A 
ATOM      5  C   LIG    1       18.295   5.559  51.121  0.00  0.00    +0.046 A 
ATOM      6  C   LIG    1       17.184   5.002  51.773  0.00  0.00    +0.007 A 
ENDROOT
BRANCH   1   7
ATOM      7  C   LIG    1       15.825   2.986  52.529  0.00  0.00    +0.059 C 
BRANCH   7  10
ATOM      8  O   LIG    1       13.614   1.477  50.686  0.00  0.00    -0.274 OA
ATOM      9  C   LIG    1       14.131   1.238  51.770  0.00  0.00    +0.234 C 
ATOM     10  C   LIG    1       15.577   1.522  52.142  0.00  0.00    +0.146 C 
ATOM     11  S   LIG    1       15.842   0.475  53.630  0.00  0.00    -0.054 S 
ATOM     12  C   LIG    1       14.143   0.107  53.800  0.00  0.00    +0.279 C 
ATOM     13  O   LIG    1       13.683  -0.595  54.680  0.00  0.00    -0.263 OA
ATOM     14  N   LIG    1       13.438   0.666  52.791  0.00  0.00    -0.246 N 
ATOM     15  H   LIG    1       12.471   0.407  52.667  0.00  0.00    +0.158 HD
ENDBRANCH   7  10
ENDBRANCH   1   7
BRANCH   4  16
ATOM     16  O   LIG    1       20.326   5.373  49.938  0.00  0.00    -0.492 OA
BRANCH  16  17
ATOM     17  C   LIG    1       21.604   4.921  50.387  0.00  0.00    +0.235 C 
BRANCH  17  18
ATOM     18  C   LIG    1       22.009   5.466  51.754  0.00  0.00    +0.096 C 
BRANCH  18  19
ATOM     19  C   LIG    1       21.768   4.475  52.880  0.00  0.00    +0.045 A 
ATOM     20  C   LIG    1       20.776   4.656  53.845  0.00  0.00    +0.024 A 
ATOM     21  C   LIG    1       20.585   3.691  54.829  0.00  0.00    +0.007 A 
ATOM     22  C   LIG    1       21.389   2.555  54.862  0.00  0.00    -0.030 A 
ATOM     23  C   LIG    1       22.368   2.463  53.879  0.00  0.00    +0.114 A 
ATOM     24  N   LIG    1       22.571   3.386  52.903  0.00  0.00    -0.260 NA
BRANCH  22  25
ATOM     25  C   LIG    1       21.131   1.529  55.931  0.00  0.00    +0.033 C 
ATOM     26  C   LIG    1       20.379   1.996  57.169  0.00  0.00    +0.009 C 
ENDBRANCH  22  25
ENDBRANCH  18  19
ENDBRANCH  17  18
ENDBRANCH  16  17
ENDBRANCH   4  16
TORSDOF 7
ENDMDL
MODEL 4
REMARK VINA RESULT:      -2.4      1.723      2.291
REMARK  Name = 
REMARK                            x       y       z     vdW  Elec       q    Type
REMARK                         _______ _______ _______ _____ _____    ______ ____
ROOT
ATOM      1  C   LIG    1       19.983   5.174  51.873  0.00  0.00    -0.046 A 
ATOM      2  C   LIG    1       19.151   5.177  50.752  0.00  0.00    +0.007 A 
ATOM      3  C   LIG    1       17.771   5.304  50.889  0.00  0.00    +0.046 A 
ATOM      4  C   LIG    1       17.179   5.402  52.152  0.00  0.00    +0.121 A 
ATOM      5  C   LIG    1       18.002   5.384  53.278  0.00  0.00    +0.046 A 
ATOM      6  C   LIG    1       19.395   5.280  53.140  0.00  0.00    +0.007 A 
ENDROOT
BRANCH   1   7
ATOM      7  C   LIG    1       21.478   5.036  51.698  0.00  0.00    +0.059 C 
BRANCH   7  10
ATOM      8  O   LIG    1       21.069   2.060  52.942  0.00  0.00    -0.274 OA
ATOM      9  C   LIG    1       22.015   2.658  52.446  0.00  0.00    +0.234 C 
ATOM     10  C   LIG    1       21.936   3.631  51.281  0.00  0.00    +0.146 C 
ATOM     11  S   LIG    1       23.677   3.737  50.702  0.00  0.00    -0.054 S 
ATOM     12  C   LIG    1       24.301   2.890  52.095  0.00  0.00    +0.279 C 
ATOM     13  O   LIG    1       25.480   2.651  52.276  0.00  0.00    -0.263 OA
ATOM     14  N   LIG    1       23.288   2.500  52.901  0.00  0.00    -0.246 N 
ATOM     15  H   LIG    1       23.481   1.864  53.659  0.00  0.00    +0.158 HD
ENDBRANCH   7  10
ENDBRANCH   1   7
BRANCH   4  16
ATOM     16  O   LIG    1       15.823   5.507  52.385  0.00  0.00    -0.492 OA
BRANCH  16  17
ATOM     17  C   LIG    1       15.469   5.350  53.760  0.00  0.00    +0.235 C 
BRANCH  17  18
ATOM     18  C   LIG    1       14.257   4.452  53.990  0.00  0.00    +0.096 C 
BRANCH  18  19
ATOM     19  C   LIG    1       14.393   3.095  53.323  0.00  0.00    +0.045 A 
ATOM     20  C   LIG    1       13.545   2.667  52.300  0.00  0.00    +0.024 A 
ATOM     21  C   LIG    1       13.749   1.425  51.707  0.00  0.00    +0.007 A 
ATOM     22  C   LIG    1       14.783   0.602  52.143  0.00  0.00    -0.030 A 
ATOM     23  C   LIG    1       15.566   1.091  53.183  0.00  0.00    +0.114 A 
ATOM     24  N   LIG    1       15.395   2.303  53.773  0.00  0.00    -0.260 NA
BRANCH  22  25
ATOM     25  C   LIG    1       14.977  -0.724  51.458  0.00  0.00    +0.033 C 
ATOM     26  C   LIG    1       14.942  -0.726  49.938  0.00  0.00    +0.009 C 
ENDBRANCH  22  25
ENDBRANCH  18  19
ENDBRANCH  17  18
ENDBRANCH  16  17
ENDBRANCH   4  16
TORSDOF 7
ENDMDL
MODEL 5
REMARK VINA RESULT:      -2.3      3.359      6.662
REMARK  Name = 
REMARK                            x       y       z     vdW  Elec       q    Type
REMARK                         _______ _______ _______ _____ _____    ______ ____
ROOT
ATOM      1  C   LIG    1       17.629   4.108  51.467  0.00  0.00    -0.046 A 
ATOM      2  C   LIG    1       18.266   4.562  50.311  0.00  0.00    +0.007 A 
ATOM      3  C   LIG    1       18.196   5.903  49.938  0.00  0.00    +0.046 A 
ATOM      4  C   LIG    1       17.462   6.822  50.694  0.00  0.00    +0.121 A 
ATOM      5  C   LIG    1       16.810   6.374  51.841  0.00  0.00    +0.046 A 
ATOM      6  C   LIG    1       16.899   5.028  52.232  0.00  0.00    +0.007 A 
ENDROOT
BRANCH   1   7
ATOM      7  C   LIG    1       17.721   2.649  51.851  0.00  0.00    +0.059 C 
BRANCH   7  10
ATOM      8  O   LIG    1       17.858   0.943  54.615  0.00  0.00    -0.274 OA
ATOM      9  C   LIG    1       17.094   0.963  53.658  0.00  0.00    +0.234 C 
ATOM     10  C   LIG    1       16.677   2.203  52.884  0.00  0.00    +0.146 C 
ATOM     11  S   LIG    1       15.172   1.651  51.985  0.00  0.00    -0.054 S 
ATOM     12  C   LIG    1       15.426  -0.031  52.381  0.00  0.00    +0.279 C 
ATOM     13  O   LIG    1       14.693  -0.934  52.024  0.00  0.00    -0.263 OA
ATOM     14  N   LIG    1       16.511  -0.168  53.175  0.00  0.00    -0.246 N 
ATOM     15  H   LIG    1       16.688  -1.058  53.614  0.00  0.00    +0.158 HD
ENDBRANCH   7  10
ENDBRANCH   1   7
BRANCH   4  16
ATOM     16  O   LIG    1       17.318   8.160  50.389  0.00  0.00    -0.492 OA
BRANCH  16  17
ATOM     17  C   LIG    1       17.759   9.031  51.432  0.00  0.00    +0.235 C 
BRANCH  17  18
ATOM     18  C   LIG    1       19.243   9.382  51.360  0.00  0.00    +0.096 C 
BRANCH  18  19
ATOM     19  C   LIG    1       20.146   8.191  51.631  0.00  0.00    +0.045 A 
ATOM     20  C   LIG    1       20.114   7.477  52.830  0.00  0.00    +0.024 A 
ATOM     21  C   LIG    1       20.944   6.373  52.998  0.00  0.00    +0.007 A 
ATOM     22  C   LIG    1       21.815   5.989  51.982  0.00  0.00    -0.030 A 
ATOM     23  C   LIG    1       21.801   6.767  50.831  0.00  0.00    +0.114 A 
ATOM     24  N   LIG    1       20.996   7.844  50.636  0.00  0.00    -0.260 NA
BRANCH  22  25
ATOM     25  C   LIG    1       22.677   4.775  52.202  0.00  0.00    +0.033 C 
ATOM     26  C   LIG    1       22.252   3.492  51.504  0.00  0.00    +0.009 C 
ENDBRANCH  22  25
ENDBRANCH  18  19
ENDBRANCH  17  18
ENDBRANCH  16  17
ENDBRANCH   4  16
TORSDOF 7
ENDMDL
MODEL 6
REMARK VINA RESULT:      -2.2      3.420      7.794
REMARK  Name = 
REMARK                            x       y       z     vdW  Elec       q    Type
REMARK                         _______ _______ _______ _____ _____    ______ ____
ROOT
ATOM      1  C   LIG    1       17.560   2.852  51.971  0.00  0.00    -0.046 A 
ATOM      2  C   LIG    1       17.967   3.164  50.673  0.00  0.00    +0.007 A 
ATOM      3  C   LIG    1       19.307   3.418  50.388  0.00  0.00    +0.046 A 
ATOM      4  C   LIG    1       20.274   3.396  51.398  0.00  0.00    +0.121 A 
ATOM      5  C   LIG    1       19.872   3.101  52.701  0.00  0.00    +0.046 A 
ATOM      6  C   LIG    1       18.526   2.822  52.985  0.00  0.00    +0.007 A 
ENDROOT
BRANCH   1   7
ATOM      7  C   LIG    1       16.100   2.579  52.254  0.00  0.00    +0.059 C 
BRANCH   7  10
ATOM      8  O   LIG    1       13.578   1.480  50.523  0.00  0.00    -0.274 OA
ATOM      9  C   LIG    1       14.131   1.118  51.553  0.00  0.00    +0.234 C 
ATOM     10  C   LIG    1       15.625   1.184  51.826  0.00  0.00    +0.146 C 
ATOM     11  S   LIG    1       15.845   0.035  53.245  0.00  0.00    -0.054 S 
ATOM     12  C   LIG    1       14.128  -0.108  53.528  0.00  0.00    +0.279 C 
ATOM     13  O   LIG    1       13.636  -0.786  54.411  0.00  0.00    -0.263 OA
ATOM     14  N   LIG    1       13.438   0.592  52.599  0.00  0.00    -0.246 N 
ATOM     15  H   LIG    1       12.439   0.474  52.539  0.00  0.00    +0.158 HD
ENDBRANCH   7  10
ENDBRANCH   1   7
BRANCH   4  16
ATOM     16  O   LIG    1       21.616   3.657  51.214  0.00  0.00    -0.492 OA
BRANCH  16  17
ATOM     17  C   LIG    1       22.025   4.921  51.740  0.00  0.00    +0.235 C 
BRANCH  17  18
ATOM     18  C   LIG    1       21.980   6.059  50.723  0.00  0.00    +0.096 C 
BRANCH  18  19
ATOM     19  C   LIG    1       20.760   6.948  50.886  0.00  0.00    +0.045 A 
ATOM     20  C   LIG    1       19.865   6.815  51.948  0.00  0.00    +0.024 A 
ATOM     21  C   LIG    1       18.786   7.687  52.057  0.00  0.00    +0.007 A 
ATOM     22  C   LIG    1       18.589   8.680  51.102  0.00  0.00    -0.030 A 
ATOM     23  C   LIG    1       19.511   8.730  50.063  0.00  0.00    +0.114 A 
ATOM     24  N   LIG    1       20.578   7.897  49.938  0.00  0.00    -0.260 NA
BRANCH  22  25
ATOM     25  C   LIG    1       17.420   9.613  51.273  0.00  0.00    +0.033 C 
ATOM     26  C   LIG    1       17.066  10.020  52.695  0.00  0.00    +0.009 C 
ENDBRANCH  22  25
ENDBRANCH  18  19
ENDBRANCH  17  18
ENDBRANCH  16  17
ENDBRANCH   4  16
TORSDOF 7
ENDMDL
MODEL 7
REMARK VINA RESULT:      -2.1      2.688      7.369
REMARK  Name = 
REMARK                            x       y       z     vdW  Elec       q    Type
REMARK                         _______ _______ _______ _____ _____    ______ ____
ROOT
ATOM      1  C   LIG    1       17.968   2.689  51.814  0.00  0.00    -0.046 A 
ATOM      2  C   LIG    1       18.719   2.509  52.976  0.00  0.00    +0.007 A 
ATOM      3  C   LIG    1       20.077   2.817  53.001  0.00  0.00    +0.046 A 
ATOM      4  C   LIG    1       20.730   3.286  51.857  0.00  0.00    +0.121 A 
ATOM      5  C   LIG    1       19.990   3.453  50.688  0.00  0.00    +0.046 A 
ATOM      6  C   LIG    1       18.616   3.165  50.667  0.00  0.00    +0.007 A 
ENDROOT
BRANCH   1   7
ATOM      7  C   LIG    1       16.495   2.348  51.812  0.00  0.00    +0.059 C 
BRANCH   7  10
ATOM      8  O   LIG    1       13.806   1.258  53.277  0.00  0.00    -0.274 OA
ATOM      9  C   LIG    1       14.282   2.368  53.079  0.00  0.00    +0.234 C 
ATOM     10  C   LIG    1       15.762   2.715  53.109  0.00  0.00    +0.146 C 
ATOM     11  S   LIG    1       15.761   4.546  53.276  0.00  0.00    -0.054 S 
ATOM     12  C   LIG    1       14.049   4.678  52.961  0.00  0.00    +0.279 C 
ATOM     13  O   LIG    1       13.439   5.730  52.935  0.00  0.00    -0.263 OA
ATOM     14  N   LIG    1       13.503   3.450  52.806  0.00  0.00    -0.246 N 
ATOM     15  H   LIG    1       12.500   3.360  52.778  0.00  0.00    +0.158 HD
ENDBRANCH   7  10
ENDBRANCH   1   7
BRANCH   4  16
ATOM     16  O   LIG    1       22.073   3.593  51.783  0.00  0.00    -0.492 OA
BRANCH  16  17
ATOM     17  C   LIG    1       22.327   4.906  51.280  0.00  0.00    +0.235 C 
BRANCH  17  18
ATOM     18  C   LIG    1       21.883   6.026  52.217  0.00  0.00    +0.096 C 
BRANCH  18  19
ATOM     19  C   LIG    1       20.561   6.651  51.805  0.00  0.00    +0.045 A 
ATOM     20  C   LIG    1       19.434   6.645  52.629  0.00  0.00    +0.024 A 
ATOM     21  C   LIG    1       18.265   7.268  52.204  0.00  0.00    +0.007 A 
ATOM     22  C   LIG    1       18.211   7.880  50.955  0.00  0.00    -0.030 A 
ATOM     23  C   LIG    1       19.368   7.820  50.187  0.00  0.00    +0.114 A 
ATOM     24  N   LIG    1       20.526   7.227  50.581  0.00  0.00    -0.260 NA
BRANCH  22  25
ATOM     25  C   LIG    1       16.931   8.559  50.547  0.00  0.00    +0.033 C 
ATOM     26  C   LIG    1       15.634   7.940  51.045  0.00  0.00    +0.009 C 
ENDBRANCH  22  25
ENDBRANCH  18  19
ENDBRANCH  17  18
ENDBRANCH  16  17
ENDBRANCH   4  16
TORSDOF 7
ENDMDL
MODEL 8
REMARK VINA RESULT:      -2.0      3.182      3.989
REMARK  Name = 
REMARK                            x       y       z     vdW  Elec       q    Type
REMARK                         _______ _______ _______ _____ _____    ______ ____
ROOT
ATOM      1  C   LIG    1       17.218   3.218  51.789  0.00  0.00    -0.046 A 
ATOM      2  C   LIG    1       16.332   2.140  51.833  0.00  0.00    +0.007 A 
ATOM      3  C   LIG    1       15.074   2.275  52.419  0.00  0.00    +0.046 A 
ATOM      4  C   LIG    1       14.679   3.482  53.004  0.00  0.00    +0.121 A 
ATOM      5  C   LIG    1       15.566   4.558  52.978  0.00  0.00    +0.046 A 
ATOM      6  C   LIG    1       16.823   4.431  52.367  0.00  0.00    +0.007 A 
ENDROOT
BRANCH   1   7
ATOM      7  C   LIG    1       18.575   3.046  51.146  0.00  0.00    +0.059 C 
BRANCH   7  10
ATOM      8  O   LIG    1       21.353   4.504  50.295  0.00  0.00    -0.274 OA
ATOM      9  C   LIG    1       21.040   3.699  51.163  0.00  0.00    +0.234 C 
ATOM     10  C   LIG    1       19.728   3.689  51.930  0.00  0.00    +0.146 C 
ATOM     11  S   LIG    1       20.100   2.631  53.386  0.00  0.00    -0.054 S 
ATOM     12  C   LIG    1       21.625   2.087  52.731  0.00  0.00    +0.279 C 
ATOM     13  O   LIG    1       22.370   1.308  53.295  0.00  0.00    -0.263 OA
ATOM     14  N   LIG    1       21.872   2.693  51.548  0.00  0.00    -0.246 N 
ATOM     15  H   LIG    1       22.785   2.600  51.131  0.00  0.00    +0.158 HD
ENDBRANCH   7  10
ENDBRANCH   1   7
BRANCH   4  16
ATOM     16  O   LIG    1       13.467   3.700  53.626  0.00  0.00    -0.492 OA
BRANCH  16  17
ATOM     17  C   LIG    1       13.593   4.075  54.999  0.00  0.00    +0.235 C 
BRANCH  17  18
ATOM     18  C   LIG    1       13.675   2.892  55.960  0.00  0.00    +0.096 C 
BRANCH  18  19
ATOM     19  C   LIG    1       15.068   2.294  56.042  0.00  0.00    +0.045 A 
ATOM     20  C   LIG    1       16.205   3.059  56.309  0.00  0.00    +0.024 A 
ATOM     21  C   LIG    1       17.447   2.441  56.406  0.00  0.00    +0.007 A 
ATOM     22  C   LIG    1       17.563   1.066  56.221  0.00  0.00    -0.030 A 
ATOM     23  C   LIG    1       16.388   0.381  55.934  0.00  0.00    +0.114 A 
ATOM     24  N   LIG    1       15.161   0.958  55.843  0.00  0.00    -0.260 NA
BRANCH  22  25
ATOM     25  C   LIG    1       18.924   0.439  56.356  0.00  0.00    +0.033 C 
ATOM     26  C   LIG    1       19.017  -1.062  56.130  0.00  0.00    +0.009 C 
ENDBRANCH  22  25
ENDBRANCH  18  19
ENDBRANCH  17  18
ENDBRANCH  16  17
ENDBRANCH   4  16
TORSDOF 7
ENDMDL
MODEL 9
REMARK VINA RESULT:      -2.0      2.781      7.432
REMARK  Name = 
REMARK                            x       y       z     vdW  Elec       q    Type
REMARK                         _______ _______ _______ _____ _____    ______ ____
ROOT
ATOM      1  C   LIG    1       19.759   3.808  50.724  0.00  0.00    -0.046 A 
ATOM      2  C   LIG    1       20.722   3.168  51.507  0.00  0.00    +0.007 A 
ATOM      3  C   LIG    1       22.041   3.618  51.524  0.00  0.00    +0.046 A 
ATOM      4  C   LIG    1       22.442   4.701  50.735  0.00  0.00    +0.121 A 
ATOM      5  C   LIG    1       21.489   5.334  49.938  0.00  0.00    +0.046 A 
ATOM      6  C   LIG    1       20.155   4.898  49.938  0.00  0.00    +0.007 A 
ENDROOT
BRANCH   1   7
ATOM      7  C   LIG    1       18.335   3.301  50.724  0.00  0.00    +0.059 C 
BRANCH   7  10
ATOM      8  O   LIG    1       15.990   1.391  51.915  0.00  0.00    -0.274 OA
ATOM      9  C   LIG    1       16.319   2.556  52.096  0.00  0.00    +0.234 C 
ATOM     10  C   LIG    1       17.746   3.080  52.124  0.00  0.00    +0.146 C 
ATOM     11  S   LIG    1       17.578   4.714  52.949  0.00  0.00    -0.054 S 
ATOM     12  C   LIG    1       15.835   4.701  52.851  0.00  0.00    +0.279 C 
ATOM     13  O   LIG    1       15.122   5.595  53.265  0.00  0.00    -0.263 OA
ATOM     14  N   LIG    1       15.403   3.541  52.306  0.00  0.00    -0.246 N 
ATOM     15  H   LIG    1       14.420   3.323  52.333  0.00  0.00    +0.158 HD
ENDBRANCH   7  10
ENDBRANCH   1   7
BRANCH   4  16
ATOM     16  O   LIG    1       23.726   5.199  50.669  0.00  0.00    -0.492 OA
BRANCH  16  17
ATOM     17  C   LIG    1       24.272   5.532  51.947  0.00  0.00    +0.235 C 
BRANCH  17  18
ATOM     18  C   LIG    1       23.741   6.841  52.526  0.00  0.00    +0.096 C 
BRANCH  18  19
ATOM     19  C   LIG    1       22.669   6.630  53.579  0.00  0.00    +0.045 A 
ATOM     20  C   LIG    1       21.356   7.077  53.421  0.00  0.00    +0.024 A 
ATOM     21  C   LIG    1       20.413   6.818  54.411  0.00  0.00    +0.007 A 
ATOM     22  C   LIG    1       20.779   6.129  55.564  0.00  0.00    -0.030 A 
ATOM     23  C   LIG    1       22.110   5.739  55.654  0.00  0.00    +0.114 A 
ATOM     24  N   LIG    1       23.049   5.971  54.699  0.00  0.00    -0.260 NA
BRANCH  22  25
ATOM     25  C   LIG    1       19.720   5.853  56.597  0.00  0.00    +0.033 C 
ATOM     26  C   LIG    1       18.326   6.391  56.315  0.00  0.00    +0.009 C 
ENDBRANCH  22  25
ENDBRANCH  18  19
ENDBRANCH  17  18
ENDBRANCH  16  17
ENDBRANCH   4  16
TORSDOF 7
ENDMDL
