MODEL 1
REMARK VINA RESULT:      -8.7      0.000      0.000
REMARK  Name = 
REMARK                            x       y       z     vdW  Elec       q    Type
REMARK                         _______ _______ _______ _____ _____    ______ ____
ROOT
ATOM      1  C   LIG    1       25.863   2.429  16.441  0.00  0.00    -0.046 A 
ATOM      2  C   LIG    1       26.086   1.189  17.042  0.00  0.00    +0.007 A 
ATOM      3  C   LIG    1       26.204   1.080  18.426  0.00  0.00    +0.046 A 
ATOM      4  C   LIG    1       26.133   2.210  19.246  0.00  0.00    +0.121 A 
ATOM      5  C   LIG    1       25.927   3.454  18.651  0.00  0.00    +0.046 A 
ATOM      6  C   LIG    1       25.784   3.563  17.259  0.00  0.00    +0.007 A 
ENDROOT
BRANCH   1   7
ATOM      7  C   LIG    1       25.737   2.521  14.937  0.00  0.00    +0.059 C 
BRANCH   7  10
ATOM      8  O   LIG    1       22.879   3.892  15.659  0.00  0.00    -0.274 OA
ATOM      9  C   LIG    1       23.490   3.683  14.619  0.00  0.00    +0.234 C 
ATOM     10  C   LIG    1       24.997   3.771  14.443  0.00  0.00    +0.146 C 
ATOM     11  S   LIG    1       25.202   3.884  12.619  0.00  0.00    -0.054 S 
ATOM     12  C   LIG    1       23.532   3.485  12.303  0.00  0.00    +0.279 C 
ATOM     13  O   LIG    1       23.050   3.400  11.189  0.00  0.00    -0.263 OA
ATOM     14  N   LIG    1       22.854   3.342  13.465  0.00  0.00    -0.246 N 
ATOM     15  H   LIG    1       21.849   3.269  13.440  0.00  0.00    +0.158 HD
ENDBRANCH   7  10
ENDBRANCH   1   7
BRANCH   4  16
ATOM     16  O   LIG    1       26.262   2.200  20.620  0.00  0.00    -0.492 OA
BRANCH  16  17
ATOM     17  C   LIG    1       27.382   2.953  21.090  0.00  0.00    +0.235 C 
BRANCH  17  18
ATOM     18  C   LIG    1       28.701   2.589  20.413  0.00  0.00    +0.096 C 
BRANCH  18  19
ATOM     19  C   LIG    1       29.343   1.346  21.003  0.00  0.00    +0.045 A 
ATOM     20  C   LIG    1       28.682   0.119  21.081  0.00  0.00    +0.024 A 
ATOM     21  C   LIG    1       29.343  -0.990  21.600  0.00  0.00    +0.007 A 
ATOM     22  C   LIG    1       30.653  -0.876  22.056  0.00  0.00    -0.030 A 
ATOM     23  C   LIG    1       31.231   0.385  21.964  0.00  0.00    +0.114 A 
ATOM     24  N   LIG    1       30.612   1.482  21.454  0.00  0.00    -0.260 NA
BRANCH  22  25
ATOM     25  C   LIG    1       31.334  -2.108  22.589  0.00  0.00    +0.033 C 
ATOM     26  C   LIG    1       30.568  -3.418  22.485  0.00  0.00    +0.009 C 
ENDBRANCH  22  25
ENDBRANCH  18  19
ENDBRANCH  17  18
ENDBRANCH  16  17
ENDBRANCH   4  16
TORSDOF 7
ENDMDL
MODEL 2
REMARK VINA RESULT:      -7.9      3.551      9.930
REMARK  Name = 
REMARK                            x       y       z     vdW  Elec       q    Type
REMARK                         _______ _______ _______ _____ _____    ______ ____
ROOT
ATOM      1  C   LIG    1       27.983  -0.579  20.064  0.00  0.00    -0.046 A 
ATOM      2  C   LIG    1       27.535  -1.354  18.993  0.00  0.00    +0.007 A 
ATOM      3  C   LIG    1       26.731  -0.798  17.999  0.00  0.00    +0.046 A 
ATOM      4  C   LIG    1       26.327   0.539  18.064  0.00  0.00    +0.121 A 
ATOM      5  C   LIG    1       26.758   1.315  19.140  0.00  0.00    +0.046 A 
ATOM      6  C   LIG    1       27.587   0.764  20.129  0.00  0.00    +0.007 A 
ENDROOT
BRANCH   1   7
ATOM      7  C   LIG    1       28.855  -1.204  21.129  0.00  0.00    +0.059 C 
BRANCH   7  10
ATOM      8  O   LIG    1       31.223   0.997  21.472  0.00  0.00    -0.274 OA
ATOM      9  C   LIG    1       30.734   0.145  22.203  0.00  0.00    +0.234 C 
ATOM     10  C   LIG    1       29.265  -0.242  22.252  0.00  0.00    +0.146 C 
ATOM     11  S   LIG    1       29.117  -1.128  23.857  0.00  0.00    -0.054 S 
ATOM     12  C   LIG    1       30.845  -1.207  24.090  0.00  0.00    +0.279 C 
ATOM     13  O   LIG    1       31.380  -1.726  25.052  0.00  0.00    -0.263 OA
ATOM     14  N   LIG    1       31.486  -0.568  23.085  0.00  0.00    -0.246 N 
ATOM     15  H   LIG    1       32.475  -0.393  23.168  0.00  0.00    +0.158 HD
ENDBRANCH   7  10
ENDBRANCH   1   7
BRANCH   4  16
ATOM     16  O   LIG    1       25.515   1.166  17.142  0.00  0.00    -0.492 OA
BRANCH  16  17
ATOM     17  C   LIG    1       25.218   2.522  17.477  0.00  0.00    +0.235 C 
BRANCH  17  18
ATOM     18  C   LIG    1       25.902   3.548  16.577  0.00  0.00    +0.096 C 
BRANCH  18  19
ATOM     19  C   LIG    1       25.199   3.726  15.243  0.00  0.00    +0.045 A 
ATOM     20  C   LIG    1       25.888   3.828  14.033  0.00  0.00    +0.024 A 
ATOM     21  C   LIG    1       25.180   3.954  12.842  0.00  0.00    +0.007 A 
ATOM     22  C   LIG    1       23.788   3.994  12.856  0.00  0.00    -0.030 A 
ATOM     23  C   LIG    1       23.180   3.910  14.103  0.00  0.00    +0.114 A 
ATOM     24  N   LIG    1       23.847   3.778  15.280  0.00  0.00    -0.260 NA
BRANCH  22  25
ATOM     25  C   LIG    1       23.064   4.109  11.541  0.00  0.00    +0.033 C 
ATOM     26  C   LIG    1       22.693   2.810  10.843  0.00  0.00    +0.009 C 
ENDBRANCH  22  25
ENDBRANCH  18  19
ENDBRANCH  17  18
ENDBRANCH  16  17
ENDBRANCH   4  16
TORSDOF 7
ENDMDL
MODEL 3
REMARK VINA RESULT:      -7.4      3.610      9.547
REMARK  Name = 
REMARK                            x       y       z     vdW  Elec       q    Type
REMARK                         _______ _______ _______ _____ _____    ______ ____
ROOT
ATOM      1  C   LIG    1       27.973   0.289  20.630  0.00  0.00    -0.046 A 
ATOM      2  C   LIG    1       26.679   0.484  21.113  0.00  0.00    +0.007 A 
ATOM      3  C   LIG    1       26.026   1.701  20.932  0.00  0.00    +0.046 A 
ATOM      4  C   LIG    1       26.660   2.769  20.288  0.00  0.00    +0.121 A 
ATOM      5  C   LIG    1       27.959   2.587  19.816  0.00  0.00    +0.046 A 
ATOM      6  C   LIG    1       28.609   1.353  19.977  0.00  0.00    +0.007 A 
ENDROOT
BRANCH   1   7
ATOM      7  C   LIG    1       28.660  -1.042  20.838  0.00  0.00    +0.059 C 
BRANCH   7  10
ATOM      8  O   LIG    1       31.199  -3.045  20.512  0.00  0.00    -0.274 OA
ATOM      9  C   LIG    1       30.817  -2.283  21.392  0.00  0.00    +0.234 C 
ATOM     10  C   LIG    1       30.155  -0.934  21.169  0.00  0.00    +0.146 C 
ATOM     11  S   LIG    1       30.330  -0.104  22.800  0.00  0.00    -0.054 S 
ATOM     12  C   LIG    1       30.856  -1.563  23.602  0.00  0.00    +0.279 C 
ATOM     13  O   LIG    1       31.136  -1.629  24.784  0.00  0.00    -0.263 OA
ATOM     14  N   LIG    1       30.958  -2.578  22.713  0.00  0.00    -0.246 N 
ATOM     15  H   LIG    1       31.402  -3.436  22.998  0.00  0.00    +0.158 HD
ENDBRANCH   7  10
ENDBRANCH   1   7
BRANCH   4  16
ATOM     16  O   LIG    1       26.101   4.014  20.084  0.00  0.00    -0.492 OA
BRANCH  16  17
ATOM     17  C   LIG    1       25.801   4.284  18.714  0.00  0.00    +0.235 C 
BRANCH  17  18
ATOM     18  C   LIG    1       25.314   3.065  17.934  0.00  0.00    +0.096 C 
BRANCH  18  19
ATOM     19  C   LIG    1       25.025   3.373  16.476  0.00  0.00    +0.045 A 
ATOM     20  C   LIG    1       26.015   3.365  15.492  0.00  0.00    +0.024 A 
ATOM     21  C   LIG    1       25.675   3.622  14.167  0.00  0.00    +0.007 A 
ATOM     22  C   LIG    1       24.356   3.903  13.824  0.00  0.00    -0.030 A 
ATOM     23  C   LIG    1       23.436   3.916  14.866  0.00  0.00    +0.114 A 
ATOM     24  N   LIG    1       23.739   3.660  16.166  0.00  0.00    -0.260 NA
BRANCH  22  25
ATOM     25  C   LIG    1       24.032   4.154  12.376  0.00  0.00    +0.033 C 
ATOM     26  C   LIG    1       23.110   3.155  11.693  0.00  0.00    +0.009 C 
ENDBRANCH  22  25
ENDBRANCH  18  19
ENDBRANCH  17  18
ENDBRANCH  16  17
ENDBRANCH   4  16
TORSDOF 7
ENDMDL
MODEL 4
REMARK VINA RESULT:      -7.3      3.393      9.944
REMARK  Name = 
REMARK                            x       y       z     vdW  Elec       q    Type
REMARK                         _______ _______ _______ _____ _____    ______ ____
ROOT
ATOM      1  C   LIG    1       27.567  -0.220  20.950  0.00  0.00    -0.046 A 
ATOM      2  C   LIG    1       27.249   1.135  20.851  0.00  0.00    +0.007 A 
ATOM      3  C   LIG    1       26.646   1.644  19.702  0.00  0.00    +0.046 A 
ATOM      4  C   LIG    1       26.372   0.818  18.608  0.00  0.00    +0.121 A 
ATOM      5  C   LIG    1       26.702  -0.534  18.693  0.00  0.00    +0.046 A 
ATOM      6  C   LIG    1       27.287  -1.053  19.858  0.00  0.00    +0.007 A 
ENDROOT
BRANCH   1   7
ATOM      7  C   LIG    1       28.219  -0.748  22.208  0.00  0.00    +0.059 C 
BRANCH   7  10
ATOM      8  O   LIG    1       29.929  -2.992  23.823  0.00  0.00    -0.274 OA
ATOM      9  C   LIG    1       30.213  -1.944  23.256  0.00  0.00    +0.234 C 
ATOM     10  C   LIG    1       29.574  -1.430  21.975  0.00  0.00    +0.146 C 
ATOM     11  S   LIG    1       30.769  -0.161  21.390  0.00  0.00    -0.054 S 
ATOM     12  C   LIG    1       31.676  -0.178  22.882  0.00  0.00    +0.279 C 
ATOM     13  O   LIG    1       32.652   0.516  23.094  0.00  0.00    -0.263 OA
ATOM     14  N   LIG    1       31.171  -1.102  23.730  0.00  0.00    -0.246 N 
ATOM     15  H   LIG    1       31.687  -1.337  24.563  0.00  0.00    +0.158 HD
ENDBRANCH   7  10
ENDBRANCH   1   7
BRANCH   4  16
ATOM     16  O   LIG    1       25.801   1.237  17.424  0.00  0.00    -0.492 OA
BRANCH  16  17
ATOM     17  C   LIG    1       25.004   2.414  17.564  0.00  0.00    +0.235 C 
BRANCH  17  18
ATOM     18  C   LIG    1       25.534   3.618  16.790  0.00  0.00    +0.096 C 
BRANCH  18  19
ATOM     19  C   LIG    1       24.948   3.726  15.393  0.00  0.00    +0.045 A 
ATOM     20  C   LIG    1       23.575   3.806  15.154  0.00  0.00    +0.024 A 
ATOM     21  C   LIG    1       23.107   3.940  13.850  0.00  0.00    +0.007 A 
ATOM     22  C   LIG    1       24.003   3.977  12.785  0.00  0.00    -0.030 A 
ATOM     23  C   LIG    1       25.351   3.867  13.106  0.00  0.00    +0.114 A 
ATOM     24  N   LIG    1       25.835   3.745  14.370  0.00  0.00    -0.260 NA
BRANCH  22  25
ATOM     25  C   LIG    1       23.451   4.144  11.394  0.00  0.00    +0.033 C 
ATOM     26  C   LIG    1       22.590   3.012  10.854  0.00  0.00    +0.009 C 
ENDBRANCH  22  25
ENDBRANCH  18  19
ENDBRANCH  17  18
ENDBRANCH  16  17
ENDBRANCH   4  16
TORSDOF 7
ENDMDL
MODEL 5
REMARK VINA RESULT:      -6.7      3.753      9.256
REMARK  Name = 
REMARK                            x       y       z     vdW  Elec       q    Type
REMARK                         _______ _______ _______ _____ _____    ______ ____
ROOT
ATOM      1  C   LIG    1       28.258  -0.137  20.485  0.00  0.00    -0.046 A 
ATOM      2  C   LIG    1       29.020   1.025  20.349  0.00  0.00    +0.007 A 
ATOM      3  C   LIG    1       28.410   2.277  20.316  0.00  0.00    +0.046 A 
ATOM      4  C   LIG    1       27.020   2.403  20.388  0.00  0.00    +0.121 A 
ATOM      5  C   LIG    1       26.250   1.246  20.508  0.00  0.00    +0.046 A 
ATOM      6  C   LIG    1       26.864  -0.015  20.565  0.00  0.00    +0.007 A 
ENDROOT
BRANCH   1   7
ATOM      7  C   LIG    1       28.943  -1.484  20.520  0.00  0.00    +0.059 C 
BRANCH   7  10
ATOM      8  O   LIG    1       28.127  -0.492  23.506  0.00  0.00    -0.274 OA
ATOM      9  C   LIG    1       29.150  -0.939  23.002  0.00  0.00    +0.234 C 
ATOM     10  C   LIG    1       29.212  -2.018  21.933  0.00  0.00    +0.146 C 
ATOM     11  S   LIG    1       30.957  -2.591  22.015  0.00  0.00    -0.054 S 
ATOM     12  C   LIG    1       31.449  -1.275  23.051  0.00  0.00    +0.279 C 
ATOM     13  O   LIG    1       32.584  -1.118  23.461  0.00  0.00    -0.263 OA
ATOM     14  N   LIG    1       30.386  -0.502  23.367  0.00  0.00    -0.246 N 
ATOM     15  H   LIG    1       30.486   0.199  24.084  0.00  0.00    +0.158 HD
ENDBRANCH   7  10
ENDBRANCH   1   7
BRANCH   4  16
ATOM     16  O   LIG    1       26.329   3.596  20.339  0.00  0.00    -0.492 OA
BRANCH  16  17
ATOM     17  C   LIG    1       25.981   3.997  19.013  0.00  0.00    +0.235 C 
BRANCH  17  18
ATOM     18  C   LIG    1       25.073   3.008  18.285  0.00  0.00    +0.096 C 
BRANCH  18  19
ATOM     19  C   LIG    1       24.984   3.277  16.793  0.00  0.00    +0.045 A 
ATOM     20  C   LIG    1       23.802   3.675  16.167  0.00  0.00    +0.024 A 
ATOM     21  C   LIG    1       23.798   3.940  14.801  0.00  0.00    +0.007 A 
ATOM     22  C   LIG    1       24.965   3.793  14.056  0.00  0.00    -0.030 A 
ATOM     23  C   LIG    1       26.093   3.371  14.750  0.00  0.00    +0.114 A 
ATOM     24  N   LIG    1       26.126   3.114  16.084  0.00  0.00    -0.260 NA
BRANCH  22  25
ATOM     25  C   LIG    1       24.918   4.112  12.586  0.00  0.00    +0.033 C 
ATOM     26  C   LIG    1       26.245   4.131  11.842  0.00  0.00    +0.009 C 
ENDBRANCH  22  25
ENDBRANCH  18  19
ENDBRANCH  17  18
ENDBRANCH  16  17
ENDBRANCH   4  16
TORSDOF 7
ENDMDL
MODEL 6
REMARK VINA RESULT:      -6.5      3.274      9.457
REMARK  Name = 
REMARK                            x       y       z     vdW  Elec       q    Type
REMARK                         _______ _______ _______ _____ _____    ______ ____
ROOT
ATOM      1  C   LIG    1       28.518   1.368  21.410  0.00  0.00    -0.046 A 
ATOM      2  C   LIG    1       27.138   1.164  21.464  0.00  0.00    +0.007 A 
ATOM      3  C   LIG    1       26.268   1.992  20.757  0.00  0.00    +0.046 A 
ATOM      4  C   LIG    1       26.750   3.064  20.001  0.00  0.00    +0.121 A 
ATOM      5  C   LIG    1       28.126   3.284  19.955  0.00  0.00    +0.046 A 
ATOM      6  C   LIG    1       29.006   2.437  20.647  0.00  0.00    +0.007 A 
ENDROOT
BRANCH   1   7
ATOM      7  C   LIG    1       29.441   0.456  22.185  0.00  0.00    +0.059 C 
BRANCH   7  10
ATOM      8  O   LIG    1       29.912  -2.120  24.111  0.00  0.00    -0.274 OA
ATOM      9  C   LIG    1       30.003  -1.925  22.906  0.00  0.00    +0.234 C 
ATOM     10  C   LIG    1       29.088  -1.034  22.081  0.00  0.00    +0.146 C 
ATOM     11  S   LIG    1       29.403  -1.587  20.357  0.00  0.00    -0.054 S 
ATOM     12  C   LIG    1       30.790  -2.548  20.809  0.00  0.00    +0.279 C 
ATOM     13  O   LIG    1       31.460  -3.190  20.023  0.00  0.00    -0.263 OA
ATOM     14  N   LIG    1       30.968  -2.514  22.149  0.00  0.00    -0.246 N 
ATOM     15  H   LIG    1       31.629  -3.148  22.571  0.00  0.00    +0.158 HD
ENDBRANCH   7  10
ENDBRANCH   1   7
BRANCH   4  16
ATOM     16  O   LIG    1       25.963   3.947  19.290  0.00  0.00    -0.492 OA
BRANCH  16  17
ATOM     17  C   LIG    1       25.196   3.322  18.259  0.00  0.00    +0.235 C 
BRANCH  17  18
ATOM     18  C   LIG    1       26.005   2.963  17.015  0.00  0.00    +0.096 C 
BRANCH  18  19
ATOM     19  C   LIG    1       25.278   3.293  15.724  0.00  0.00    +0.045 A 
ATOM     20  C   LIG    1       23.908   3.557  15.674  0.00  0.00    +0.024 A 
ATOM     21  C   LIG    1       23.311   3.889  14.462  0.00  0.00    +0.007 A 
ATOM     22  C   LIG    1       24.072   3.942  13.298  0.00  0.00    -0.030 A 
ATOM     23  C   LIG    1       25.423   3.642  13.428  0.00  0.00    +0.114 A 
ATOM     24  N   LIG    1       26.033   3.324  14.600  0.00  0.00    -0.260 NA
BRANCH  22  25
ATOM     25  C   LIG    1       23.387   4.326  12.014  0.00  0.00    +0.033 C 
ATOM     26  C   LIG    1       22.833   3.193  11.163  0.00  0.00    +0.009 C 
ENDBRANCH  22  25
ENDBRANCH  18  19
ENDBRANCH  17  18
ENDBRANCH  16  17
ENDBRANCH   4  16
TORSDOF 7
ENDMDL
MODEL 7
REMARK VINA RESULT:      -5.8      1.563      2.034
REMARK  Name = 
REMARK                            x       y       z     vdW  Elec       q    Type
REMARK                         _______ _______ _______ _____ _____    ______ ____
ROOT
ATOM      1  C   LIG    1       25.584   2.603  16.466  0.00  0.00    -0.046 A 
ATOM      2  C   LIG    1       25.418   3.846  17.078  0.00  0.00    +0.007 A 
ATOM      3  C   LIG    1       25.762   4.034  18.416  0.00  0.00    +0.046 A 
ATOM      4  C   LIG    1       26.254   2.977  19.187  0.00  0.00    +0.121 A 
ATOM      5  C   LIG    1       26.407   1.727  18.587  0.00  0.00    +0.046 A 
ATOM      6  C   LIG    1       26.084   1.542  17.234  0.00  0.00    +0.007 A 
ENDROOT
BRANCH   1   7
ATOM      7  C   LIG    1       25.205   2.425  15.014  0.00  0.00    +0.059 C 
BRANCH   7  10
ATOM      8  O   LIG    1       22.820   3.401  13.033  0.00  0.00    -0.274 OA
ATOM      9  C   LIG    1       24.036   3.540  13.041  0.00  0.00    +0.234 C 
ATOM     10  C   LIG    1       24.897   3.736  14.278  0.00  0.00    +0.146 C 
ATOM     11  S   LIG    1       26.469   4.402  13.596  0.00  0.00    -0.054 S 
ATOM     12  C   LIG    1       26.021   4.052  11.945  0.00  0.00    +0.279 C 
ATOM     13  O   LIG    1       26.726   4.289  10.983  0.00  0.00    -0.263 OA
ATOM     14  N   LIG    1       24.771   3.538  11.895  0.00  0.00    -0.246 N 
ATOM     15  H   LIG    1       24.318   3.438  11.001  0.00  0.00    +0.158 HD
ENDBRANCH   7  10
ENDBRANCH   1   7
BRANCH   4  16
ATOM     16  O   LIG    1       26.597   3.063  20.521  0.00  0.00    -0.492 OA
BRANCH  16  17
ATOM     17  C   LIG    1       25.936   2.098  21.341  0.00  0.00    +0.235 C 
BRANCH  17  18
ATOM     18  C   LIG    1       26.365   0.658  21.072  0.00  0.00    +0.096 C 
BRANCH  18  19
ATOM     19  C   LIG    1       27.763   0.354  21.579  0.00  0.00    +0.045 A 
ATOM     20  C   LIG    1       28.026  -0.649  22.514  0.00  0.00    +0.024 A 
ATOM     21  C   LIG    1       29.336  -0.900  22.910  0.00  0.00    +0.007 A 
ATOM     22  C   LIG    1       30.382  -0.143  22.389  0.00  0.00    -0.030 A 
ATOM     23  C   LIG    1       30.033   0.851  21.482  0.00  0.00    +0.114 A 
ATOM     24  N   LIG    1       28.764   1.111  21.072  0.00  0.00    -0.260 NA
BRANCH  22  25
ATOM     25  C   LIG    1       31.784  -0.465  22.830  0.00  0.00    +0.033 C 
ATOM     26  C   LIG    1       31.943  -1.549  23.885  0.00  0.00    +0.009 C 
ENDBRANCH  22  25
ENDBRANCH  18  19
ENDBRANCH  17  18
ENDBRANCH  16  17
ENDBRANCH   4  16
TORSDOF 7
ENDMDL
