MODEL 1
REMARK VINA RESULT:      -8.9      0.000      0.000
REMARK  Name = 
REMARK                            x       y       z     vdW  Elec       q    Type
REMARK                         _______ _______ _______ _____ _____    ______ ____
ROOT
ATOM      1  C   LIG    1        7.050  20.174  28.000  0.00  0.00    -0.046 A 
ATOM      2  C   LIG    1        5.833  19.849  27.400  0.00  0.00    +0.007 A 
ATOM      3  C   LIG    1        4.721  19.524  28.174  0.00  0.00    +0.046 A 
ATOM      4  C   LIG    1        4.802  19.485  29.570  0.00  0.00    +0.121 A 
ATOM      5  C   LIG    1        6.020  19.793  30.176  0.00  0.00    +0.046 A 
ATOM      6  C   LIG    1        7.134  20.144  29.399  0.00  0.00    +0.007 A 
ENDROOT
BRANCH   1   7
ATOM      7  C   LIG    1        8.242  20.524  27.138  0.00  0.00    +0.059 C 
BRANCH   7  10
ATOM      8  O   LIG    1        9.727  21.056  24.296  0.00  0.00    -0.274 OA
ATOM      9  C   LIG    1        9.120  21.763  25.090  0.00  0.00    +0.234 C 
ATOM     10  C   LIG    1        7.897  21.348  25.891  0.00  0.00    +0.146 C 
ATOM     11  S   LIG    1        7.184  22.953  26.434  0.00  0.00    -0.054 S 
ATOM     12  C   LIG    1        8.587  23.864  25.930  0.00  0.00    +0.279 C 
ATOM     13  O   LIG    1        8.698  25.069  26.053  0.00  0.00    -0.263 OA
ATOM     14  N   LIG    1        9.491  23.048  25.343  0.00  0.00    -0.246 N 
ATOM     15  H   LIG    1       10.277  23.454  24.860  0.00  0.00    +0.158 HD
ENDBRANCH   7  10
ENDBRANCH   1   7
BRANCH   4  16
ATOM     16  O   LIG    1        3.763  19.153  30.413  0.00  0.00    -0.492 OA
BRANCH  16  17
ATOM     17  C   LIG    1        3.084  17.955  30.033  0.00  0.00    +0.235 C 
BRANCH  17  18
ATOM     18  C   LIG    1        3.106  16.863  31.100  0.00  0.00    +0.096 C 
BRANCH  18  19
ATOM     19  C   LIG    1        2.632  17.354  32.456  0.00  0.00    +0.045 A 
ATOM     20  C   LIG    1        3.502  17.864  33.421  0.00  0.00    +0.024 A 
ATOM     21  C   LIG    1        2.996  18.331  34.631  0.00  0.00    +0.007 A 
ATOM     22  C   LIG    1        1.629  18.275  34.886  0.00  0.00    -0.030 A 
ATOM     23  C   LIG    1        0.834  17.732  33.883  0.00  0.00    +0.114 A 
ATOM     24  N   LIG    1        1.301  17.278  32.690  0.00  0.00    -0.260 NA
BRANCH  22  25
ATOM     25  C   LIG    1        1.126  18.812  36.199  0.00  0.00    +0.033 C 
ATOM     26  C   LIG    1        2.036  19.776  36.944  0.00  0.00    +0.009 C 
ENDBRANCH  22  25
ENDBRANCH  18  19
ENDBRANCH  17  18
ENDBRANCH  16  17
ENDBRANCH   4  16
TORSDOF 7
ENDMDL
MODEL 2
REMARK VINA RESULT:      -8.8      1.543      1.995
REMARK  Name = 
REMARK                            x       y       z     vdW  Elec       q    Type
REMARK                         _______ _______ _______ _____ _____    ______ ____
ROOT
ATOM      1  C   LIG    1        7.286  20.689  28.867  0.00  0.00    -0.046 A 
ATOM      2  C   LIG    1        7.925  19.944  29.859  0.00  0.00    +0.007 A 
ATOM      3  C   LIG    1        7.202  19.075  30.674  0.00  0.00    +0.046 A 
ATOM      4  C   LIG    1        5.816  18.947  30.539  0.00  0.00    +0.121 A 
ATOM      5  C   LIG    1        5.169  19.701  29.560  0.00  0.00    +0.046 A 
ATOM      6  C   LIG    1        5.898  20.559  28.723  0.00  0.00    +0.007 A 
ENDROOT
BRANCH   1   7
ATOM      7  C   LIG    1        8.092  21.625  27.996  0.00  0.00    +0.059 C 
BRANCH   7  10
ATOM      8  O   LIG    1        7.380  19.375  25.760  0.00  0.00    -0.274 OA
ATOM      9  C   LIG    1        7.992  20.436  25.742  0.00  0.00    +0.234 C 
ATOM     10  C   LIG    1        7.628  21.681  26.534  0.00  0.00    +0.146 C 
ATOM     11  S   LIG    1        8.566  23.012  25.678  0.00  0.00    -0.054 S 
ATOM     12  C   LIG    1        9.500  21.884  24.727  0.00  0.00    +0.279 C 
ATOM     13  O   LIG    1       10.351  22.213  23.922  0.00  0.00    -0.263 OA
ATOM     14  N   LIG    1        9.103  20.616  24.977  0.00  0.00    -0.246 N 
ATOM     15  H   LIG    1        9.439  19.872  24.386  0.00  0.00    +0.158 HD
ENDBRANCH   7  10
ENDBRANCH   1   7
BRANCH   4  16
ATOM     16  O   LIG    1        5.018  18.131  31.314  0.00  0.00    -0.492 OA
BRANCH  16  17
ATOM     17  C   LIG    1        4.577  16.956  30.632  0.00  0.00    +0.235 C 
BRANCH  17  18
ATOM     18  C   LIG    1        3.059  16.792  30.596  0.00  0.00    +0.096 C 
BRANCH  18  19
ATOM     19  C   LIG    1        2.398  17.127  31.922  0.00  0.00    +0.045 A 
ATOM     20  C   LIG    1        2.296  16.208  32.967  0.00  0.00    +0.024 A 
ATOM     21  C   LIG    1        1.710  16.592  34.170  0.00  0.00    +0.007 A 
ATOM     22  C   LIG    1        1.211  17.882  34.326  0.00  0.00    -0.030 A 
ATOM     23  C   LIG    1        1.331  18.727  33.229  0.00  0.00    +0.114 A 
ATOM     24  N   LIG    1        1.906  18.382  32.047  0.00  0.00    -0.260 NA
BRANCH  22  25
ATOM     25  C   LIG    1        0.605  18.258  35.651  0.00  0.00    +0.033 C 
ATOM     26  C   LIG    1        1.443  19.135  36.568  0.00  0.00    +0.009 C 
ENDBRANCH  22  25
ENDBRANCH  18  19
ENDBRANCH  17  18
ENDBRANCH  16  17
ENDBRANCH   4  16
TORSDOF 7
ENDMDL
MODEL 3
REMARK VINA RESULT:      -8.3      3.369     10.036
REMARK  Name = 
REMARK                            x       y       z     vdW  Elec       q    Type
REMARK                         _______ _______ _______ _____ _____    ______ ____
ROOT
ATOM      1  C   LIG    1        2.533  17.954  30.717  0.00  0.00    -0.046 A 
ATOM      2  C   LIG    1        3.740  17.253  30.750  0.00  0.00    +0.007 A 
ATOM      3  C   LIG    1        4.565  17.203  29.628  0.00  0.00    +0.046 A 
ATOM      4  C   LIG    1        4.194  17.826  28.433  0.00  0.00    +0.121 A 
ATOM      5  C   LIG    1        2.982  18.514  28.387  0.00  0.00    +0.046 A 
ATOM      6  C   LIG    1        2.160  18.586  29.523  0.00  0.00    +0.007 A 
ENDROOT
BRANCH   1   7
ATOM      7  C   LIG    1        1.655  17.994  31.947  0.00  0.00    +0.059 C 
BRANCH   7  10
ATOM      8  O   LIG    1        1.076  15.391  33.805  0.00  0.00    -0.274 OA
ATOM      9  C   LIG    1        1.365  16.558  34.034  0.00  0.00    +0.234 C 
ATOM     10  C   LIG    1        2.311  17.414  33.208  0.00  0.00    +0.146 C 
ATOM     11  S   LIG    1        2.719  18.804  34.341  0.00  0.00    -0.054 S 
ATOM     12  C   LIG    1        1.481  18.365  35.492  0.00  0.00    +0.279 C 
ATOM     13  O   LIG    1        1.261  18.974  36.522  0.00  0.00    -0.263 OA
ATOM     14  N   LIG    1        0.853  17.234  35.099  0.00  0.00    -0.246 N 
ATOM     15  H   LIG    1        0.227  16.772  35.740  0.00  0.00    +0.158 HD
ENDBRANCH   7  10
ENDBRANCH   1   7
BRANCH   4  16
ATOM     16  O   LIG    1        4.934  17.809  27.269  0.00  0.00    -0.492 OA
BRANCH  16  17
ATOM     17  C   LIG    1        4.885  19.041  26.548  0.00  0.00    +0.235 C 
BRANCH  17  18
ATOM     18  C   LIG    1        5.480  20.226  27.305  0.00  0.00    +0.096 C 
BRANCH  18  19
ATOM     19  C   LIG    1        6.731  20.779  26.646  0.00  0.00    +0.045 A 
ATOM     20  C   LIG    1        7.586  19.995  25.870  0.00  0.00    +0.024 A 
ATOM     21  C   LIG    1        8.697  20.574  25.265  0.00  0.00    +0.007 A 
ATOM     22  C   LIG    1        8.967  21.928  25.446  0.00  0.00    -0.030 A 
ATOM     23  C   LIG    1        8.081  22.632  26.252  0.00  0.00    +0.114 A 
ATOM     24  N   LIG    1        6.984  22.094  26.847  0.00  0.00    -0.260 NA
BRANCH  22  25
ATOM     25  C   LIG    1       10.169  22.514  24.754  0.00  0.00    +0.033 C 
ATOM     26  C   LIG    1       10.531  21.937  23.394  0.00  0.00    +0.009 C 
ENDBRANCH  22  25
ENDBRANCH  18  19
ENDBRANCH  17  18
ENDBRANCH  16  17
ENDBRANCH   4  16
TORSDOF 7
ENDMDL
MODEL 4
REMARK VINA RESULT:      -8.2      3.331      9.534
REMARK  Name = 
REMARK                            x       y       z     vdW  Elec       q    Type
REMARK                         _______ _______ _______ _____ _____    ______ ____
ROOT
ATOM      1  C   LIG    1        3.771  16.986  31.105  0.00  0.00    -0.046 A 
ATOM      2  C   LIG    1        3.715  17.264  29.738  0.00  0.00    +0.007 A 
ATOM      3  C   LIG    1        4.671  18.081  29.137  0.00  0.00    +0.046 A 
ATOM      4  C   LIG    1        5.692  18.668  29.891  0.00  0.00    +0.121 A 
ATOM      5  C   LIG    1        5.745  18.408  31.260  0.00  0.00    +0.046 A 
ATOM      6  C   LIG    1        4.798  17.566  31.862  0.00  0.00    +0.007 A 
ENDROOT
BRANCH   1   7
ATOM      7  C   LIG    1        2.724  16.096  31.733  0.00  0.00    +0.059 C 
BRANCH   7  10
ATOM      8  O   LIG    1        1.086  18.832  31.100  0.00  0.00    -0.274 OA
ATOM      9  C   LIG    1        1.570  18.338  32.111  0.00  0.00    +0.234 C 
ATOM     10  C   LIG    1        1.597  16.856  32.446  0.00  0.00    +0.146 C 
ATOM     11  S   LIG    1        1.939  16.839  34.253  0.00  0.00    -0.054 S 
ATOM     12  C   LIG    1        2.324  18.542  34.300  0.00  0.00    +0.279 C 
ATOM     13  O   LIG    1        2.653  19.139  35.308  0.00  0.00    -0.263 OA
ATOM     14  N   LIG    1        2.150  19.098  33.080  0.00  0.00    -0.246 N 
ATOM     15  H   LIG    1        2.178  20.101  32.990  0.00  0.00    +0.158 HD
ENDBRANCH   7  10
ENDBRANCH   1   7
BRANCH   4  16
ATOM     16  O   LIG    1        6.665  19.507  29.387  0.00  0.00    -0.492 OA
BRANCH  16  17
ATOM     17  C   LIG    1        6.216  20.851  29.204  0.00  0.00    +0.235 C 
BRANCH  17  18
ATOM     18  C   LIG    1        5.760  21.164  27.781  0.00  0.00    +0.096 C 
BRANCH  18  19
ATOM     19  C   LIG    1        6.916  21.287  26.805  0.00  0.00    +0.045 A 
ATOM     20  C   LIG    1        7.517  22.509  26.496  0.00  0.00    +0.024 A 
ATOM     21  C   LIG    1        8.597  22.546  25.619  0.00  0.00    +0.007 A 
ATOM     22  C   LIG    1        9.067  21.372  25.037  0.00  0.00    -0.030 A 
ATOM     23  C   LIG    1        8.398  20.202  25.378  0.00  0.00    +0.114 A 
ATOM     24  N   LIG    1        7.348  20.136  26.237  0.00  0.00    -0.260 NA
BRANCH  22  25
ATOM     25  C   LIG    1       10.251  21.459  24.111  0.00  0.00    +0.033 C 
ATOM     26  C   LIG    1       10.447  22.770  23.365  0.00  0.00    +0.009 C 
ENDBRANCH  22  25
ENDBRANCH  18  19
ENDBRANCH  17  18
ENDBRANCH  16  17
ENDBRANCH   4  16
TORSDOF 7
ENDMDL
MODEL 5
REMARK VINA RESULT:      -8.1      1.655      2.270
REMARK  Name = 
REMARK                            x       y       z     vdW  Elec       q    Type
REMARK                         _______ _______ _______ _____ _____    ______ ____
ROOT
ATOM      1  C   LIG    1        5.092  19.621  27.447  0.00  0.00    -0.046 A 
ATOM      2  C   LIG    1        4.938  18.234  27.445  0.00  0.00    +0.007 A 
ATOM      3  C   LIG    1        4.162  17.601  28.414  0.00  0.00    +0.046 A 
ATOM      4  C   LIG    1        3.543  18.334  29.432  0.00  0.00    +0.121 A 
ATOM      5  C   LIG    1        3.706  19.719  29.450  0.00  0.00    +0.046 A 
ATOM      6  C   LIG    1        4.467  20.360  28.461  0.00  0.00    +0.007 A 
ENDROOT
BRANCH   1   7
ATOM      7  C   LIG    1        5.938  20.284  26.384  0.00  0.00    +0.059 C 
BRANCH   7  10
ATOM      8  O   LIG    1        7.971  20.283  28.921  0.00  0.00    -0.274 OA
ATOM      9  C   LIG    1        8.028  20.721  27.778  0.00  0.00    +0.234 C 
ATOM     10  C   LIG    1        7.446  20.052  26.544  0.00  0.00    +0.146 C 
ATOM     11  S   LIG    1        8.313  20.896  25.160  0.00  0.00    -0.054 S 
ATOM     12  C   LIG    1        8.986  22.129  26.197  0.00  0.00    +0.279 C 
ATOM     13  O   LIG    1        9.698  23.035  25.806  0.00  0.00    -0.263 OA
ATOM     14  N   LIG    1        8.647  21.897  27.486  0.00  0.00    -0.246 N 
ATOM     15  H   LIG    1        9.094  22.431  28.214  0.00  0.00    +0.158 HD
ENDBRANCH   7  10
ENDBRANCH   1   7
BRANCH   4  16
ATOM     16  O   LIG    1        2.779  17.792  30.444  0.00  0.00    -0.492 OA
BRANCH  16  17
ATOM     17  C   LIG    1        3.358  16.626  31.030  0.00  0.00    +0.235 C 
BRANCH  17  18
ATOM     18  C   LIG    1        2.474  15.954  32.079  0.00  0.00    +0.096 C 
BRANCH  18  19
ATOM     19  C   LIG    1        2.170  16.858  33.261  0.00  0.00    +0.045 A 
ATOM     20  C   LIG    1        0.881  17.031  33.767  0.00  0.00    +0.024 A 
ATOM     21  C   LIG    1        0.678  17.846  34.876  0.00  0.00    +0.007 A 
ATOM     22  C   LIG    1        1.753  18.501  35.471  0.00  0.00    -0.030 A 
ATOM     23  C   LIG    1        2.999  18.294  34.891  0.00  0.00    +0.114 A 
ATOM     24  N   LIG    1        3.227  17.497  33.814  0.00  0.00    -0.260 NA
BRANCH  22  25
ATOM     25  C   LIG    1        1.488  19.355  36.681  0.00  0.00    +0.033 C 
ATOM     26  C   LIG    1        2.598  20.300  37.115  0.00  0.00    +0.009 C 
ENDBRANCH  22  25
ENDBRANCH  18  19
ENDBRANCH  17  18
ENDBRANCH  16  17
ENDBRANCH   4  16
TORSDOF 7
ENDMDL
MODEL 6
REMARK VINA RESULT:      -8.0      3.515      9.662
REMARK  Name = 
REMARK                            x       y       z     vdW  Elec       q    Type
REMARK                         _______ _______ _______ _____ _____    ______ ____
ROOT
ATOM      1  C   LIG    1        2.562  18.161  30.834  0.00  0.00    -0.046 A 
ATOM      2  C   LIG    1        3.661  17.300  30.851  0.00  0.00    +0.007 A 
ATOM      3  C   LIG    1        4.331  16.977  29.673  0.00  0.00    +0.046 A 
ATOM      4  C   LIG    1        3.903  17.481  28.440  0.00  0.00    +0.121 A 
ATOM      5  C   LIG    1        2.796  18.328  28.413  0.00  0.00    +0.046 A 
ATOM      6  C   LIG    1        2.134  18.674  29.602  0.00  0.00    +0.007 A 
ENDROOT
BRANCH   1   7
ATOM      7  C   LIG    1        1.852  18.497  32.126  0.00  0.00    +0.059 C 
BRANCH   7  10
ATOM      8  O   LIG    1        0.950  15.754  33.620  0.00  0.00    -0.274 OA
ATOM      9  C   LIG    1        1.306  16.861  34.004  0.00  0.00    +0.234 C 
ATOM     10  C   LIG    1        2.370  17.726  33.348  0.00  0.00    +0.146 C 
ATOM     11  S   LIG    1        2.795  18.939  34.662  0.00  0.00    -0.054 S 
ATOM     12  C   LIG    1        1.448  18.475  35.671  0.00  0.00    +0.279 C 
ATOM     13  O   LIG    1        1.199  18.978  36.750  0.00  0.00    -0.263 OA
ATOM     14  N   LIG    1        0.769  17.450  35.107  0.00  0.00    -0.246 N 
ATOM     15  H   LIG    1        0.066  16.972  35.648  0.00  0.00    +0.158 HD
ENDBRANCH   7  10
ENDBRANCH   1   7
BRANCH   4  16
ATOM     16  O   LIG    1        4.489  17.198  27.224  0.00  0.00    -0.492 OA
BRANCH  16  17
ATOM     17  C   LIG    1        5.217  18.297  26.675  0.00  0.00    +0.235 C 
BRANCH  17  18
ATOM     18  C   LIG    1        6.059  19.056  27.697  0.00  0.00    +0.096 C 
BRANCH  18  19
ATOM     19  C   LIG    1        6.785  20.246  27.097  0.00  0.00    +0.045 A 
ATOM     20  C   LIG    1        7.678  20.128  26.031  0.00  0.00    +0.024 A 
ATOM     21  C   LIG    1        8.282  21.265  25.505  0.00  0.00    +0.007 A 
ATOM     22  C   LIG    1        8.012  22.517  26.049  0.00  0.00    -0.030 A 
ATOM     23  C   LIG    1        7.131  22.546  27.124  0.00  0.00    +0.114 A 
ATOM     24  N   LIG    1        6.521  21.453  27.652  0.00  0.00    -0.260 NA
BRANCH  22  25
ATOM     25  C   LIG    1        8.673  23.721  25.434  0.00  0.00    +0.033 C 
ATOM     26  C   LIG    1        8.293  25.081  26.000  0.00  0.00    +0.009 C 
ENDBRANCH  22  25
ENDBRANCH  18  19
ENDBRANCH  17  18
ENDBRANCH  16  17
ENDBRANCH   4  16
TORSDOF 7
ENDMDL
MODEL 7
REMARK VINA RESULT:      -7.5      1.357      1.865
REMARK  Name = 
REMARK                            x       y       z     vdW  Elec       q    Type
REMARK                         _______ _______ _______ _____ _____    ______ ____
ROOT
ATOM      1  C   LIG    1        7.136  20.122  27.574  0.00  0.00    -0.046 A 
ATOM      2  C   LIG    1        6.229  19.676  26.612  0.00  0.00    +0.007 A 
ATOM      3  C   LIG    1        5.110  18.930  26.979  0.00  0.00    +0.046 A 
ATOM      4  C   LIG    1        4.882  18.584  28.314  0.00  0.00    +0.121 A 
ATOM      5  C   LIG    1        5.793  19.012  29.279  0.00  0.00    +0.046 A 
ATOM      6  C   LIG    1        6.908  19.783  28.915  0.00  0.00    +0.007 A 
ENDROOT
BRANCH   1   7
ATOM      7  C   LIG    1        8.342  20.930  27.151  0.00  0.00    +0.059 C 
BRANCH   7  10
ATOM      8  O   LIG    1       10.240  21.597  24.598  0.00  0.00    -0.274 OA
ATOM      9  C   LIG    1        9.446  22.246  25.267  0.00  0.00    +0.234 C 
ATOM     10  C   LIG    1        8.145  21.722  25.852  0.00  0.00    +0.146 C 
ATOM     11  S   LIG    1        7.212  23.257  26.244  0.00  0.00    -0.054 S 
ATOM     12  C   LIG    1        8.595  24.289  25.976  0.00  0.00    +0.279 C 
ATOM     13  O   LIG    1        8.576  25.499  26.100  0.00  0.00    -0.263 OA
ATOM     14  N   LIG    1        9.655  23.558  25.563  0.00  0.00    -0.246 N 
ATOM     15  H   LIG    1       10.473  24.033  25.216  0.00  0.00    +0.158 HD
ENDBRANCH   7  10
ENDBRANCH   1   7
BRANCH   4  16
ATOM     16  O   LIG    1        3.818  17.832  28.765  0.00  0.00    -0.492 OA
BRANCH  16  17
ATOM     17  C   LIG    1        2.560  18.500  28.648  0.00  0.00    +0.235 C 
BRANCH  17  18
ATOM     18  C   LIG    1        2.322  19.564  29.716  0.00  0.00    +0.096 C 
BRANCH  18  19
ATOM     19  C   LIG    1        2.202  18.982  31.113  0.00  0.00    +0.045 A 
ATOM     20  C   LIG    1        1.002  18.970  31.826  0.00  0.00    +0.024 A 
ATOM     21  C   LIG    1        0.954  18.388  33.089  0.00  0.00    +0.007 A 
ATOM     22  C   LIG    1        2.101  17.832  33.649  0.00  0.00    -0.030 A 
ATOM     23  C   LIG    1        3.259  17.906  32.884  0.00  0.00    +0.114 A 
ATOM     24  N   LIG    1        3.332  18.461  31.646  0.00  0.00    -0.260 NA
BRANCH  22  25
ATOM     25  C   LIG    1        1.995  17.195  35.008  0.00  0.00    +0.033 C 
ATOM     26  C   LIG    1        2.585  15.801  35.163  0.00  0.00    +0.009 C 
ENDBRANCH  22  25
ENDBRANCH  18  19
ENDBRANCH  17  18
ENDBRANCH  16  17
ENDBRANCH   4  16
TORSDOF 7
ENDMDL
MODEL 8
REMARK VINA RESULT:      -6.7      3.639      9.779
REMARK  Name = 
REMARK                            x       y       z     vdW  Elec       q    Type
REMARK                         _______ _______ _______ _____ _____    ______ ____
ROOT
ATOM      1  C   LIG    1        3.353  18.411  31.790  0.00  0.00    -0.046 A 
ATOM      2  C   LIG    1        2.598  18.929  30.737  0.00  0.00    +0.007 A 
ATOM      3  C   LIG    1        2.918  18.627  29.415  0.00  0.00    +0.046 A 
ATOM      4  C   LIG    1        4.020  17.823  29.106  0.00  0.00    +0.121 A 
ATOM      5  C   LIG    1        4.788  17.314  30.153  0.00  0.00    +0.046 A 
ATOM      6  C   LIG    1        4.454  17.598  31.486  0.00  0.00    +0.007 A 
ENDROOT
BRANCH   1   7
ATOM      7  C   LIG    1        2.986  18.752  33.216  0.00  0.00    +0.059 C 
BRANCH   7  10
ATOM      8  O   LIG    1        2.733  16.856  35.844  0.00  0.00    -0.274 OA
ATOM      9  C   LIG    1        2.380  16.752  34.677  0.00  0.00    +0.234 C 
ATOM     10  C   LIG    1        1.865  17.883  33.803  0.00  0.00    +0.146 C 
ATOM     11  S   LIG    1        1.031  17.002  32.421  0.00  0.00    -0.054 S 
ATOM     12  C   LIG    1        1.680  15.448  32.884  0.00  0.00    +0.279 C 
ATOM     13  O   LIG    1        1.457  14.411  32.288  0.00  0.00    -0.263 OA
ATOM     14  N   LIG    1        2.409  15.562  34.017  0.00  0.00    -0.246 N 
ATOM     15  H   LIG    1        2.711  14.725  34.491  0.00  0.00    +0.158 HD
ENDBRANCH   7  10
ENDBRANCH   1   7
BRANCH   4  16
ATOM     16  O   LIG    1        4.425  17.491  27.830  0.00  0.00    -0.492 OA
BRANCH  16  17
ATOM     17  C   LIG    1        4.742  18.626  27.022  0.00  0.00    +0.235 C 
BRANCH  17  18
ATOM     18  C   LIG    1        5.422  19.760  27.785  0.00  0.00    +0.096 C 
BRANCH  18  19
ATOM     19  C   LIG    1        6.504  20.451  26.975  0.00  0.00    +0.045 A 
ATOM     20  C   LIG    1        6.746  21.823  27.053  0.00  0.00    +0.024 A 
ATOM     21  C   LIG    1        7.778  22.387  26.309  0.00  0.00    +0.007 A 
ATOM     22  C   LIG    1        8.558  21.589  25.476  0.00  0.00    -0.030 A 
ATOM     23  C   LIG    1        8.237  20.237  25.438  0.00  0.00    +0.114 A 
ATOM     24  N   LIG    1        7.241  19.660  26.159  0.00  0.00    -0.260 NA
BRANCH  22  25
ATOM     25  C   LIG    1        9.676  22.240  24.707  0.00  0.00    +0.033 C 
ATOM     26  C   LIG    1       10.767  21.325  24.172  0.00  0.00    +0.009 C 
ENDBRANCH  22  25
ENDBRANCH  18  19
ENDBRANCH  17  18
ENDBRANCH  16  17
ENDBRANCH   4  16
TORSDOF 7
ENDMDL
MODEL 9
REMARK VINA RESULT:      -6.6      3.198     10.200
REMARK  Name = 
REMARK                            x       y       z     vdW  Elec       q    Type
REMARK                         _______ _______ _______ _____ _____    ______ ____
ROOT
ATOM      1  C   LIG    1        3.793  17.669  30.371  0.00  0.00    -0.046 A 
ATOM      2  C   LIG    1        4.652  18.749  30.582  0.00  0.00    +0.007 A 
ATOM      3  C   LIG    1        4.991  19.605  29.536  0.00  0.00    +0.046 A 
ATOM      4  C   LIG    1        4.504  19.389  28.243  0.00  0.00    +0.121 A 
ATOM      5  C   LIG    1        3.658  18.304  28.021  0.00  0.00    +0.046 A 
ATOM      6  C   LIG    1        3.296  17.454  29.078  0.00  0.00    +0.007 A 
ENDROOT
BRANCH   1   7
ATOM      7  C   LIG    1        3.439  16.755  31.522  0.00  0.00    +0.059 C 
BRANCH   7  10
ATOM      8  O   LIG    1        1.124  19.015  31.203  0.00  0.00    -0.274 OA
ATOM      9  C   LIG    1        1.501  18.299  32.122  0.00  0.00    +0.234 C 
ATOM     10  C   LIG    1        1.981  16.864  31.987  0.00  0.00    +0.146 C 
ATOM     11  S   LIG    1        1.871  16.220  33.706  0.00  0.00    -0.054 S 
ATOM     12  C   LIG    1        1.594  17.802  34.391  0.00  0.00    +0.279 C 
ATOM     13  O   LIG    1        1.440  18.013  35.579  0.00  0.00    -0.263 OA
ATOM     14  N   LIG    1        1.524  18.732  33.412  0.00  0.00    -0.246 N 
ATOM     15  H   LIG    1        1.209  19.662  33.642  0.00  0.00    +0.158 HD
ENDBRANCH   7  10
ENDBRANCH   1   7
BRANCH   4  16
ATOM     16  O   LIG    1        4.804  20.169  27.145  0.00  0.00    -0.492 OA
BRANCH  16  17
ATOM     17  C   LIG    1        5.981  20.960  27.314  0.00  0.00    +0.235 C 
BRANCH  17  18
ATOM     18  C   LIG    1        7.270  20.248  26.910  0.00  0.00    +0.096 C 
BRANCH  18  19
ATOM     19  C   LIG    1        8.146  21.087  25.996  0.00  0.00    +0.045 A 
ATOM     20  C   LIG    1        8.200  22.479  26.072  0.00  0.00    +0.024 A 
ATOM     21  C   LIG    1        9.053  23.185  25.229  0.00  0.00    +0.007 A 
ATOM     22  C   LIG    1        9.837  22.508  24.299  0.00  0.00    -0.030 A 
ATOM     23  C   LIG    1        9.706  21.124  24.272  0.00  0.00    +0.114 A 
ATOM     24  N   LIG    1        8.889  20.410  25.089  0.00  0.00    -0.260 NA
BRANCH  22  25
ATOM     25  C   LIG    1       10.759  23.312  23.423  0.00  0.00    +0.033 C 
ATOM     26  C   LIG    1       10.837  22.914  21.957  0.00  0.00    +0.009 C 
ENDBRANCH  22  25
ENDBRANCH  18  19
ENDBRANCH  17  18
ENDBRANCH  16  17
ENDBRANCH   4  16
TORSDOF 7
ENDMDL
