MODEL 1
REMARK VINA RESULT:      -9.9      0.000      0.000
REMARK  Name = 
REMARK                            x       y       z     vdW  Elec       q    Type
REMARK                         _______ _______ _______ _____ _____    ______ ____
ROOT
ATOM      1  C   LIG    1       19.356 -15.178  18.288  0.00  0.00    -0.046 A 
ATOM      2  C   LIG    1       20.008 -15.855  19.319  0.00  0.00    +0.007 A 
ATOM      3  C   LIG    1       21.392 -16.020  19.299  0.00  0.00    +0.046 A 
ATOM      4  C   LIG    1       22.159 -15.539  18.233  0.00  0.00    +0.121 A 
ATOM      5  C   LIG    1       21.512 -14.876  17.192  0.00  0.00    +0.046 A 
ATOM      6  C   LIG    1       20.121 -14.688  17.222  0.00  0.00    +0.007 A 
ENDROOT
BRANCH   1   7
ATOM      7  C   LIG    1       17.854 -15.011  18.333  0.00  0.00    +0.059 C 
BRANCH   7  10
ATOM      8  O   LIG    1       16.939 -18.091  17.838  0.00  0.00    -0.274 OA
ATOM      9  C   LIG    1       16.413 -17.115  18.358  0.00  0.00    +0.234 C 
ATOM     10  C   LIG    1       17.129 -16.060  19.187  0.00  0.00    +0.146 C 
ATOM     11  S   LIG    1       15.757 -15.229  20.086  0.00  0.00    -0.054 S 
ATOM     12  C   LIG    1       14.521 -16.007  19.128  0.00  0.00    +0.279 C 
ATOM     13  O   LIG    1       13.327 -15.824  19.277  0.00  0.00    -0.263 OA
ATOM     14  N   LIG    1       15.080 -16.869  18.248  0.00  0.00    -0.246 N 
ATOM     15  H   LIG    1       14.485 -17.505  17.741  0.00  0.00    +0.158 HD
ENDBRANCH   7  10
ENDBRANCH   1   7
BRANCH   4  16
ATOM     16  O   LIG    1       23.527 -15.677  18.118  0.00  0.00    -0.492 OA
BRANCH  16  17
ATOM     17  C   LIG    1       23.941 -16.180  16.846  0.00  0.00    +0.235 C 
BRANCH  17  18
ATOM     18  C   LIG    1       25.438 -16.462  16.749  0.00  0.00    +0.096 C 
BRANCH  18  19
ATOM     19  C   LIG    1       26.242 -15.762  17.830  0.00  0.00    +0.045 A 
ATOM     20  C   LIG    1       26.929 -16.454  18.828  0.00  0.00    +0.024 A 
ATOM     21  C   LIG    1       27.678 -15.752  19.767  0.00  0.00    +0.007 A 
ATOM     22  C   LIG    1       27.728 -14.361  19.724  0.00  0.00    -0.030 A 
ATOM     23  C   LIG    1       26.997 -13.747  18.714  0.00  0.00    +0.114 A 
ATOM     24  N   LIG    1       26.266 -14.409  17.779  0.00  0.00    -0.260 NA
BRANCH  22  25
ATOM     25  C   LIG    1       28.567 -13.645  20.748  0.00  0.00    +0.033 C 
ATOM     26  C   LIG    1       29.691 -14.440  21.395  0.00  0.00    +0.009 C 
ENDBRANCH  22  25
ENDBRANCH  18  19
ENDBRANCH  17  18
ENDBRANCH  16  17
ENDBRANCH   4  16
TORSDOF 7
ENDMDL
MODEL 2
REMARK VINA RESULT:      -9.1      1.838      2.158
REMARK  Name = 
REMARK                            x       y       z     vdW  Elec       q    Type
REMARK                         _______ _______ _______ _____ _____    ______ ____
ROOT
ATOM      1  C   LIG    1       18.810 -15.293  18.107  0.00  0.00    -0.046 A 
ATOM      2  C   LIG    1       18.726 -16.460  18.869  0.00  0.00    +0.007 A 
ATOM      3  C   LIG    1       19.825 -17.306  19.000  0.00  0.00    +0.046 A 
ATOM      4  C   LIG    1       21.030 -17.026  18.349  0.00  0.00    +0.121 A 
ATOM      5  C   LIG    1       21.117 -15.870  17.573  0.00  0.00    +0.046 A 
ATOM      6  C   LIG    1       20.018 -15.005  17.459  0.00  0.00    +0.007 A 
ENDROOT
BRANCH   1   7
ATOM      7  C   LIG    1       17.603 -14.391  17.982  0.00  0.00    +0.059 C 
BRANCH   7  10
ATOM      8  O   LIG    1       15.028 -15.989  16.805  0.00  0.00    -0.274 OA
ATOM      9  C   LIG    1       15.176 -15.083  17.616  0.00  0.00    +0.234 C 
ATOM     10  C   LIG    1       16.323 -14.961  18.607  0.00  0.00    +0.146 C 
ATOM     11  S   LIG    1       15.689 -13.750  19.836  0.00  0.00    -0.054 S 
ATOM     12  C   LIG    1       14.315 -13.313  18.851  0.00  0.00    +0.279 C 
ATOM     13  O   LIG    1       13.480 -12.489  19.173  0.00  0.00    -0.263 OA
ATOM     14  N   LIG    1       14.290 -14.056  17.721  0.00  0.00    -0.246 N 
ATOM     15  H   LIG    1       13.472 -14.028  17.134  0.00  0.00    +0.158 HD
ENDBRANCH   7  10
ENDBRANCH   1   7
BRANCH   4  16
ATOM     16  O   LIG    1       22.160 -17.815  18.402  0.00  0.00    -0.492 OA
BRANCH  16  17
ATOM     17  C   LIG    1       23.000 -17.683  17.253  0.00  0.00    +0.235 C 
BRANCH  17  18
ATOM     18  C   LIG    1       24.421 -18.201  17.461  0.00  0.00    +0.096 C 
BRANCH  18  19
ATOM     19  C   LIG    1       25.386 -17.115  17.903  0.00  0.00    +0.045 A 
ATOM     20  C   LIG    1       25.361 -15.822  17.378  0.00  0.00    +0.024 A 
ATOM     21  C   LIG    1       26.250 -14.865  17.855  0.00  0.00    +0.007 A 
ATOM     22  C   LIG    1       27.175 -15.197  18.840  0.00  0.00    -0.030 A 
ATOM     23  C   LIG    1       27.151 -16.511  19.293  0.00  0.00    +0.114 A 
ATOM     24  N   LIG    1       26.287 -17.463  18.852  0.00  0.00    -0.260 NA
BRANCH  22  25
ATOM     25  C   LIG    1       28.104 -14.123  19.340  0.00  0.00    +0.033 C 
ATOM     26  C   LIG    1       27.672 -13.363  20.585  0.00  0.00    +0.009 C 
ENDBRANCH  22  25
ENDBRANCH  18  19
ENDBRANCH  17  18
ENDBRANCH  16  17
ENDBRANCH   4  16
TORSDOF 7
ENDMDL
MODEL 3
REMARK VINA RESULT:      -9.0      1.445      1.857
REMARK  Name = 
REMARK                            x       y       z     vdW  Elec       q    Type
REMARK                         _______ _______ _______ _____ _____    ______ ____
ROOT
ATOM      1  C   LIG    1       18.229 -16.297  18.379  0.00  0.00    -0.046 A 
ATOM      2  C   LIG    1       18.974 -15.122  18.271  0.00  0.00    +0.007 A 
ATOM      3  C   LIG    1       20.360 -15.141  18.417  0.00  0.00    +0.046 A 
ATOM      4  C   LIG    1       21.036 -16.330  18.706  0.00  0.00    +0.121 A 
ATOM      5  C   LIG    1       20.297 -17.506  18.831  0.00  0.00    +0.046 A 
ATOM      6  C   LIG    1       18.904 -17.493  18.660  0.00  0.00    +0.007 A 
ENDROOT
BRANCH   1   7
ATOM      7  C   LIG    1       16.726 -16.251  18.215  0.00  0.00    +0.059 C 
BRANCH   7  10
ATOM      8  O   LIG    1       15.684 -18.340  20.476  0.00  0.00    -0.274 OA
ATOM      9  C   LIG    1       15.197 -17.358  19.929  0.00  0.00    +0.234 C 
ATOM     10  C   LIG    1       15.954 -16.101  19.532  0.00  0.00    +0.146 C 
ATOM     11  S   LIG    1       14.614 -14.866  19.282  0.00  0.00    -0.054 S 
ATOM     12  C   LIG    1       13.351 -16.069  19.356  0.00  0.00    +0.279 C 
ATOM     13  O   LIG    1       12.165 -15.821  19.240  0.00  0.00    -0.263 OA
ATOM     14  N   LIG    1       13.876 -17.289  19.612  0.00  0.00    -0.246 N 
ATOM     15  H   LIG    1       13.257 -18.050  19.841  0.00  0.00    +0.158 HD
ENDBRANCH   7  10
ENDBRANCH   1   7
BRANCH   4  16
ATOM     16  O   LIG    1       22.399 -16.440  18.890  0.00  0.00    -0.492 OA
BRANCH  16  17
ATOM     17  C   LIG    1       22.930 -17.697  18.465  0.00  0.00    +0.235 C 
BRANCH  17  18
ATOM     18  C   LIG    1       24.089 -17.578  17.478  0.00  0.00    +0.096 C 
BRANCH  18  19
ATOM     19  C   LIG    1       25.251 -16.770  18.027  0.00  0.00    +0.045 A 
ATOM     20  C   LIG    1       26.086 -17.241  19.041  0.00  0.00    +0.024 A 
ATOM     21  C   LIG    1       27.156 -16.463  19.473  0.00  0.00    +0.007 A 
ATOM     22  C   LIG    1       27.385 -15.211  18.908  0.00  0.00    -0.030 A 
ATOM     23  C   LIG    1       26.494 -14.806  17.921  0.00  0.00    +0.114 A 
ATOM     24  N   LIG    1       25.447 -15.549  17.475  0.00  0.00    -0.260 NA
BRANCH  22  25
ATOM     25  C   LIG    1       28.567 -14.415  19.393  0.00  0.00    +0.033 C 
ATOM     26  C   LIG    1       28.288 -13.312  20.402  0.00  0.00    +0.009 C 
ENDBRANCH  22  25
ENDBRANCH  18  19
ENDBRANCH  17  18
ENDBRANCH  16  17
ENDBRANCH   4  16
TORSDOF 7
ENDMDL
MODEL 4
REMARK VINA RESULT:      -8.8      3.867      9.754
REMARK  Name = 
REMARK                            x       y       z     vdW  Elec       q    Type
REMARK                         _______ _______ _______ _____ _____    ______ ____
ROOT
ATOM      1  C   LIG    1       26.499 -16.700  18.349  0.00  0.00    -0.046 A 
ATOM      2  C   LIG    1       25.697 -17.578  19.080  0.00  0.00    +0.007 A 
ATOM      3  C   LIG    1       24.448 -17.968  18.602  0.00  0.00    +0.046 A 
ATOM      4  C   LIG    1       23.951 -17.468  17.394  0.00  0.00    +0.121 A 
ATOM      5  C   LIG    1       24.740 -16.578  16.666  0.00  0.00    +0.046 A 
ATOM      6  C   LIG    1       26.009 -16.203  17.134  0.00  0.00    +0.007 A 
ENDROOT
BRANCH   1   7
ATOM      7  C   LIG    1       27.851 -16.293  18.888  0.00  0.00    +0.059 C 
BRANCH   7  10
ATOM      8  O   LIG    1       25.549 -14.429  20.228  0.00  0.00    -0.274 OA
ATOM      9  C   LIG    1       26.752 -14.299  20.037  0.00  0.00    +0.234 C 
ATOM     10  C   LIG    1       27.789 -15.405  20.139  0.00  0.00    +0.146 C 
ATOM     11  S   LIG    1       29.374 -14.485  20.276  0.00  0.00    -0.054 S 
ATOM     12  C   LIG    1       28.640 -12.954  19.869  0.00  0.00    +0.279 C 
ATOM     13  O   LIG    1       29.249 -11.903  19.794  0.00  0.00    -0.263 OA
ATOM     14  N   LIG    1       27.305 -13.101  19.706  0.00  0.00    -0.246 N 
ATOM     15  H   LIG    1       26.728 -12.279  19.626  0.00  0.00    +0.158 HD
ENDBRANCH   7  10
ENDBRANCH   1   7
BRANCH   4  16
ATOM     16  O   LIG    1       22.720 -17.779  16.856  0.00  0.00    -0.492 OA
BRANCH  16  17
ATOM     17  C   LIG    1       21.702 -16.832  17.184  0.00  0.00    +0.235 C 
BRANCH  17  18
ATOM     18  C   LIG    1       20.817 -17.253  18.355  0.00  0.00    +0.096 C 
BRANCH  18  19
ATOM     19  C   LIG    1       19.468 -16.557  18.355  0.00  0.00    +0.045 A 
ATOM     20  C   LIG    1       19.322 -15.192  18.103  0.00  0.00    +0.024 A 
ATOM     21  C   LIG    1       18.052 -14.624  18.083  0.00  0.00    +0.007 A 
ATOM     22  C   LIG    1       16.930 -15.409  18.330  0.00  0.00    -0.030 A 
ATOM     23  C   LIG    1       17.163 -16.754  18.596  0.00  0.00    +0.114 A 
ATOM     24  N   LIG    1       18.391 -17.336  18.613  0.00  0.00    -0.260 NA
BRANCH  22  25
ATOM     25  C   LIG    1       15.575 -14.755  18.277  0.00  0.00    +0.033 C 
ATOM     26  C   LIG    1       14.519 -15.426  17.411  0.00  0.00    +0.009 C 
ENDBRANCH  22  25
ENDBRANCH  18  19
ENDBRANCH  17  18
ENDBRANCH  16  17
ENDBRANCH   4  16
TORSDOF 7
ENDMDL
MODEL 5
REMARK VINA RESULT:      -8.7      3.257     10.032
REMARK  Name = 
REMARK                            x       y       z     vdW  Elec       q    Type
REMARK                         _______ _______ _______ _____ _____    ______ ____
ROOT
ATOM      1  C   LIG    1       23.151 -15.157  17.950  0.00  0.00    -0.046 A 
ATOM      2  C   LIG    1       22.592 -15.816  19.046  0.00  0.00    +0.007 A 
ATOM      3  C   LIG    1       21.210 -15.940  19.174  0.00  0.00    +0.046 A 
ATOM      4  C   LIG    1       20.347 -15.381  18.227  0.00  0.00    +0.121 A 
ATOM      5  C   LIG    1       20.897 -14.707  17.138  0.00  0.00    +0.046 A 
ATOM      6  C   LIG    1       22.289 -14.602  16.994  0.00  0.00    +0.007 A 
ENDROOT
BRANCH   1   7
ATOM      7  C   LIG    1       24.653 -15.037  17.833  0.00  0.00    +0.059 C 
BRANCH   7  10
ATOM      8  O   LIG    1       26.210 -12.306  18.661  0.00  0.00    -0.274 OA
ATOM      9  C   LIG    1       26.415 -13.498  18.850  0.00  0.00    +0.234 C 
ATOM     10  C   LIG    1       25.348 -14.549  19.111  0.00  0.00    +0.146 C 
ATOM     11  S   LIG    1       26.303 -15.950  19.823  0.00  0.00    -0.054 S 
ATOM     12  C   LIG    1       27.845 -15.241  19.414  0.00  0.00    +0.279 C 
ATOM     13  O   LIG    1       28.919 -15.760  19.655  0.00  0.00    -0.263 OA
ATOM     14  N   LIG    1       27.670 -14.025  18.849  0.00  0.00    -0.246 N 
ATOM     15  H   LIG    1       28.471 -13.430  18.708  0.00  0.00    +0.158 HD
ENDBRANCH   7  10
ENDBRANCH   1   7
BRANCH   4  16
ATOM     16  O   LIG    1       18.969 -15.434  18.284  0.00  0.00    -0.492 OA
BRANCH  16  17
ATOM     17  C   LIG    1       18.457 -16.761  18.412  0.00  0.00    +0.235 C 
BRANCH  17  18
ATOM     18  C   LIG    1       17.149 -16.848  19.196  0.00  0.00    +0.096 C 
BRANCH  18  19
ATOM     19  C   LIG    1       16.264 -15.629  19.003  0.00  0.00    +0.045 A 
ATOM     20  C   LIG    1       15.540 -15.399  17.833  0.00  0.00    +0.024 A 
ATOM     21  C   LIG    1       14.719 -14.279  17.736  0.00  0.00    +0.007 A 
ATOM     22  C   LIG    1       14.631 -13.381  18.796  0.00  0.00    -0.030 A 
ATOM     23  C   LIG    1       15.403 -13.670  19.916  0.00  0.00    +0.114 A 
ATOM     24  N   LIG    1       16.205 -14.760  20.040  0.00  0.00    -0.260 NA
BRANCH  22  25
ATOM     25  C   LIG    1       13.714 -12.196  18.655  0.00  0.00    +0.033 C 
ATOM     26  C   LIG    1       14.178 -10.888  19.275  0.00  0.00    +0.009 C 
ENDBRANCH  22  25
ENDBRANCH  18  19
ENDBRANCH  17  18
ENDBRANCH  16  17
ENDBRANCH   4  16
TORSDOF 7
ENDMDL
MODEL 6
REMARK VINA RESULT:      -8.6      3.325     10.485
REMARK  Name = 
REMARK                            x       y       z     vdW  Elec       q    Type
REMARK                         _______ _______ _______ _____ _____    ______ ____
ROOT
ATOM      1  C   LIG    1       24.655 -15.202  17.683  0.00  0.00    -0.046 A 
ATOM      2  C   LIG    1       24.109 -16.109  16.774  0.00  0.00    +0.007 A 
ATOM      3  C   LIG    1       22.742 -16.113  16.505  0.00  0.00    +0.046 A 
ATOM      4  C   LIG    1       21.877 -15.230  17.158  0.00  0.00    +0.121 A 
ATOM      5  C   LIG    1       22.413 -14.331  18.080  0.00  0.00    +0.046 A 
ATOM      6  C   LIG    1       23.793 -14.310  18.335  0.00  0.00    +0.007 A 
ENDROOT
BRANCH   1   7
ATOM      7  C   LIG    1       26.142 -15.217  17.957  0.00  0.00    +0.059 C 
BRANCH   7  10
ATOM      8  O   LIG    1       26.698 -12.107  18.721  0.00  0.00    -0.274 OA
ATOM      9  C   LIG    1       27.252 -13.166  18.988  0.00  0.00    +0.234 C 
ATOM     10  C   LIG    1       26.552 -14.491  19.245  0.00  0.00    +0.146 C 
ATOM     11  S   LIG    1       27.842 -15.491  20.090  0.00  0.00    -0.054 S 
ATOM     12  C   LIG    1       29.111 -14.345  19.734  0.00  0.00    +0.279 C 
ATOM     13  O   LIG    1       30.272 -14.488  20.067  0.00  0.00    -0.263 OA
ATOM     14  N   LIG    1       28.605 -13.268  19.092  0.00  0.00    -0.246 N 
ATOM     15  H   LIG    1       29.187 -12.455  18.965  0.00  0.00    +0.158 HD
ENDBRANCH   7  10
ENDBRANCH   1   7
BRANCH   4  16
ATOM     16  O   LIG    1       20.511 -15.177  16.973  0.00  0.00    -0.492 OA
BRANCH  16  17
ATOM     17  C   LIG    1       19.777 -15.055  18.193  0.00  0.00    +0.235 C 
BRANCH  17  18
ATOM     18  C   LIG    1       18.850 -16.234  18.479  0.00  0.00    +0.096 C 
BRANCH  18  19
ATOM     19  C   LIG    1       17.380 -15.863  18.393  0.00  0.00    +0.045 A 
ATOM     20  C   LIG    1       16.943 -14.594  18.008  0.00  0.00    +0.024 A 
ATOM     21  C   LIG    1       15.580 -14.332  17.915  0.00  0.00    +0.007 A 
ATOM     22  C   LIG    1       14.653 -15.324  18.221  0.00  0.00    -0.030 A 
ATOM     23  C   LIG    1       15.170 -16.551  18.620  0.00  0.00    +0.114 A 
ATOM     24  N   LIG    1       16.496 -16.837  18.710  0.00  0.00    -0.260 NA
BRANCH  22  25
ATOM     25  C   LIG    1       13.189 -15.000  18.086  0.00  0.00    +0.033 C 
ATOM     26  C   LIG    1       12.218 -15.851  18.890  0.00  0.00    +0.009 C 
ENDBRANCH  22  25
ENDBRANCH  18  19
ENDBRANCH  17  18
ENDBRANCH  16  17
ENDBRANCH   4  16
TORSDOF 7
ENDMDL
MODEL 7
REMARK VINA RESULT:      -8.5      2.949      9.941
REMARK  Name = 
REMARK                            x       y       z     vdW  Elec       q    Type
REMARK                         _______ _______ _______ _____ _____    ______ ____
ROOT
ATOM      1  C   LIG    1       21.681 -14.884  18.148  0.00  0.00    -0.046 A 
ATOM      2  C   LIG    1       20.566 -14.627  17.349  0.00  0.00    +0.007 A 
ATOM      3  C   LIG    1       19.288 -14.988  17.773  0.00  0.00    +0.046 A 
ATOM      4  C   LIG    1       19.092 -15.642  18.993  0.00  0.00    +0.121 A 
ATOM      5  C   LIG    1       20.204 -15.916  19.789  0.00  0.00    +0.046 A 
ATOM      6  C   LIG    1       21.489 -15.533  19.375  0.00  0.00    +0.007 A 
ENDROOT
BRANCH   1   7
ATOM      7  C   LIG    1       23.057 -14.483  17.667  0.00  0.00    +0.059 C 
BRANCH   7  10
ATOM      8  O   LIG    1       25.525 -12.769  18.907  0.00  0.00    -0.274 OA
ATOM      9  C   LIG    1       25.406 -13.909  18.477  0.00  0.00    +0.234 C 
ATOM     10  C   LIG    1       24.187 -14.800  18.655  0.00  0.00    +0.146 C 
ATOM     11  S   LIG    1       24.835 -16.479  18.277  0.00  0.00    -0.054 S 
ATOM     12  C   LIG    1       26.345 -15.867  17.650  0.00  0.00    +0.279 C 
ATOM     13  O   LIG    1       27.237 -16.571  17.215  0.00  0.00    -0.263 OA
ATOM     14  N   LIG    1       26.395 -14.521  17.771  0.00  0.00    -0.246 N 
ATOM     15  H   LIG    1       27.267 -14.046  17.600  0.00  0.00    +0.158 HD
ENDBRANCH   7  10
ENDBRANCH   1   7
BRANCH   4  16
ATOM     16  O   LIG    1       17.870 -16.056  19.482  0.00  0.00    -0.492 OA
BRANCH  16  17
ATOM     17  C   LIG    1       17.319 -17.163  18.767  0.00  0.00    +0.235 C 
BRANCH  17  18
ATOM     18  C   LIG    1       15.803 -17.101  18.600  0.00  0.00    +0.096 C 
BRANCH  18  19
ATOM     19  C   LIG    1       15.266 -15.680  18.607  0.00  0.00    +0.045 A 
ATOM     20  C   LIG    1       15.309 -14.852  17.485  0.00  0.00    +0.024 A 
ATOM     21  C   LIG    1       14.766 -13.572  17.549  0.00  0.00    +0.007 A 
ATOM     22  C   LIG    1       14.197 -13.111  18.732  0.00  0.00    -0.030 A 
ATOM     23  C   LIG    1       14.216 -13.989  19.810  0.00  0.00    +0.114 A 
ATOM     24  N   LIG    1       14.731 -15.246  19.772  0.00  0.00    -0.260 NA
BRANCH  22  25
ATOM     25  C   LIG    1       13.604 -11.728  18.748  0.00  0.00    +0.033 C 
ATOM     26  C   LIG    1       14.300 -10.689  19.614  0.00  0.00    +0.009 C 
ENDBRANCH  22  25
ENDBRANCH  18  19
ENDBRANCH  17  18
ENDBRANCH  16  17
ENDBRANCH   4  16
TORSDOF 7
ENDMDL
MODEL 8
REMARK VINA RESULT:      -8.4      1.947      2.822
REMARK  Name = 
REMARK                            x       y       z     vdW  Elec       q    Type
REMARK                         _______ _______ _______ _____ _____    ______ ____
ROOT
ATOM      1  C   LIG    1       17.196 -16.424  18.579  0.00  0.00    -0.046 A 
ATOM      2  C   LIG    1       17.880 -17.616  18.825  0.00  0.00    +0.007 A 
ATOM      3  C   LIG    1       19.268 -17.675  18.721  0.00  0.00    +0.046 A 
ATOM      4  C   LIG    1       20.010 -16.553  18.339  0.00  0.00    +0.121 A 
ATOM      5  C   LIG    1       19.332 -15.363  18.076  0.00  0.00    +0.046 A 
ATOM      6  C   LIG    1       17.936 -15.295  18.204  0.00  0.00    +0.007 A 
ENDROOT
BRANCH   1   7
ATOM      7  C   LIG    1       15.690 -16.385  18.700  0.00  0.00    +0.059 C 
BRANCH   7  10
ATOM      8  O   LIG    1       15.682 -13.335  19.824  0.00  0.00    -0.274 OA
ATOM      9  C   LIG    1       14.830 -14.073  19.346  0.00  0.00    +0.234 C 
ATOM     10  C   LIG    1       15.054 -15.072  18.223  0.00  0.00    +0.146 C 
ATOM     11  S   LIG    1       13.349 -15.433  17.635  0.00  0.00    -0.054 S 
ATOM     12  C   LIG    1       12.600 -14.623  18.988  0.00  0.00    +0.279 C 
ATOM     13  O   LIG    1       11.398 -14.537  19.151  0.00  0.00    -0.263 OA
ATOM     14  N   LIG    1       13.542 -14.069  19.785  0.00  0.00    -0.246 N 
ATOM     15  H   LIG    1       13.256 -13.435  20.514  0.00  0.00    +0.158 HD
ENDBRANCH   7  10
ENDBRANCH   1   7
BRANCH   4  16
ATOM     16  O   LIG    1       21.381 -16.525  18.188  0.00  0.00    -0.492 OA
BRANCH  16  17
ATOM     17  C   LIG    1       21.809 -15.822  17.020  0.00  0.00    +0.235 C 
BRANCH  17  18
ATOM     18  C   LIG    1       23.017 -16.447  16.328  0.00  0.00    +0.096 C 
BRANCH  18  19
ATOM     19  C   LIG    1       24.336 -16.043  16.963  0.00  0.00    +0.045 A 
ATOM     20  C   LIG    1       24.473 -14.904  17.758  0.00  0.00    +0.024 A 
ATOM     21  C   LIG    1       25.703 -14.611  18.340  0.00  0.00    +0.007 A 
ATOM     22  C   LIG    1       26.798 -15.441  18.117  0.00  0.00    -0.030 A 
ATOM     23  C   LIG    1       26.584 -16.540  17.294  0.00  0.00    +0.114 A 
ATOM     24  N   LIG    1       25.392 -16.854  16.721  0.00  0.00    -0.260 NA
BRANCH  22  25
ATOM     25  C   LIG    1       28.102 -15.095  18.784  0.00  0.00    +0.033 C 
ATOM     26  C   LIG    1       28.271 -15.526  20.233  0.00  0.00    +0.009 C 
ENDBRANCH  22  25
ENDBRANCH  18  19
ENDBRANCH  17  18
ENDBRANCH  16  17
ENDBRANCH   4  16
TORSDOF 7
ENDMDL
MODEL 9
REMARK VINA RESULT:      -8.3      3.248      9.738
REMARK  Name = 
REMARK                            x       y       z     vdW  Elec       q    Type
REMARK                         _______ _______ _______ _____ _____    ______ ____
ROOT
ATOM      1  C   LIG    1       24.994 -16.784  17.933  0.00  0.00    -0.046 A 
ATOM      2  C   LIG    1       24.421 -16.354  16.736  0.00  0.00    +0.007 A 
ATOM      3  C   LIG    1       23.044 -16.434  16.537  0.00  0.00    +0.046 A 
ATOM      4  C   LIG    1       22.205 -16.974  17.516  0.00  0.00    +0.121 A 
ATOM      5  C   LIG    1       22.773 -17.421  18.709  0.00  0.00    +0.046 A 
ATOM      6  C   LIG    1       24.157 -17.319  18.921  0.00  0.00    +0.007 A 
ENDROOT
BRANCH   1   7
ATOM      7  C   LIG    1       26.491 -16.686  18.126  0.00  0.00    +0.059 C 
BRANCH   7  10
ATOM      8  O   LIG    1       29.406 -15.353  18.666  0.00  0.00    -0.274 OA
ATOM      9  C   LIG    1       28.255 -15.029  18.929  0.00  0.00    +0.234 C 
ATOM     10  C   LIG    1       27.045 -15.258  18.038  0.00  0.00    +0.146 C 
ATOM     11  S   LIG    1       25.790 -14.105  18.728  0.00  0.00    -0.054 S 
ATOM     12  C   LIG    1       26.740 -13.760  20.152  0.00  0.00    +0.279 C 
ATOM     13  O   LIG    1       26.387 -13.007  21.040  0.00  0.00    -0.263 OA
ATOM     14  N   LIG    1       27.929 -14.401  20.091  0.00  0.00    -0.246 N 
ATOM     15  H   LIG    1       28.644 -14.170  20.762  0.00  0.00    +0.158 HD
ENDBRANCH   7  10
ENDBRANCH   1   7
BRANCH   4  16
ATOM     16  O   LIG    1       20.838 -17.114  17.397  0.00  0.00    -0.492 OA
BRANCH  16  17
ATOM     17  C   LIG    1       20.180 -17.343  18.645  0.00  0.00    +0.235 C 
BRANCH  17  18
ATOM     18  C   LIG    1       18.772 -17.917  18.507  0.00  0.00    +0.096 C 
BRANCH  18  19
ATOM     19  C   LIG    1       17.710 -16.843  18.354  0.00  0.00    +0.045 A 
ATOM     20  C   LIG    1       16.388 -17.132  18.010  0.00  0.00    +0.024 A 
ATOM     21  C   LIG    1       15.456 -16.103  17.922  0.00  0.00    +0.007 A 
ATOM     22  C   LIG    1       15.841 -14.787  18.159  0.00  0.00    -0.030 A 
ATOM     23  C   LIG    1       17.180 -14.582  18.472  0.00  0.00    +0.114 A 
ATOM     24  N   LIG    1       18.108 -15.568  18.574  0.00  0.00    -0.260 NA
BRANCH  22  25
ATOM     25  C   LIG    1       14.793 -13.710  18.073  0.00  0.00    +0.033 C 
ATOM     26  C   LIG    1       14.610 -12.827  19.298  0.00  0.00    +0.009 C 
ENDBRANCH  22  25
ENDBRANCH  18  19
ENDBRANCH  17  18
ENDBRANCH  16  17
ENDBRANCH   4  16
TORSDOF 7
ENDMDL
