MODEL 1
REMARK VINA RESULT:      -8.4      0.000      0.000
REMARK  Name = 
REMARK                            x       y       z     vdW  Elec       q    Type
REMARK                         _______ _______ _______ _____ _____    ______ ____
ROOT
ATOM      1  C   LIG    1        4.234   7.501  -5.031  0.00  0.00    -0.046 A 
ATOM      2  C   LIG    1        4.860   6.293  -5.341  0.00  0.00    +0.007 A 
ATOM      3  C   LIG    1        5.959   6.260  -6.198  0.00  0.00    +0.046 A 
ATOM      4  C   LIG    1        6.445   7.429  -6.791  0.00  0.00    +0.121 A 
ATOM      5  C   LIG    1        5.814   8.638  -6.498  0.00  0.00    +0.046 A 
ATOM      6  C   LIG    1        4.722   8.676  -5.617  0.00  0.00    +0.007 A 
ENDROOT
BRANCH   1   7
ATOM      7  C   LIG    1        3.044   7.511  -4.098  0.00  0.00    +0.059 C 
BRANCH   7  10
ATOM      8  O   LIG    1        1.604   5.138  -2.407  0.00  0.00    -0.274 OA
ATOM      9  C   LIG    1        2.066   6.234  -2.119  0.00  0.00    +0.234 C 
ATOM     10  C   LIG    1        3.308   6.861  -2.734  0.00  0.00    +0.146 C 
ATOM     11  S   LIG    1        3.748   8.184  -1.535  0.00  0.00    -0.054 S 
ATOM     12  C   LIG    1        2.244   8.035  -0.661  0.00  0.00    +0.279 C 
ATOM     13  O   LIG    1        1.948   8.712   0.306  0.00  0.00    -0.263 OA
ATOM     14  N   LIG    1        1.496   7.034  -1.178  0.00  0.00    -0.246 N 
ATOM     15  H   LIG    1        0.677   6.727  -0.678  0.00  0.00    +0.158 HD
ENDBRANCH   7  10
ENDBRANCH   1   7
BRANCH   4  16
ATOM     16  O   LIG    1        7.509   7.488  -7.667  0.00  0.00    -0.492 OA
BRANCH  16  17
ATOM     17  C   LIG    1        8.378   6.358  -7.581  0.00  0.00    +0.235 C 
BRANCH  17  18
ATOM     18  C   LIG    1        9.838   6.673  -7.899  0.00  0.00    +0.096 C 
BRANCH  18  19
ATOM     19  C   LIG    1       10.000   7.529  -9.142  0.00  0.00    +0.045 A 
ATOM     20  C   LIG    1       10.232   6.987 -10.408  0.00  0.00    +0.024 A 
ATOM     21  C   LIG    1       10.334   7.827 -11.512  0.00  0.00    +0.007 A 
ATOM     22  C   LIG    1       10.223   9.206 -11.355  0.00  0.00    -0.030 A 
ATOM     23  C   LIG    1       10.016   9.666 -10.060  0.00  0.00    +0.114 A 
ATOM     24  N   LIG    1        9.903   8.868  -8.966  0.00  0.00    -0.260 NA
BRANCH  22  25
ATOM     25  C   LIG    1       10.319  10.074 -12.581  0.00  0.00    +0.033 C 
ATOM     26  C   LIG    1        9.010  10.524 -13.212  0.00  0.00    +0.009 C 
ENDBRANCH  22  25
ENDBRANCH  18  19
ENDBRANCH  17  18
ENDBRANCH  16  17
ENDBRANCH   4  16
TORSDOF 7
ENDMDL
MODEL 2
REMARK VINA RESULT:      -8.0      6.361      8.823
REMARK  Name = 
REMARK                            x       y       z     vdW  Elec       q    Type
REMARK                         _______ _______ _______ _____ _____    ______ ____
ROOT
ATOM      1  C   LIG    1       11.506   2.572  -3.774  0.00  0.00    -0.046 A 
ATOM      2  C   LIG    1       10.917   3.683  -3.169  0.00  0.00    +0.007 A 
ATOM      3  C   LIG    1        9.797   4.291  -3.734  0.00  0.00    +0.046 A 
ATOM      4  C   LIG    1        9.254   3.826  -4.935  0.00  0.00    +0.121 A 
ATOM      5  C   LIG    1        9.848   2.726  -5.554  0.00  0.00    +0.046 A 
ATOM      6  C   LIG    1       10.961   2.097  -4.974  0.00  0.00    +0.007 A 
ENDROOT
BRANCH   1   7
ATOM      7  C   LIG    1       12.720   1.929  -3.142  0.00  0.00    +0.059 C 
BRANCH   7  10
ATOM      8  O   LIG    1       15.069   0.744  -5.050  0.00  0.00    -0.274 OA
ATOM      9  C   LIG    1       15.056   1.385  -4.007  0.00  0.00    +0.234 C 
ATOM     10  C   LIG    1       14.060   2.476  -3.651  0.00  0.00    +0.146 C 
ATOM     11  S   LIG    1       14.886   3.365  -2.269  0.00  0.00    -0.054 S 
ATOM     12  C   LIG    1       16.121   2.145  -2.086  0.00  0.00    +0.279 C 
ATOM     13  O   LIG    1       17.012   2.195  -1.259  0.00  0.00    -0.263 OA
ATOM     14  N   LIG    1       15.972   1.180  -3.021  0.00  0.00    -0.246 N 
ATOM     15  H   LIG    1       16.703   0.496  -3.141  0.00  0.00    +0.158 HD
ENDBRANCH   7  10
ENDBRANCH   1   7
BRANCH   4  16
ATOM     16  O   LIG    1        8.165   4.378  -5.577  0.00  0.00    -0.492 OA
BRANCH  16  17
ATOM     17  C   LIG    1        8.421   4.711  -6.943  0.00  0.00    +0.235 C 
BRANCH  17  18
ATOM     18  C   LIG    1        9.349   5.910  -7.125  0.00  0.00    +0.096 C 
BRANCH  18  19
ATOM     19  C   LIG    1        9.720   6.154  -8.577  0.00  0.00    +0.045 A 
ATOM     20  C   LIG    1        9.893   5.118  -9.496  0.00  0.00    +0.024 A 
ATOM     21  C   LIG    1       10.198   5.414 -10.821  0.00  0.00    +0.007 A 
ATOM     22  C   LIG    1       10.346   6.737 -11.228  0.00  0.00    -0.030 A 
ATOM     23  C   LIG    1       10.181   7.707 -10.246  0.00  0.00    +0.114 A 
ATOM     24  N   LIG    1        9.875   7.447  -8.948  0.00  0.00    -0.260 NA
BRANCH  22  25
ATOM     25  C   LIG    1       10.655   7.009 -12.675  0.00  0.00    +0.033 C 
ATOM     26  C   LIG    1       12.117   7.210 -13.042  0.00  0.00    +0.009 C 
ENDBRANCH  22  25
ENDBRANCH  18  19
ENDBRANCH  17  18
ENDBRANCH  16  17
ENDBRANCH   4  16
TORSDOF 7
ENDMDL
MODEL 3
REMARK VINA RESULT:      -8.0      1.956      2.371
REMARK  Name = 
REMARK                            x       y       z     vdW  Elec       q    Type
REMARK                         _______ _______ _______ _____ _____    ______ ____
ROOT
ATOM      1  C   LIG    1        4.538   8.264  -4.719  0.00  0.00    -0.046 A 
ATOM      2  C   LIG    1        4.639   6.875  -4.806  0.00  0.00    +0.007 A 
ATOM      3  C   LIG    1        5.473   6.278  -5.750  0.00  0.00    +0.046 A 
ATOM      4  C   LIG    1        6.207   7.053  -6.653  0.00  0.00    +0.121 A 
ATOM      5  C   LIG    1        6.099   8.441  -6.584  0.00  0.00    +0.046 A 
ATOM      6  C   LIG    1        5.278   9.044  -5.618  0.00  0.00    +0.007 A 
ENDROOT
BRANCH   1   7
ATOM      7  C   LIG    1        3.627   8.887  -3.687  0.00  0.00    +0.059 C 
BRANCH   7  10
ATOM      8  O   LIG    1        2.311   8.783  -0.716  0.00  0.00    -0.274 OA
ATOM      9  C   LIG    1        3.223   9.422  -1.226  0.00  0.00    +0.234 C 
ATOM     10  C   LIG    1        4.201   8.894  -2.263  0.00  0.00    +0.146 C 
ATOM     11  S   LIG    1        5.578  10.111  -2.199  0.00  0.00    -0.054 S 
ATOM     12  C   LIG    1        4.677  11.235  -1.213  0.00  0.00    +0.279 C 
ATOM     13  O   LIG    1        5.110  12.306  -0.831  0.00  0.00    -0.263 OA
ATOM     14  N   LIG    1        3.466  10.720  -0.899  0.00  0.00    -0.246 N 
ATOM     15  H   LIG    1        2.901  11.185  -0.206  0.00  0.00    +0.158 HD
ENDBRANCH   7  10
ENDBRANCH   1   7
BRANCH   4  16
ATOM     16  O   LIG    1        7.038   6.551  -7.633  0.00  0.00    -0.492 OA
BRANCH  16  17
ATOM     17  C   LIG    1        8.041   5.667  -7.129  0.00  0.00    +0.235 C 
BRANCH  17  18
ATOM     18  C   LIG    1        9.465   6.198  -7.275  0.00  0.00    +0.096 C 
BRANCH  18  19
ATOM     19  C   LIG    1        9.715   6.855  -8.621  0.00  0.00    +0.045 A 
ATOM     20  C   LIG    1        9.553   8.225  -8.835  0.00  0.00    +0.024 A 
ATOM     21  C   LIG    1        9.835   8.767 -10.085  0.00  0.00    +0.007 A 
ATOM     22  C   LIG    1       10.260   7.946 -11.125  0.00  0.00    -0.030 A 
ATOM     23  C   LIG    1       10.373   6.591 -10.837  0.00  0.00    +0.114 A 
ATOM     24  N   LIG    1       10.113   6.037  -9.623  0.00  0.00    -0.260 NA
BRANCH  22  25
ATOM     25  C   LIG    1       10.573   8.582 -12.453  0.00  0.00    +0.033 C 
ATOM     26  C   LIG    1       10.184  10.042 -12.628  0.00  0.00    +0.009 C 
ENDBRANCH  22  25
ENDBRANCH  18  19
ENDBRANCH  17  18
ENDBRANCH  16  17
ENDBRANCH   4  16
TORSDOF 7
ENDMDL
MODEL 4
REMARK VINA RESULT:      -7.9      1.688      2.069
REMARK  Name = 
REMARK                            x       y       z     vdW  Elec       q    Type
REMARK                         _______ _______ _______ _____ _____    ______ ____
ROOT
ATOM      1  C   LIG    1        4.133   7.144  -5.191  0.00  0.00    -0.046 A 
ATOM      2  C   LIG    1        4.911   6.013  -5.442  0.00  0.00    +0.007 A 
ATOM      3  C   LIG    1        6.070   6.102  -6.211  0.00  0.00    +0.046 A 
ATOM      4  C   LIG    1        6.466   7.317  -6.777  0.00  0.00    +0.121 A 
ATOM      5  C   LIG    1        5.685   8.448  -6.544  0.00  0.00    +0.046 A 
ATOM      6  C   LIG    1        4.531   8.366  -5.749  0.00  0.00    +0.007 A 
ENDROOT
BRANCH   1   7
ATOM      7  C   LIG    1        2.881   7.022  -4.352  0.00  0.00    +0.059 C 
BRANCH   7  10
ATOM      8  O   LIG    1        5.008   8.791  -2.645  0.00  0.00    -0.274 OA
ATOM      9  C   LIG    1        4.528   7.672  -2.516  0.00  0.00    +0.234 C 
ATOM     10  C   LIG    1        3.099   7.277  -2.854  0.00  0.00    +0.146 C 
ATOM     11  S   LIG    1        2.878   5.688  -1.957  0.00  0.00    -0.054 S 
ATOM     12  C   LIG    1        4.577   5.544  -1.582  0.00  0.00    +0.279 C 
ATOM     13  O   LIG    1        5.062   4.618  -0.960  0.00  0.00    -0.263 OA
ATOM     14  N   LIG    1        5.252   6.626  -2.033  0.00  0.00    -0.246 N 
ATOM     15  H   LIG    1        6.210   6.758  -1.751  0.00  0.00    +0.158 HD
ENDBRANCH   7  10
ENDBRANCH   1   7
BRANCH   4  16
ATOM     16  O   LIG    1        7.581   7.495  -7.569  0.00  0.00    -0.492 OA
BRANCH  16  17
ATOM     17  C   LIG    1        8.430   6.346  -7.620  0.00  0.00    +0.235 C 
BRANCH  17  18
ATOM     18  C   LIG    1        9.878   6.661  -7.985  0.00  0.00    +0.096 C 
BRANCH  18  19
ATOM     19  C   LIG    1       10.018   7.284  -9.363  0.00  0.00    +0.045 A 
ATOM     20  C   LIG    1       10.244   6.528 -10.514  0.00  0.00    +0.024 A 
ATOM     21  C   LIG    1       10.326   7.160 -11.751  0.00  0.00    +0.007 A 
ATOM     22  C   LIG    1       10.201   8.544 -11.840  0.00  0.00    -0.030 A 
ATOM     23  C   LIG    1       10.001   9.225 -10.645  0.00  0.00    +0.114 A 
ATOM     24  N   LIG    1        9.908   8.632  -9.426  0.00  0.00    -0.260 NA
BRANCH  22  25
ATOM     25  C   LIG    1       10.275   9.181 -13.202  0.00  0.00    +0.033 C 
ATOM     26  C   LIG    1       11.483  10.060 -13.486  0.00  0.00    +0.009 C 
ENDBRANCH  22  25
ENDBRANCH  18  19
ENDBRANCH  17  18
ENDBRANCH  16  17
ENDBRANCH   4  16
TORSDOF 7
ENDMDL
MODEL 5
REMARK VINA RESULT:      -7.9      6.332      9.667
REMARK  Name = 
REMARK                            x       y       z     vdW  Elec       q    Type
REMARK                         _______ _______ _______ _____ _____    ______ ____
ROOT
ATOM      1  C   LIG    1       11.408   2.552  -3.812  0.00  0.00    -0.046 A 
ATOM      2  C   LIG    1       10.848   3.616  -3.103  0.00  0.00    +0.007 A 
ATOM      3  C   LIG    1        9.717   4.275  -3.583  0.00  0.00    +0.046 A 
ATOM      4  C   LIG    1        9.132   3.908  -4.798  0.00  0.00    +0.121 A 
ATOM      5  C   LIG    1        9.696   2.856  -5.520  0.00  0.00    +0.046 A 
ATOM      6  C   LIG    1       10.820   2.176  -5.027  0.00  0.00    +0.007 A 
ENDROOT
BRANCH   1   7
ATOM      7  C   LIG    1       12.634   1.853  -3.271  0.00  0.00    +0.059 C 
BRANCH   7  10
ATOM      8  O   LIG    1       15.086   0.792  -5.123  0.00  0.00    -0.274 OA
ATOM      9  C   LIG    1       15.016   1.420  -4.074  0.00  0.00    +0.234 C 
ATOM     10  C   LIG    1       13.964   2.464  -3.735  0.00  0.00    +0.146 C 
ATOM     11  S   LIG    1       14.711   3.371  -2.322  0.00  0.00    -0.054 S 
ATOM     12  C   LIG    1       15.992   2.203  -2.115  0.00  0.00    +0.279 C 
ATOM     13  O   LIG    1       16.856   2.283  -1.263  0.00  0.00    -0.263 OA
ATOM     14  N   LIG    1       15.912   1.243  -3.065  0.00  0.00    -0.246 N 
ATOM     15  H   LIG    1       16.674   0.593  -3.170  0.00  0.00    +0.158 HD
ENDBRANCH   7  10
ENDBRANCH   1   7
BRANCH   4  16
ATOM     16  O   LIG    1        8.029   4.516  -5.361  0.00  0.00    -0.492 OA
BRANCH  16  17
ATOM     17  C   LIG    1        8.356   5.420  -6.417  0.00  0.00    +0.235 C 
BRANCH  17  18
ATOM     18  C   LIG    1        7.169   5.799  -7.300  0.00  0.00    +0.096 C 
BRANCH  18  19
ATOM     19  C   LIG    1        6.223   6.778  -6.628  0.00  0.00    +0.045 A 
ATOM     20  C   LIG    1        5.191   6.371  -5.780  0.00  0.00    +0.024 A 
ATOM     21  C   LIG    1        4.383   7.324  -5.168  0.00  0.00    +0.007 A 
ATOM     22  C   LIG    1        4.590   8.679  -5.411  0.00  0.00    -0.030 A 
ATOM     23  C   LIG    1        5.622   8.999  -6.285  0.00  0.00    +0.114 A 
ATOM     24  N   LIG    1        6.432   8.090  -6.889  0.00  0.00    -0.260 NA
BRANCH  22  25
ATOM     25  C   LIG    1        3.704   9.673  -4.710  0.00  0.00    +0.033 C 
ATOM     26  C   LIG    1        4.257  11.078  -4.524  0.00  0.00    +0.009 C 
ENDBRANCH  22  25
ENDBRANCH  18  19
ENDBRANCH  17  18
ENDBRANCH  16  17
ENDBRANCH   4  16
TORSDOF 7
ENDMDL
MODEL 6
REMARK VINA RESULT:      -7.7      3.525      4.384
REMARK  Name = 
REMARK                            x       y       z     vdW  Elec       q    Type
REMARK                         _______ _______ _______ _____ _____    ______ ____
ROOT
ATOM      1  C   LIG    1        4.597   8.869  -4.305  0.00  0.00    -0.046 A 
ATOM      2  C   LIG    1        4.822  10.120  -3.729  0.00  0.00    +0.007 A 
ATOM      3  C   LIG    1        5.490  11.120  -4.434  0.00  0.00    +0.046 A 
ATOM      4  C   LIG    1        5.978  10.888  -5.723  0.00  0.00    +0.121 A 
ATOM      5  C   LIG    1        5.771   9.635  -6.300  0.00  0.00    +0.046 A 
ATOM      6  C   LIG    1        5.077   8.635  -5.601  0.00  0.00    +0.007 A 
ENDROOT
BRANCH   1   7
ATOM      7  C   LIG    1        3.869   7.802  -3.521  0.00  0.00    +0.059 C 
BRANCH   7  10
ATOM      8  O   LIG    1        5.548   5.595  -1.824  0.00  0.00    -0.274 OA
ATOM      9  C   LIG    1        4.539   6.255  -1.607  0.00  0.00    +0.234 C 
ATOM     10  C   LIG    1        4.307   7.689  -2.054  0.00  0.00    +0.146 C 
ATOM     11  S   LIG    1        2.915   8.242  -0.989  0.00  0.00    -0.054 S 
ATOM     12  C   LIG    1        2.586   6.629  -0.405  0.00  0.00    +0.279 C 
ATOM     13  O   LIG    1        1.701   6.357   0.385  0.00  0.00    -0.263 OA
ATOM     14  N   LIG    1        3.483   5.753  -0.911  0.00  0.00    -0.246 N 
ATOM     15  H   LIG    1        3.518   4.817  -0.539  0.00  0.00    +0.158 HD
ENDBRANCH   7  10
ENDBRANCH   1   7
BRANCH   4  16
ATOM     16  O   LIG    1        6.669  11.807  -6.485  0.00  0.00    -0.492 OA
BRANCH  16  17
ATOM     17  C   LIG    1        8.029  11.440  -6.722  0.00  0.00    +0.235 C 
BRANCH  17  18
ATOM     18  C   LIG    1        9.042  12.287  -5.955  0.00  0.00    +0.096 C 
BRANCH  18  19
ATOM     19  C   LIG    1       10.285  12.601  -6.769  0.00  0.00    +0.045 A 
ATOM     20  C   LIG    1       10.924  13.841  -6.724  0.00  0.00    +0.024 A 
ATOM     21  C   LIG    1       12.081  14.050  -7.468  0.00  0.00    +0.007 A 
ATOM     22  C   LIG    1       12.592  13.032  -8.269  0.00  0.00    -0.030 A 
ATOM     23  C   LIG    1       11.884  11.837  -8.277  0.00  0.00    +0.114 A 
ATOM     24  N   LIG    1       10.757  11.603  -7.553  0.00  0.00    -0.260 NA
BRANCH  22  25
ATOM     25  C   LIG    1       13.858  13.298  -9.040  0.00  0.00    +0.033 C 
ATOM     26  C   LIG    1       14.133  14.740  -9.436  0.00  0.00    +0.009 C 
ENDBRANCH  22  25
ENDBRANCH  18  19
ENDBRANCH  17  18
ENDBRANCH  16  17
ENDBRANCH   4  16
TORSDOF 7
ENDMDL
MODEL 7
REMARK VINA RESULT:      -7.6      4.420      8.736
REMARK  Name = 
REMARK                            x       y       z     vdW  Elec       q    Type
REMARK                         _______ _______ _______ _____ _____    ______ ____
ROOT
ATOM      1  C   LIG    1        8.377   5.048  -6.267  0.00  0.00    -0.046 A 
ATOM      2  C   LIG    1        8.540   6.086  -7.186  0.00  0.00    +0.007 A 
ATOM      3  C   LIG    1        7.526   7.018  -7.396  0.00  0.00    +0.046 A 
ATOM      4  C   LIG    1        6.308   6.922  -6.717  0.00  0.00    +0.121 A 
ATOM      5  C   LIG    1        6.131   5.878  -5.809  0.00  0.00    +0.046 A 
ATOM      6  C   LIG    1        7.160   4.952  -5.578  0.00  0.00    +0.007 A 
ENDROOT
BRANCH   1   7
ATOM      7  C   LIG    1        9.492   4.050  -6.056  0.00  0.00    +0.059 C 
BRANCH   7  10
ATOM      8  O   LIG    1        9.508   4.976  -2.940  0.00  0.00    -0.274 OA
ATOM      9  C   LIG    1       10.045   4.072  -3.567  0.00  0.00    +0.234 C 
ATOM     10  C   LIG    1        9.422   3.301  -4.719  0.00  0.00    +0.146 C 
ATOM     11  S   LIG    1       10.476   1.799  -4.839  0.00  0.00    -0.054 S 
ATOM     12  C   LIG    1       11.684   2.434  -3.751  0.00  0.00    +0.279 C 
ATOM     13  O   LIG    1       12.696   1.838  -3.433  0.00  0.00    -0.263 OA
ATOM     14  N   LIG    1       11.305   3.644  -3.281  0.00  0.00    -0.246 N 
ATOM     15  H   LIG    1       11.823   4.059  -2.522  0.00  0.00    +0.158 HD
ENDBRANCH   7  10
ENDBRANCH   1   7
BRANCH   4  16
ATOM     16  O   LIG    1        5.242   7.782  -6.878  0.00  0.00    -0.492 OA
BRANCH  16  17
ATOM     17  C   LIG    1        5.389   9.009  -6.161  0.00  0.00    +0.235 C 
BRANCH  17  18
ATOM     18  C   LIG    1        4.235   9.314  -5.209  0.00  0.00    +0.096 C 
BRANCH  18  19
ATOM     19  C   LIG    1        4.002   8.211  -4.192  0.00  0.00    +0.045 A 
ATOM     20  C   LIG    1        4.740   8.102  -3.013  0.00  0.00    +0.024 A 
ATOM     21  C   LIG    1        4.450   7.088  -2.106  0.00  0.00    +0.007 A 
ATOM     22  C   LIG    1        3.438   6.172  -2.380  0.00  0.00    -0.030 A 
ATOM     23  C   LIG    1        2.767   6.335  -3.586  0.00  0.00    +0.114 A 
ATOM     24  N   LIG    1        3.024   7.321  -4.485  0.00  0.00    -0.260 NA
BRANCH  22  25
ATOM     25  C   LIG    1        3.147   5.104  -1.360  0.00  0.00    +0.033 C 
ATOM     26  C   LIG    1        4.283   4.713  -0.428  0.00  0.00    +0.009 C 
ENDBRANCH  22  25
ENDBRANCH  18  19
ENDBRANCH  17  18
ENDBRANCH  16  17
ENDBRANCH   4  16
TORSDOF 7
ENDMDL
MODEL 8
REMARK VINA RESULT:      -7.6      1.962      2.861
REMARK  Name = 
REMARK                            x       y       z     vdW  Elec       q    Type
REMARK                         _______ _______ _______ _____ _____    ______ ____
ROOT
ATOM      1  C   LIG    1        4.556   9.189  -4.349  0.00  0.00    -0.046 A 
ATOM      2  C   LIG    1        4.983  10.452  -3.933  0.00  0.00    +0.007 A 
ATOM      3  C   LIG    1        5.839  11.211  -4.727  0.00  0.00    +0.046 A 
ATOM      4  C   LIG    1        6.317  10.719  -5.945  0.00  0.00    +0.121 A 
ATOM      5  C   LIG    1        5.908   9.452  -6.360  0.00  0.00    +0.046 A 
ATOM      6  C   LIG    1        5.027   8.695  -5.572  0.00  0.00    +0.007 A 
ENDROOT
BRANCH   1   7
ATOM      7  C   LIG    1        3.626   8.385  -3.470  0.00  0.00    +0.059 C 
BRANCH   7  10
ATOM      8  O   LIG    1        5.364   5.991  -2.123  0.00  0.00    -0.274 OA
ATOM      9  C   LIG    1        4.392   6.645  -1.769  0.00  0.00    +0.234 C 
ATOM     10  C   LIG    1        4.165   8.121  -2.057  0.00  0.00    +0.146 C 
ATOM     11  S   LIG    1        2.868   8.592  -0.843  0.00  0.00    -0.054 S 
ATOM     12  C   LIG    1        2.540   6.936  -0.395  0.00  0.00    +0.279 C 
ATOM     13  O   LIG    1        1.708   6.605   0.428  0.00  0.00    -0.263 OA
ATOM     14  N   LIG    1        3.376   6.098  -1.049  0.00  0.00    -0.246 N 
ATOM     15  H   LIG    1        3.413   5.129  -0.772  0.00  0.00    +0.158 HD
ENDBRANCH   7  10
ENDBRANCH   1   7
BRANCH   4  16
ATOM     16  O   LIG    1        7.184  11.389  -6.784  0.00  0.00    -0.492 OA
BRANCH  16  17
ATOM     17  C   LIG    1        8.347  10.631  -7.120  0.00  0.00    +0.235 C 
BRANCH  17  18
ATOM     18  C   LIG    1        9.070  11.126  -8.371  0.00  0.00    +0.096 C 
BRANCH  18  19
ATOM     19  C   LIG    1        9.440  10.002  -9.323  0.00  0.00    +0.045 A 
ATOM     20  C   LIG    1        9.485  10.169 -10.708  0.00  0.00    +0.024 A 
ATOM     21  C   LIG    1        9.868   9.107 -11.520  0.00  0.00    +0.007 A 
ATOM     22  C   LIG    1       10.189   7.875 -10.957  0.00  0.00    -0.030 A 
ATOM     23  C   LIG    1       10.096   7.785  -9.574  0.00  0.00    +0.114 A 
ATOM     24  N   LIG    1        9.734   8.808  -8.756  0.00  0.00    -0.260 NA
BRANCH  22  25
ATOM     25  C   LIG    1       10.618   6.761 -11.875  0.00  0.00    +0.033 C 
ATOM     26  C   LIG    1       10.626   7.061 -13.366  0.00  0.00    +0.009 C 
ENDBRANCH  22  25
ENDBRANCH  18  19
ENDBRANCH  17  18
ENDBRANCH  16  17
ENDBRANCH   4  16
TORSDOF 7
ENDMDL
MODEL 9
REMARK VINA RESULT:      -7.5      5.741      9.795
REMARK  Name = 
REMARK                            x       y       z     vdW  Elec       q    Type
REMARK                         _______ _______ _______ _____ _____    ______ ____
ROOT
ATOM      1  C   LIG    1        8.561   6.860  -7.673  0.00  0.00    -0.046 A 
ATOM      2  C   LIG    1        7.328   6.484  -7.138  0.00  0.00    +0.007 A 
ATOM      3  C   LIG    1        7.233   5.413  -6.252  0.00  0.00    +0.046 A 
ATOM      4  C   LIG    1        8.362   4.669  -5.899  0.00  0.00    +0.121 A 
ATOM      5  C   LIG    1        9.595   5.029  -6.441  0.00  0.00    +0.046 A 
ATOM      6  C   LIG    1        9.697   6.122  -7.316  0.00  0.00    +0.007 A 
ENDROOT
BRANCH   1   7
ATOM      7  C   LIG    1        8.639   8.027  -8.632  0.00  0.00    +0.059 C 
BRANCH   7  10
ATOM      8  O   LIG    1       10.551  10.656  -8.605  0.00  0.00    -0.274 OA
ATOM      9  C   LIG    1       10.286   9.798  -9.438  0.00  0.00    +0.234 C 
ATOM     10  C   LIG    1       10.053   8.324  -9.148  0.00  0.00    +0.146 C 
ATOM     11  S   LIG    1       10.246   7.535 -10.797  0.00  0.00    -0.054 S 
ATOM     12  C   LIG    1       10.248   9.063 -11.643  0.00  0.00    +0.279 C 
ATOM     13  O   LIG    1       10.350   9.174 -12.850  0.00  0.00    -0.263 OA
ATOM     14  N   LIG    1       10.176  10.088 -10.763  0.00  0.00    -0.246 N 
ATOM     15  H   LIG    1       10.329  11.028 -11.093  0.00  0.00    +0.158 HD
ENDBRANCH   7  10
ENDBRANCH   1   7
BRANCH   4  16
ATOM     16  O   LIG    1        8.359   3.581  -5.050  0.00  0.00    -0.492 OA
BRANCH  16  17
ATOM     17  C   LIG    1        9.511   3.517  -4.206  0.00  0.00    +0.235 C 
BRANCH  17  18
ATOM     18  C   LIG    1       10.082   2.111  -4.043  0.00  0.00    +0.096 C 
BRANCH  18  19
ATOM     19  C   LIG    1       11.540   2.112  -3.617  0.00  0.00    +0.045 A 
ATOM     20  C   LIG    1       11.959   2.560  -2.363  0.00  0.00    +0.024 A 
ATOM     21  C   LIG    1       13.307   2.499  -2.022  0.00  0.00    +0.007 A 
ATOM     22  C   LIG    1       14.238   2.010  -2.934  0.00  0.00    -0.030 A 
ATOM     23  C   LIG    1       13.742   1.607  -4.168  0.00  0.00    +0.114 A 
ATOM     24  N   LIG    1       12.431   1.646  -4.523  0.00  0.00    -0.260 NA
BRANCH  22  25
ATOM     25  C   LIG    1       15.682   1.944  -2.513  0.00  0.00    +0.033 C 
ATOM     26  C   LIG    1       16.144   2.956  -1.476  0.00  0.00    +0.009 C 
ENDBRANCH  22  25
ENDBRANCH  18  19
ENDBRANCH  17  18
ENDBRANCH  16  17
ENDBRANCH   4  16
TORSDOF 7
ENDMDL
