MODEL 1
REMARK VINA RESULT:      -7.6      0.000      0.000
REMARK  Name = 
REMARK                            x       y       z     vdW  Elec       q    Type
REMARK                         _______ _______ _______ _____ _____    ______ ____
ROOT
ATOM      1  C   LIG    1        0.330  31.160   6.185  0.00  0.00    -0.046 A 
ATOM      2  C   LIG    1        0.425  32.215   7.094  0.00  0.00    +0.007 A 
ATOM      3  C   LIG    1       -0.298  33.390   6.899  0.00  0.00    +0.046 A 
ATOM      4  C   LIG    1       -1.113  33.555   5.775  0.00  0.00    +0.121 A 
ATOM      5  C   LIG    1       -1.201  32.512   4.855  0.00  0.00    +0.046 A 
ATOM      6  C   LIG    1       -0.491  31.318   5.061  0.00  0.00    +0.007 A 
ENDROOT
BRANCH   1   7
ATOM      7  C   LIG    1        1.124  29.894   6.419  0.00  0.00    +0.059 C 
BRANCH   7  10
ATOM      8  O   LIG    1        0.729  28.590   3.468  0.00  0.00    -0.274 OA
ATOM      9  C   LIG    1        1.542  28.434   4.371  0.00  0.00    +0.234 C 
ATOM     10  C   LIG    1        2.080  29.530   5.276  0.00  0.00    +0.146 C 
ATOM     11  S   LIG    1        3.590  28.773   6.001  0.00  0.00    -0.054 S 
ATOM     12  C   LIG    1        3.203  27.179   5.403  0.00  0.00    +0.279 C 
ATOM     13  O   LIG    1        3.891  26.193   5.592  0.00  0.00    -0.263 OA
ATOM     14  N   LIG    1        2.071  27.216   4.664  0.00  0.00    -0.246 N 
ATOM     15  H   LIG    1        1.812  26.406   4.123  0.00  0.00    +0.158 HD
ENDBRANCH   7  10
ENDBRANCH   1   7
BRANCH   4  16
ATOM     16  O   LIG    1       -1.845  34.689   5.488  0.00  0.00    -0.492 OA
BRANCH  16  17
ATOM     17  C   LIG    1       -1.558  35.239   4.201  0.00  0.00    +0.235 C 
BRANCH  17  18
ATOM     18  C   LIG    1       -0.210  35.950   4.117  0.00  0.00    +0.096 C 
BRANCH  18  19
ATOM     19  C   LIG    1        0.962  34.986   4.055  0.00  0.00    +0.045 A 
ATOM     20  C   LIG    1        1.980  34.973   5.009  0.00  0.00    +0.024 A 
ATOM     21  C   LIG    1        3.007  34.039   4.912  0.00  0.00    +0.007 A 
ATOM     22  C   LIG    1        3.030  33.130   3.858  0.00  0.00    -0.030 A 
ATOM     23  C   LIG    1        1.993  33.226   2.937  0.00  0.00    +0.114 A 
ATOM     24  N   LIG    1        0.974  34.122   3.013  0.00  0.00    -0.260 NA
BRANCH  22  25
ATOM     25  C   LIG    1        4.148  32.125   3.806  0.00  0.00    +0.033 C 
ATOM     26  C   LIG    1        4.828  31.782   5.123  0.00  0.00    +0.009 C 
ENDBRANCH  22  25
ENDBRANCH  18  19
ENDBRANCH  17  18
ENDBRANCH  16  17
ENDBRANCH   4  16
TORSDOF 7
ENDMDL
MODEL 2
REMARK VINA RESULT:      -7.4      1.745      3.616
REMARK  Name = 
REMARK                            x       y       z     vdW  Elec       q    Type
REMARK                         _______ _______ _______ _____ _____    ______ ____
ROOT
ATOM      1  C   LIG    1        3.078  32.107   4.175  0.00  0.00    -0.046 A 
ATOM      2  C   LIG    1        2.405  32.562   3.040  0.00  0.00    +0.007 A 
ATOM      3  C   LIG    1        1.838  33.835   3.011  0.00  0.00    +0.046 A 
ATOM      4  C   LIG    1        1.902  34.677   4.125  0.00  0.00    +0.121 A 
ATOM      5  C   LIG    1        2.559  34.222   5.268  0.00  0.00    +0.046 A 
ATOM      6  C   LIG    1        3.151  32.950   5.291  0.00  0.00    +0.007 A 
ENDROOT
BRANCH   1   7
ATOM      7  C   LIG    1        3.685  30.722   4.182  0.00  0.00    +0.059 C 
BRANCH   7  10
ATOM      8  O   LIG    1        4.410  29.434   7.077  0.00  0.00    -0.274 OA
ATOM      9  C   LIG    1        3.937  28.992   6.038  0.00  0.00    +0.234 C 
ATOM     10  C   LIG    1        2.980  29.730   5.116  0.00  0.00    +0.146 C 
ATOM     11  S   LIG    1        2.258  28.383   4.094  0.00  0.00    -0.054 S 
ATOM     12  C   LIG    1        3.408  27.197   4.659  0.00  0.00    +0.279 C 
ATOM     13  O   LIG    1        3.424  26.036   4.296  0.00  0.00    -0.263 OA
ATOM     14  N   LIG    1        4.228  27.741   5.587  0.00  0.00    -0.246 N 
ATOM     15  H   LIG    1        4.836  27.138   6.117  0.00  0.00    +0.158 HD
ENDBRANCH   7  10
ENDBRANCH   1   7
BRANCH   4  16
ATOM     16  O   LIG    1        1.351  35.940   4.196  0.00  0.00    -0.492 OA
BRANCH  16  17
ATOM     17  C   LIG    1        0.089  36.046   3.535  0.00  0.00    +0.235 C 
BRANCH  17  18
ATOM     18  C   LIG    1       -1.097  35.606   4.389  0.00  0.00    +0.096 C 
BRANCH  18  19
ATOM     19  C   LIG    1       -0.900  34.236   5.012  0.00  0.00    +0.045 A 
ATOM     20  C   LIG    1       -1.005  33.051   4.281  0.00  0.00    +0.024 A 
ATOM     21  C   LIG    1       -0.776  31.830   4.906  0.00  0.00    +0.007 A 
ATOM     22  C   LIG    1       -0.460  31.785   6.261  0.00  0.00    -0.030 A 
ATOM     23  C   LIG    1       -0.398  33.006   6.922  0.00  0.00    +0.114 A 
ATOM     24  N   LIG    1       -0.608  34.213   6.334  0.00  0.00    -0.260 NA
BRANCH  22  25
ATOM     25  C   LIG    1       -0.200  30.442   6.889  0.00  0.00    +0.033 C 
ATOM     26  C   LIG    1        1.079  30.296   7.699  0.00  0.00    +0.009 C 
ENDBRANCH  22  25
ENDBRANCH  18  19
ENDBRANCH  17  18
ENDBRANCH  16  17
ENDBRANCH   4  16
TORSDOF 7
ENDMDL
MODEL 3
REMARK VINA RESULT:      -6.3      2.081      6.605
REMARK  Name = 
REMARK                            x       y       z     vdW  Elec       q    Type
REMARK                         _______ _______ _______ _____ _____    ______ ____
ROOT
ATOM      1  C   LIG    1        3.438  32.221   5.632  0.00  0.00    -0.046 A 
ATOM      2  C   LIG    1        3.253  31.264   6.631  0.00  0.00    +0.007 A 
ATOM      3  C   LIG    1        3.792  29.986   6.502  0.00  0.00    +0.046 A 
ATOM      4  C   LIG    1        4.505  29.618   5.357  0.00  0.00    +0.121 A 
ATOM      5  C   LIG    1        4.679  30.563   4.346  0.00  0.00    +0.046 A 
ATOM      6  C   LIG    1        4.157  31.859   4.486  0.00  0.00    +0.007 A 
ENDROOT
BRANCH   1   7
ATOM      7  C   LIG    1        2.844  33.601   5.796  0.00  0.00    +0.059 C 
BRANCH   7  10
ATOM      8  O   LIG    1        2.109  36.667   5.004  0.00  0.00    -0.274 OA
ATOM      9  C   LIG    1        1.699  35.569   4.648  0.00  0.00    +0.234 C 
ATOM     10  C   LIG    1        2.549  34.321   4.473  0.00  0.00    +0.146 C 
ATOM     11  S   LIG    1        1.487  33.230   3.443  0.00  0.00    -0.054 S 
ATOM     12  C   LIG    1        0.079  34.246   3.634  0.00  0.00    +0.279 C 
ATOM     13  O   LIG    1       -1.006  34.006   3.141  0.00  0.00    -0.263 OA
ATOM     14  N   LIG    1        0.389  35.348   4.355  0.00  0.00    -0.246 N 
ATOM     15  H   LIG    1       -0.279  36.100   4.410  0.00  0.00    +0.158 HD
ENDBRANCH   7  10
ENDBRANCH   1   7
BRANCH   4  16
ATOM     16  O   LIG    1        5.052  28.371   5.132  0.00  0.00    -0.492 OA
BRANCH  16  17
ATOM     17  C   LIG    1        4.153  27.297   5.412  0.00  0.00    +0.235 C 
BRANCH  17  18
ATOM     18  C   LIG    1        2.959  27.224   4.463  0.00  0.00    +0.096 C 
BRANCH  18  19
ATOM     19  C   LIG    1        1.883  28.244   4.788  0.00  0.00    +0.045 A 
ATOM     20  C   LIG    1        1.175  28.238   5.991  0.00  0.00    +0.024 A 
ATOM     21  C   LIG    1        0.226  29.225   6.240  0.00  0.00    +0.007 A 
ATOM     22  C   LIG    1       -0.031  30.206   5.287  0.00  0.00    -0.030 A 
ATOM     23  C   LIG    1        0.699  30.127   4.106  0.00  0.00    +0.114 A 
ATOM     24  N   LIG    1        1.637  29.180   3.841  0.00  0.00    -0.260 NA
BRANCH  22  25
ATOM     25  C   LIG    1       -1.051  31.265   5.609  0.00  0.00    +0.033 C 
ATOM     26  C   LIG    1       -0.606  32.393   6.528  0.00  0.00    +0.009 C 
ENDBRANCH  22  25
ENDBRANCH  18  19
ENDBRANCH  17  18
ENDBRANCH  16  17
ENDBRANCH   4  16
TORSDOF 7
ENDMDL
MODEL 4
REMARK VINA RESULT:      -6.2      2.221      6.160
REMARK  Name = 
REMARK                            x       y       z     vdW  Elec       q    Type
REMARK                         _______ _______ _______ _____ _____    ______ ____
ROOT
ATOM      1  C   LIG    1        0.073  30.300   4.877  0.00  0.00    -0.046 A 
ATOM      2  C   LIG    1        0.102  29.536   6.044  0.00  0.00    +0.007 A 
ATOM      3  C   LIG    1        0.922  28.414   6.141  0.00  0.00    +0.046 A 
ATOM      4  C   LIG    1        1.715  28.007   5.063  0.00  0.00    +0.121 A 
ATOM      5  C   LIG    1        1.680  28.756   3.888  0.00  0.00    +0.046 A 
ATOM      6  C   LIG    1        0.872  29.900   3.797  0.00  0.00    +0.007 A 
ENDROOT
BRANCH   1   7
ATOM      7  C   LIG    1       -0.825  31.514   4.797  0.00  0.00    +0.059 C 
BRANCH   7  10
ATOM      8  O   LIG    1       -0.589  33.508   7.353  0.00  0.00    -0.274 OA
ATOM      9  C   LIG    1       -0.750  33.673   6.151  0.00  0.00    +0.234 C 
ATOM     10  C   LIG    1       -0.107  32.846   5.050  0.00  0.00    +0.146 C 
ATOM     11  S   LIG    1       -0.305  33.904   3.559  0.00  0.00    -0.054 S 
ATOM     12  C   LIG    1       -1.393  35.009   4.361  0.00  0.00    +0.279 C 
ATOM     13  O   LIG    1       -1.893  35.981   3.827  0.00  0.00    -0.263 OA
ATOM     14  N   LIG    1       -1.549  34.658   5.658  0.00  0.00    -0.246 N 
ATOM     15  H   LIG    1       -2.019  35.293   6.284  0.00  0.00    +0.158 HD
ENDBRANCH   7  10
ENDBRANCH   1   7
BRANCH   4  16
ATOM     16  O   LIG    1        2.538  26.899   5.060  0.00  0.00    -0.492 OA
BRANCH  16  17
ATOM     17  C   LIG    1        3.917  27.218   4.868  0.00  0.00    +0.235 C 
BRANCH  17  18
ATOM     18  C   LIG    1        4.486  28.171   5.916  0.00  0.00    +0.096 C 
BRANCH  18  19
ATOM     19  C   LIG    1        4.255  29.632   5.572  0.00  0.00    +0.045 A 
ATOM     20  C   LIG    1        4.782  30.230   4.426  0.00  0.00    +0.024 A 
ATOM     21  C   LIG    1        4.502  31.565   4.152  0.00  0.00    +0.007 A 
ATOM     22  C   LIG    1        3.713  32.309   5.025  0.00  0.00    -0.030 A 
ATOM     23  C   LIG    1        3.248  31.646   6.154  0.00  0.00    +0.114 A 
ATOM     24  N   LIG    1        3.498  30.342   6.442  0.00  0.00    -0.260 NA
BRANCH  22  25
ATOM     25  C   LIG    1        3.419  33.743   4.676  0.00  0.00    +0.033 C 
ATOM     26  C   LIG    1        2.547  34.524   5.647  0.00  0.00    +0.009 C 
ENDBRANCH  22  25
ENDBRANCH  18  19
ENDBRANCH  17  18
ENDBRANCH  16  17
ENDBRANCH   4  16
TORSDOF 7
ENDMDL
MODEL 5
REMARK VINA RESULT:      -5.3      2.361      6.201
REMARK  Name = 
REMARK                            x       y       z     vdW  Elec       q    Type
REMARK                         _______ _______ _______ _____ _____    ______ ____
ROOT
ATOM      1  C   LIG    1        0.183  32.006   6.467  0.00  0.00    -0.046 A 
ATOM      2  C   LIG    1        1.206  31.505   7.272  0.00  0.00    +0.007 A 
ATOM      3  C   LIG    1        1.424  30.132   7.375  0.00  0.00    +0.046 A 
ATOM      4  C   LIG    1        0.606  29.221   6.700  0.00  0.00    +0.121 A 
ATOM      5  C   LIG    1       -0.429  29.714   5.906  0.00  0.00    +0.046 A 
ATOM      6  C   LIG    1       -0.635  31.097   5.782  0.00  0.00    +0.007 A 
ENDROOT
BRANCH   1   7
ATOM      7  C   LIG    1       -0.033  33.500   6.371  0.00  0.00    +0.059 C 
BRANCH   7  10
ATOM      8  O   LIG    1        2.250  35.758   5.866  0.00  0.00    -0.274 OA
ATOM      9  C   LIG    1        1.153  35.525   5.375  0.00  0.00    +0.234 C 
ATOM     10  C   LIG    1        0.574  34.144   5.117  0.00  0.00    +0.146 C 
ATOM     11  S   LIG    1       -0.783  34.474   3.920  0.00  0.00    -0.054 S 
ATOM     12  C   LIG    1       -0.694  36.204   4.139  0.00  0.00    +0.279 C 
ATOM     13  O   LIG    1       -1.411  37.001   3.563  0.00  0.00    -0.263 OA
ATOM     14  N   LIG    1        0.310  36.520   4.988  0.00  0.00    -0.246 N 
ATOM     15  H   LIG    1        0.583  37.485   5.085  0.00  0.00    +0.158 HD
ENDBRANCH   7  10
ENDBRANCH   1   7
BRANCH   4  16
ATOM     16  O   LIG    1        0.732  27.849   6.761  0.00  0.00    -0.492 OA
BRANCH  16  17
ATOM     17  C   LIG    1        0.807  27.228   5.477  0.00  0.00    +0.235 C 
BRANCH  17  18
ATOM     18  C   LIG    1        2.210  27.217   4.874  0.00  0.00    +0.096 C 
BRANCH  18  19
ATOM     19  C   LIG    1        2.795  28.609   4.716  0.00  0.00    +0.045 A 
ATOM     20  C   LIG    1        2.186  29.601   3.944  0.00  0.00    +0.024 A 
ATOM     21  C   LIG    1        2.757  30.868   3.870  0.00  0.00    +0.007 A 
ATOM     22  C   LIG    1        3.940  31.143   4.550  0.00  0.00    -0.030 A 
ATOM     23  C   LIG    1        4.494  30.095   5.275  0.00  0.00    +0.114 A 
ATOM     24  N   LIG    1        3.954  28.852   5.372  0.00  0.00    -0.260 NA
BRANCH  22  25
ATOM     25  C   LIG    1        4.509  32.534   4.457  0.00  0.00    +0.033 C 
ATOM     26  C   LIG    1        3.710  33.553   3.660  0.00  0.00    +0.009 C 
ENDBRANCH  22  25
ENDBRANCH  18  19
ENDBRANCH  17  18
ENDBRANCH  16  17
ENDBRANCH   4  16
TORSDOF 7
ENDMDL
MODEL 6
REMARK VINA RESULT:      -5.0      1.322      1.983
REMARK  Name = 
REMARK                            x       y       z     vdW  Elec       q    Type
REMARK                         _______ _______ _______ _____ _____    ______ ____
ROOT
ATOM      1  C   LIG    1        0.594  29.578   5.923  0.00  0.00    -0.046 A 
ATOM      2  C   LIG    1       -0.433  30.097   5.133  0.00  0.00    +0.007 A 
ATOM      3  C   LIG    1       -0.947  31.368   5.379  0.00  0.00    +0.046 A 
ATOM      4  C   LIG    1       -0.470  32.145   6.438  0.00  0.00    +0.121 A 
ATOM      5  C   LIG    1        0.545  31.627   7.242  0.00  0.00    +0.046 A 
ATOM      6  C   LIG    1        1.081  30.356   6.982  0.00  0.00    +0.007 A 
ENDROOT
BRANCH   1   7
ATOM      7  C   LIG    1        1.136  28.196   5.636  0.00  0.00    +0.059 C 
BRANCH   7  10
ATOM      8  O   LIG    1        2.909  25.826   4.293  0.00  0.00    -0.274 OA
ATOM      9  C   LIG    1        3.149  26.966   4.668  0.00  0.00    +0.234 C 
ATOM     10  C   LIG    1        2.211  28.155   4.542  0.00  0.00    +0.146 C 
ATOM     11  S   LIG    1        3.327  29.598   4.771  0.00  0.00    -0.054 S 
ATOM     12  C   LIG    1        4.664  28.610   5.304  0.00  0.00    +0.279 C 
ATOM     13  O   LIG    1        5.752  29.050   5.625  0.00  0.00    -0.263 OA
ATOM     14  N   LIG    1        4.331  27.300   5.255  0.00  0.00    -0.246 N 
ATOM     15  H   LIG    1        5.051  26.606   5.379  0.00  0.00    +0.158 HD
ENDBRANCH   7  10
ENDBRANCH   1   7
BRANCH   4  16
ATOM     16  O   LIG    1       -0.934  33.402   6.770  0.00  0.00    -0.492 OA
BRANCH  16  17
ATOM     17  C   LIG    1       -1.727  34.002   5.745  0.00  0.00    +0.235 C 
BRANCH  17  18
ATOM     18  C   LIG    1       -0.944  34.926   4.815  0.00  0.00    +0.096 C 
BRANCH  18  19
ATOM     19  C   LIG    1        0.462  34.426   4.533  0.00  0.00    +0.045 A 
ATOM     20  C   LIG    1        1.556  34.759   5.333  0.00  0.00    +0.024 A 
ATOM     21  C   LIG    1        2.812  34.237   5.039  0.00  0.00    +0.007 A 
ATOM     22  C   LIG    1        2.982  33.397   3.941  0.00  0.00    -0.030 A 
ATOM     23  C   LIG    1        1.847  33.134   3.183  0.00  0.00    +0.114 A 
ATOM     24  N   LIG    1        0.608  33.623   3.453  0.00  0.00    -0.260 NA
BRANCH  22  25
ATOM     25  C   LIG    1        4.354  32.839   3.675  0.00  0.00    +0.033 C 
ATOM     26  C   LIG    1        5.063  32.167   4.841  0.00  0.00    +0.009 C 
ENDBRANCH  22  25
ENDBRANCH  18  19
ENDBRANCH  17  18
ENDBRANCH  16  17
ENDBRANCH   4  16
TORSDOF 7
ENDMDL
MODEL 7
REMARK VINA RESULT:      -5.0      1.713      3.937
REMARK  Name = 
REMARK                            x       y       z     vdW  Elec       q    Type
REMARK                         _______ _______ _______ _____ _____    ______ ____
ROOT
ATOM      1  C   LIG    1        3.972  30.743   4.675  0.00  0.00    -0.046 A 
ATOM      2  C   LIG    1        4.396  31.968   5.191  0.00  0.00    +0.007 A 
ATOM      3  C   LIG    1        3.809  33.160   4.771  0.00  0.00    +0.046 A 
ATOM      4  C   LIG    1        2.802  33.163   3.801  0.00  0.00    +0.121 A 
ATOM      5  C   LIG    1        2.384  31.944   3.268  0.00  0.00    +0.046 A 
ATOM      6  C   LIG    1        2.958  30.741   3.708  0.00  0.00    +0.007 A 
ENDROOT
BRANCH   1   7
ATOM      7  C   LIG    1        4.624  29.463   5.148  0.00  0.00    +0.059 C 
BRANCH   7  10
ATOM      8  O   LIG    1        4.150  26.255   5.370  0.00  0.00    -0.274 OA
ATOM      9  C   LIG    1        3.411  27.231   5.368  0.00  0.00    +0.234 C 
ATOM     10  C   LIG    1        3.717  28.575   6.009  0.00  0.00    +0.146 C 
ATOM     11  S   LIG    1        2.064  29.373   6.125  0.00  0.00    -0.054 S 
ATOM     12  C   LIG    1        1.299  28.169   5.116  0.00  0.00    +0.279 C 
ATOM     13  O   LIG    1        0.120  28.181   4.816  0.00  0.00    -0.263 OA
ATOM     14  N   LIG    1        2.188  27.210   4.772  0.00  0.00    -0.246 N 
ATOM     15  H   LIG    1        1.854  26.370   4.327  0.00  0.00    +0.158 HD
ENDBRANCH   7  10
ENDBRANCH   1   7
BRANCH   4  16
ATOM     16  O   LIG    1        2.181  34.292   3.309  0.00  0.00    -0.492 OA
BRANCH  16  17
ATOM     17  C   LIG    1        2.123  35.364   4.251  0.00  0.00    +0.235 C 
BRANCH  17  18
ATOM     18  C   LIG    1        0.764  35.520   4.930  0.00  0.00    +0.096 C 
BRANCH  18  19
ATOM     19  C   LIG    1        0.154  34.192   5.341  0.00  0.00    +0.045 A 
ATOM     20  C   LIG    1       -0.782  33.516   4.558  0.00  0.00    +0.024 A 
ATOM     21  C   LIG    1       -1.274  32.284   4.977  0.00  0.00    +0.007 A 
ATOM     22  C   LIG    1       -0.848  31.733   6.183  0.00  0.00    -0.030 A 
ATOM     23  C   LIG    1        0.067  32.481   6.915  0.00  0.00    +0.114 A 
ATOM     24  N   LIG    1        0.570  33.682   6.524  0.00  0.00    -0.260 NA
BRANCH  22  25
ATOM     25  C   LIG    1       -1.392  30.389   6.586  0.00  0.00    +0.033 C 
ATOM     26  C   LIG    1       -0.804  29.754   7.837  0.00  0.00    +0.009 C 
ENDBRANCH  22  25
ENDBRANCH  18  19
ENDBRANCH  17  18
ENDBRANCH  16  17
ENDBRANCH   4  16
TORSDOF 7
ENDMDL
