MODEL 1
REMARK VINA RESULT:      -8.4      0.000      0.000
REMARK  Name = 
REMARK                            x       y       z     vdW  Elec       q    Type
REMARK                         _______ _______ _______ _____ _____    ______ ____
ROOT
ATOM      1  C   LIG    1      -41.647  16.421 -45.151  0.00  0.00    -0.046 A 
ATOM      2  C   LIG    1      -41.006  15.942 -44.008  0.00  0.00    +0.007 A 
ATOM      3  C   LIG    1      -41.305  14.679 -43.500  0.00  0.00    +0.046 A 
ATOM      4  C   LIG    1      -42.275  13.872 -44.102  0.00  0.00    +0.121 A 
ATOM      5  C   LIG    1      -42.931  14.351 -45.236  0.00  0.00    +0.046 A 
ATOM      6  C   LIG    1      -42.614  15.612 -45.763  0.00  0.00    +0.007 A 
ENDROOT
BRANCH   1   7
ATOM      7  C   LIG    1      -41.304  17.794 -45.683  0.00  0.00    +0.059 C 
BRANCH   7  10
ATOM      8  O   LIG    1      -40.876  20.683 -44.257  0.00  0.00    -0.274 OA
ATOM      9  C   LIG    1      -40.196  19.987 -45.001  0.00  0.00    +0.234 C 
ATOM     10  C   LIG    1      -40.124  18.469 -44.971  0.00  0.00    +0.146 C 
ATOM     11  S   LIG    1      -38.590  18.102 -45.916  0.00  0.00    -0.054 S 
ATOM     12  C   LIG    1      -38.427  19.744 -46.488  0.00  0.00    +0.279 C 
ATOM     13  O   LIG    1      -37.529  20.127 -47.214  0.00  0.00    -0.263 OA
ATOM     14  N   LIG    1      -39.401  20.523 -45.966  0.00  0.00    -0.246 N 
ATOM     15  H   LIG    1      -39.341  21.523 -46.077  0.00  0.00    +0.158 HD
ENDBRANCH   7  10
ENDBRANCH   1   7
BRANCH   4  16
ATOM     16  O   LIG    1      -42.652  12.622 -43.657  0.00  0.00    -0.492 OA
BRANCH  16  17
ATOM     17  C   LIG    1      -43.911  12.616 -42.982  0.00  0.00    +0.235 C 
BRANCH  17  18
ATOM     18  C   LIG    1      -44.945  11.682 -43.605  0.00  0.00    +0.096 C 
BRANCH  18  19
ATOM     19  C   LIG    1      -46.126  11.414 -42.690  0.00  0.00    +0.045 A 
ATOM     20  C   LIG    1      -47.398  11.941 -42.924  0.00  0.00    +0.024 A 
ATOM     21  C   LIG    1      -48.446  11.626 -42.064  0.00  0.00    +0.007 A 
ATOM     22  C   LIG    1      -48.226  10.802 -40.964  0.00  0.00    -0.030 A 
ATOM     23  C   LIG    1      -46.927  10.339 -40.789  0.00  0.00    +0.114 A 
ATOM     24  N   LIG    1      -45.888  10.623 -41.617  0.00  0.00    -0.260 NA
BRANCH  22  25
ATOM     25  C   LIG    1      -49.394  10.472 -40.075  0.00  0.00    +0.033 C 
ATOM     26  C   LIG    1      -50.377  11.596 -39.782  0.00  0.00    +0.009 C 
ENDBRANCH  22  25
ENDBRANCH  18  19
ENDBRANCH  17  18
ENDBRANCH  16  17
ENDBRANCH   4  16
TORSDOF 7
ENDMDL
MODEL 2
REMARK VINA RESULT:      -8.4      2.002      2.498
REMARK  Name = 
REMARK                            x       y       z     vdW  Elec       q    Type
REMARK                         _______ _______ _______ _____ _____    ______ ____
ROOT
ATOM      1  C   LIG    1      -41.849  14.979 -44.344  0.00  0.00    -0.046 A 
ATOM      2  C   LIG    1      -41.981  14.089 -43.277  0.00  0.00    +0.007 A 
ATOM      3  C   LIG    1      -43.030  13.172 -43.240  0.00  0.00    +0.046 A 
ATOM      4  C   LIG    1      -43.993  13.139 -44.253  0.00  0.00    +0.121 A 
ATOM      5  C   LIG    1      -43.877  14.037 -45.314  0.00  0.00    +0.046 A 
ATOM      6  C   LIG    1      -42.809  14.945 -45.364  0.00  0.00    +0.007 A 
ENDROOT
BRANCH   1   7
ATOM      7  C   LIG    1      -40.702  15.964 -44.361  0.00  0.00    +0.059 C 
BRANCH   7  10
ATOM      8  O   LIG    1      -38.028  14.826 -45.818  0.00  0.00    -0.274 OA
ATOM      9  C   LIG    1      -38.570  15.923 -45.759  0.00  0.00    +0.234 C 
ATOM     10  C   LIG    1      -40.070  16.169 -45.744  0.00  0.00    +0.146 C 
ATOM     11  S   LIG    1      -40.208  17.948 -46.187  0.00  0.00    -0.054 S 
ATOM     12  C   LIG    1      -38.494  18.232 -46.008  0.00  0.00    +0.279 C 
ATOM     13  O   LIG    1      -37.960  19.311 -46.183  0.00  0.00    -0.263 OA
ATOM     14  N   LIG    1      -37.856  17.079 -45.705  0.00  0.00    -0.246 N 
ATOM     15  H   LIG    1      -36.848  17.056 -45.730  0.00  0.00    +0.158 HD
ENDBRANCH   7  10
ENDBRANCH   1   7
BRANCH   4  16
ATOM     16  O   LIG    1      -45.076  12.284 -44.288  0.00  0.00    -0.492 OA
BRANCH  16  17
ATOM     17  C   LIG    1      -45.830  12.373 -45.498  0.00  0.00    +0.235 C 
BRANCH  17  18
ATOM     18  C   LIG    1      -47.163  11.631 -45.453  0.00  0.00    +0.096 C 
BRANCH  18  19
ATOM     19  C   LIG    1      -47.682  11.434 -44.040  0.00  0.00    +0.045 A 
ATOM     20  C   LIG    1      -48.393  12.419 -43.352  0.00  0.00    +0.024 A 
ATOM     21  C   LIG    1      -48.871  12.159 -42.072  0.00  0.00    +0.007 A 
ATOM     22  C   LIG    1      -48.628  10.928 -41.470  0.00  0.00    -0.030 A 
ATOM     23  C   LIG    1      -47.893  10.011 -42.212  0.00  0.00    +0.114 A 
ATOM     24  N   LIG    1      -47.422  10.236 -43.467  0.00  0.00    -0.260 NA
BRANCH  22  25
ATOM     25  C   LIG    1      -49.184  10.685 -40.092  0.00  0.00    +0.033 C 
ATOM     26  C   LIG    1      -50.393  11.512 -39.681  0.00  0.00    +0.009 C 
ENDBRANCH  22  25
ENDBRANCH  18  19
ENDBRANCH  17  18
ENDBRANCH  16  17
ENDBRANCH   4  16
TORSDOF 7
ENDMDL
MODEL 3
REMARK VINA RESULT:      -8.0      2.348      3.422
REMARK  Name = 
REMARK                            x       y       z     vdW  Elec       q    Type
REMARK                         _______ _______ _______ _____ _____    ______ ____
ROOT
ATOM      1  C   LIG    1      -41.997  13.106 -43.801  0.00  0.00    -0.046 A 
ATOM      2  C   LIG    1      -43.108  13.153 -42.957  0.00  0.00    +0.007 A 
ATOM      3  C   LIG    1      -43.986  12.074 -42.874  0.00  0.00    +0.046 A 
ATOM      4  C   LIG    1      -43.795  10.930 -43.655  0.00  0.00    +0.121 A 
ATOM      5  C   LIG    1      -42.697  10.883 -44.513  0.00  0.00    +0.046 A 
ATOM      6  C   LIG    1      -41.798  11.959 -44.580  0.00  0.00    +0.007 A 
ENDROOT
BRANCH   1   7
ATOM      7  C   LIG    1      -41.059  14.289 -43.872  0.00  0.00    +0.059 C 
BRANCH   7  10
ATOM      8  O   LIG    1      -43.440  14.895 -46.000  0.00  0.00    -0.274 OA
ATOM      9  C   LIG    1      -42.338  15.384 -45.787  0.00  0.00    +0.234 C 
ATOM     10  C   LIG    1      -41.701  15.571 -44.420  0.00  0.00    +0.146 C 
ATOM     11  S   LIG    1      -40.368  16.796 -44.740  0.00  0.00    -0.054 S 
ATOM     12  C   LIG    1      -40.529  16.672 -46.475  0.00  0.00    +0.279 C 
ATOM     13  O   LIG    1      -39.852  17.297 -47.269  0.00  0.00    -0.263 OA
ATOM     14  N   LIG    1      -41.540  15.832 -46.794  0.00  0.00    -0.246 N 
ATOM     15  H   LIG    1      -41.854  15.785 -47.751  0.00  0.00    +0.158 HD
ENDBRANCH   7  10
ENDBRANCH   1   7
BRANCH   4  16
ATOM     16  O   LIG    1      -44.623   9.826 -43.657  0.00  0.00    -0.492 OA
BRANCH  16  17
ATOM     17  C   LIG    1      -45.379   9.686 -44.861  0.00  0.00    +0.235 C 
BRANCH  17  18
ATOM     18  C   LIG    1      -46.782   9.121 -44.651  0.00  0.00    +0.096 C 
BRANCH  18  19
ATOM     19  C   LIG    1      -47.405   9.562 -43.338  0.00  0.00    +0.045 A 
ATOM     20  C   LIG    1      -47.790  10.880 -43.090  0.00  0.00    +0.024 A 
ATOM     21  C   LIG    1      -48.389  11.209 -41.878  0.00  0.00    +0.007 A 
ATOM     22  C   LIG    1      -48.589  10.231 -40.907  0.00  0.00    -0.030 A 
ATOM     23  C   LIG    1      -48.155   8.949 -41.224  0.00  0.00    +0.114 A 
ATOM     24  N   LIG    1      -47.576   8.599 -42.402  0.00  0.00    -0.260 NA
BRANCH  22  25
ATOM     25  C   LIG    1      -49.259  10.630 -39.620  0.00  0.00    +0.033 C 
ATOM     26  C   LIG    1      -50.408  11.623 -39.720  0.00  0.00    +0.009 C 
ENDBRANCH  22  25
ENDBRANCH  18  19
ENDBRANCH  17  18
ENDBRANCH  16  17
ENDBRANCH   4  16
TORSDOF 7
ENDMDL
MODEL 4
REMARK VINA RESULT:      -8.0      1.385      2.177
REMARK  Name = 
REMARK                            x       y       z     vdW  Elec       q    Type
REMARK                         _______ _______ _______ _____ _____    ______ ____
ROOT
ATOM      1  C   LIG    1      -41.234  15.910 -44.354  0.00  0.00    -0.046 A 
ATOM      2  C   LIG    1      -41.953  15.648 -45.521  0.00  0.00    +0.007 A 
ATOM      3  C   LIG    1      -42.883  14.612 -45.567  0.00  0.00    +0.046 A 
ATOM      4  C   LIG    1      -43.100  13.790 -44.457  0.00  0.00    +0.121 A 
ATOM      5  C   LIG    1      -42.374  14.036 -43.292  0.00  0.00    +0.046 A 
ATOM      6  C   LIG    1      -41.453  15.094 -43.237  0.00  0.00    +0.007 A 
ENDROOT
BRANCH   1   7
ATOM      7  C   LIG    1      -40.230  17.041 -44.329  0.00  0.00    +0.059 C 
BRANCH   7  10
ATOM      8  O   LIG    1      -38.090  18.844 -45.983  0.00  0.00    -0.274 OA
ATOM      9  C   LIG    1      -39.221  19.035 -45.557  0.00  0.00    +0.234 C 
ATOM     10  C   LIG    1      -40.339  18.005 -45.518  0.00  0.00    +0.146 C 
ATOM     11  S   LIG    1      -41.849  19.031 -45.296  0.00  0.00    -0.054 S 
ATOM     12  C   LIG    1      -40.938  20.481 -44.954  0.00  0.00    +0.279 C 
ATOM     13  O   LIG    1      -41.443  21.560 -44.706  0.00  0.00    -0.263 OA
ATOM     14  N   LIG    1      -39.612  20.240 -45.060  0.00  0.00    -0.246 N 
ATOM     15  H   LIG    1      -38.970  21.017 -45.048  0.00  0.00    +0.158 HD
ENDBRANCH   7  10
ENDBRANCH   1   7
BRANCH   4  16
ATOM     16  O   LIG    1      -43.982  12.729 -44.418  0.00  0.00    -0.492 OA
BRANCH  16  17
ATOM     17  C   LIG    1      -45.186  12.965 -45.149  0.00  0.00    +0.235 C 
BRANCH  17  18
ATOM     18  C   LIG    1      -46.121  11.760 -45.209  0.00  0.00    +0.096 C 
BRANCH  18  19
ATOM     19  C   LIG    1      -47.019  11.648 -43.989  0.00  0.00    +0.045 A 
ATOM     20  C   LIG    1      -48.019  12.577 -43.699  0.00  0.00    +0.024 A 
ATOM     21  C   LIG    1      -48.830  12.395 -42.584  0.00  0.00    +0.007 A 
ATOM     22  C   LIG    1      -48.636  11.299 -41.748  0.00  0.00    -0.030 A 
ATOM     23  C   LIG    1      -47.604  10.434 -42.093  0.00  0.00    +0.114 A 
ATOM     24  N   LIG    1      -46.803  10.583 -43.181  0.00  0.00    -0.260 NA
BRANCH  22  25
ATOM     25  C   LIG    1      -49.551  11.132 -40.565  0.00  0.00    +0.033 C 
ATOM     26  C   LIG    1      -48.943  10.543 -39.301  0.00  0.00    +0.009 C 
ENDBRANCH  22  25
ENDBRANCH  18  19
ENDBRANCH  17  18
ENDBRANCH  16  17
ENDBRANCH   4  16
TORSDOF 7
ENDMDL
MODEL 5
REMARK VINA RESULT:      -7.8      8.582     11.668
REMARK  Name = 
REMARK                            x       y       z     vdW  Elec       q    Type
REMARK                         _______ _______ _______ _____ _____    ______ ____
ROOT
ATOM      1  C   LIG    1      -49.574   7.119 -45.933  0.00  0.00    -0.046 A 
ATOM      2  C   LIG    1      -48.887   8.276 -46.305  0.00  0.00    +0.007 A 
ATOM      3  C   LIG    1      -47.509   8.375 -46.125  0.00  0.00    +0.046 A 
ATOM      4  C   LIG    1      -46.782   7.332 -45.542  0.00  0.00    +0.121 A 
ATOM      5  C   LIG    1      -47.463   6.179 -45.154  0.00  0.00    +0.046 A 
ATOM      6  C   LIG    1      -48.848   6.068 -45.355  0.00  0.00    +0.007 A 
ENDROOT
BRANCH   1   7
ATOM      7  C   LIG    1      -51.069   7.035 -46.138  0.00  0.00    +0.059 C 
BRANCH   7  10
ATOM      8  O   LIG    1      -50.448   7.627 -49.274  0.00  0.00    -0.274 OA
ATOM      9  C   LIG    1      -51.450   7.312 -48.645  0.00  0.00    +0.234 C 
ATOM     10  C   LIG    1      -51.487   6.367 -47.455  0.00  0.00    +0.146 C 
ATOM     11  S   LIG    1      -53.265   5.911 -47.335  0.00  0.00    -0.054 S 
ATOM     12  C   LIG    1      -53.762   7.135 -48.478  0.00  0.00    +0.279 C 
ATOM     13  O   LIG    1      -54.915   7.324 -48.815  0.00  0.00    -0.263 OA
ATOM     14  N   LIG    1      -52.683   7.792 -48.963  0.00  0.00    -0.246 N 
ATOM     15  H   LIG    1      -52.800   8.413 -49.747  0.00  0.00    +0.158 HD
ENDBRANCH   7  10
ENDBRANCH   1   7
BRANCH   4  16
ATOM     16  O   LIG    1      -45.423   7.351 -45.305  0.00  0.00    -0.492 OA
BRANCH  16  17
ATOM     17  C   LIG    1      -45.089   7.588 -43.936  0.00  0.00    +0.235 C 
BRANCH  17  18
ATOM     18  C   LIG    1      -45.064   9.065 -43.551  0.00  0.00    +0.096 C 
BRANCH  18  19
ATOM     19  C   LIG    1      -46.137   9.429 -42.540  0.00  0.00    +0.045 A 
ATOM     20  C   LIG    1      -47.169   8.558 -42.186  0.00  0.00    +0.024 A 
ATOM     21  C   LIG    1      -48.099   8.942 -41.225  0.00  0.00    +0.007 A 
ATOM     22  C   LIG    1      -48.012  10.196 -40.628  0.00  0.00    -0.030 A 
ATOM     23  C   LIG    1      -46.970  11.012 -41.053  0.00  0.00    +0.114 A 
ATOM     24  N   LIG    1      -46.043  10.660 -41.982  0.00  0.00    -0.260 NA
BRANCH  22  25
ATOM     25  C   LIG    1      -49.028  10.559 -39.578  0.00  0.00    +0.033 C 
ATOM     26  C   LIG    1      -50.207  11.410 -40.025  0.00  0.00    +0.009 C 
ENDBRANCH  22  25
ENDBRANCH  18  19
ENDBRANCH  17  18
ENDBRANCH  16  17
ENDBRANCH   4  16
TORSDOF 7
ENDMDL
MODEL 6
REMARK VINA RESULT:      -7.5      8.451     11.958
REMARK  Name = 
REMARK                            x       y       z     vdW  Elec       q    Type
REMARK                         _______ _______ _______ _____ _____    ______ ____
ROOT
ATOM      1  C   LIG    1      -49.963   7.415 -47.112  0.00  0.00    -0.046 A 
ATOM      2  C   LIG    1      -49.959   6.830 -45.845  0.00  0.00    +0.007 A 
ATOM      3  C   LIG    1      -48.826   6.890 -45.036  0.00  0.00    +0.046 A 
ATOM      4  C   LIG    1      -47.655   7.509 -45.483  0.00  0.00    +0.121 A 
ATOM      5  C   LIG    1      -47.646   8.081 -46.755  0.00  0.00    +0.046 A 
ATOM      6  C   LIG    1      -48.794   8.043 -47.561  0.00  0.00    +0.007 A 
ENDROOT
BRANCH   1   7
ATOM      7  C   LIG    1      -51.205   7.337 -47.971  0.00  0.00    +0.059 C 
BRANCH   7  10
ATOM      8  O   LIG    1      -53.664   5.284 -47.417  0.00  0.00    -0.274 OA
ATOM      9  C   LIG    1      -53.589   6.476 -47.688  0.00  0.00    +0.234 C 
ATOM     10  C   LIG    1      -52.520   7.432 -47.185  0.00  0.00    +0.146 C 
ATOM     11  S   LIG    1      -53.260   9.088 -47.491  0.00  0.00    -0.054 S 
ATOM     12  C   LIG    1      -54.564   8.441 -48.456  0.00  0.00    +0.279 C 
ATOM     13  O   LIG    1      -55.432   9.119 -48.972  0.00  0.00    -0.263 OA
ATOM     14  N   LIG    1      -54.494   7.091 -48.496  0.00  0.00    -0.246 N 
ATOM     15  H   LIG    1      -55.268   6.572 -48.881  0.00  0.00    +0.158 HD
ENDBRANCH   7  10
ENDBRANCH   1   7
BRANCH   4  16
ATOM     16  O   LIG    1      -46.481   7.596 -44.763  0.00  0.00    -0.492 OA
BRANCH  16  17
ATOM     17  C   LIG    1      -45.814   8.850 -44.913  0.00  0.00    +0.235 C 
BRANCH  17  18
ATOM     18  C   LIG    1      -45.228   9.400 -43.615  0.00  0.00    +0.096 C 
BRANCH  18  19
ATOM     19  C   LIG    1      -46.291   9.742 -42.586  0.00  0.00    +0.045 A 
ATOM     20  C   LIG    1      -47.452  10.447 -42.905  0.00  0.00    +0.024 A 
ATOM     21  C   LIG    1      -48.403  10.695 -41.920  0.00  0.00    +0.007 A 
ATOM     22  C   LIG    1      -48.192  10.256 -40.616  0.00  0.00    -0.030 A 
ATOM     23  C   LIG    1      -47.000   9.582 -40.377  0.00  0.00    +0.114 A 
ATOM     24  N   LIG    1      -46.059   9.319 -41.321  0.00  0.00    -0.260 NA
BRANCH  22  25
ATOM     25  C   LIG    1      -49.258  10.529 -39.589  0.00  0.00    +0.033 C 
ATOM     26  C   LIG    1      -50.290  11.592 -39.933  0.00  0.00    +0.009 C 
ENDBRANCH  22  25
ENDBRANCH  18  19
ENDBRANCH  17  18
ENDBRANCH  16  17
ENDBRANCH   4  16
TORSDOF 7
ENDMDL
MODEL 7
REMARK VINA RESULT:      -7.5      7.254     10.767
REMARK  Name = 
REMARK                            x       y       z     vdW  Elec       q    Type
REMARK                         _______ _______ _______ _____ _____    ______ ____
ROOT
ATOM      1  C   LIG    1      -48.491   8.766 -45.867  0.00  0.00    -0.046 A 
ATOM      2  C   LIG    1      -47.590   9.639 -46.480  0.00  0.00    +0.007 A 
ATOM      3  C   LIG    1      -46.308   9.816 -45.964  0.00  0.00    +0.046 A 
ATOM      4  C   LIG    1      -45.900   9.150 -44.805  0.00  0.00    +0.121 A 
ATOM      5  C   LIG    1      -46.800   8.289 -44.178  0.00  0.00    +0.046 A 
ATOM      6  C   LIG    1      -48.084   8.090 -44.710  0.00  0.00    +0.007 A 
ENDROOT
BRANCH   1   7
ATOM      7  C   LIG    1      -49.876   8.590 -46.446  0.00  0.00    +0.059 C 
BRANCH   7  10
ATOM      8  O   LIG    1      -50.052   7.472 -49.494  0.00  0.00    -0.274 OA
ATOM      9  C   LIG    1      -50.698   7.277 -48.472  0.00  0.00    +0.234 C 
ATOM     10  C   LIG    1      -50.130   7.208 -47.064  0.00  0.00    +0.146 C 
ATOM     11  S   LIG    1      -51.467   6.382 -46.110  0.00  0.00    -0.054 S 
ATOM     12  C   LIG    1      -52.625   6.528 -47.409  0.00  0.00    +0.279 C 
ATOM     13  O   LIG    1      -53.773   6.131 -47.347  0.00  0.00    -0.263 OA
ATOM     14  N   LIG    1      -52.046   7.090 -48.495  0.00  0.00    -0.246 N 
ATOM     15  H   LIG    1      -52.545   7.091 -49.370  0.00  0.00    +0.158 HD
ENDBRANCH   7  10
ENDBRANCH   1   7
BRANCH   4  16
ATOM     16  O   LIG    1      -44.661   9.282 -44.211  0.00  0.00    -0.492 OA
BRANCH  16  17
ATOM     17  C   LIG    1      -44.183  10.628 -44.188  0.00  0.00    +0.235 C 
BRANCH  17  18
ATOM     18  C   LIG    1      -44.248  11.285 -42.812  0.00  0.00    +0.096 C 
BRANCH  18  19
ATOM     19  C   LIG    1      -45.581  11.072 -42.118  0.00  0.00    +0.045 A 
ATOM     20  C   LIG    1      -46.742  11.755 -42.485  0.00  0.00    +0.024 A 
ATOM     21  C   LIG    1      -47.939  11.485 -41.831  0.00  0.00    +0.007 A 
ATOM     22  C   LIG    1      -47.979  10.550 -40.801  0.00  0.00    -0.030 A 
ATOM     23  C   LIG    1      -46.776   9.932 -40.480  0.00  0.00    +0.114 A 
ATOM     24  N   LIG    1      -45.595  10.170 -41.109  0.00  0.00    -0.260 NA
BRANCH  22  25
ATOM     25  C   LIG    1      -49.302  10.276 -40.136  0.00  0.00    +0.033 C 
ATOM     26  C   LIG    1      -50.223  11.466 -39.918  0.00  0.00    +0.009 C 
ENDBRANCH  22  25
ENDBRANCH  18  19
ENDBRANCH  17  18
ENDBRANCH  16  17
ENDBRANCH   4  16
TORSDOF 7
ENDMDL
MODEL 8
REMARK VINA RESULT:      -7.4      3.465      9.105
REMARK  Name = 
REMARK                            x       y       z     vdW  Elec       q    Type
REMARK                         _______ _______ _______ _____ _____    ______ ____
ROOT
ATOM      1  C   LIG    1      -42.225  13.458 -43.746  0.00  0.00    -0.046 A 
ATOM      2  C   LIG    1      -41.945  14.723 -43.228  0.00  0.00    +0.007 A 
ATOM      3  C   LIG    1      -40.866  15.465 -43.705  0.00  0.00    +0.046 A 
ATOM      4  C   LIG    1      -40.019  14.951 -44.692  0.00  0.00    +0.121 A 
ATOM      5  C   LIG    1      -40.283  13.680 -45.203  0.00  0.00    +0.046 A 
ATOM      6  C   LIG    1      -41.384  12.941 -44.740  0.00  0.00    +0.007 A 
ENDROOT
BRANCH   1   7
ATOM      7  C   LIG    1      -43.402  12.673 -43.212  0.00  0.00    +0.059 C 
BRANCH   7  10
ATOM      8  O   LIG    1      -44.722  13.483 -46.070  0.00  0.00    -0.274 OA
ATOM      9  C   LIG    1      -45.083  12.792 -45.126  0.00  0.00    +0.234 C 
ATOM     10  C   LIG    1      -44.183  11.902 -44.285  0.00  0.00    +0.146 C 
ATOM     11  S   LIG    1      -45.370  10.779 -43.443  0.00  0.00    -0.054 S 
ATOM     12  C   LIG    1      -46.762  11.713 -43.935  0.00  0.00    +0.279 C 
ATOM     13  O   LIG    1      -47.909  11.432 -43.644  0.00  0.00    -0.263 OA
ATOM     14  N   LIG    1      -46.381  12.746 -44.720  0.00  0.00    -0.246 N 
ATOM     15  H   LIG    1      -47.086  13.275 -45.208  0.00  0.00    +0.158 HD
ENDBRANCH   7  10
ENDBRANCH   1   7
BRANCH   4  16
ATOM     16  O   LIG    1      -38.917  15.602 -45.207  0.00  0.00    -0.492 OA
BRANCH  16  17
ATOM     17  C   LIG    1      -39.247  16.598 -46.176  0.00  0.00    +0.235 C 
BRANCH  17  18
ATOM     18  C   LIG    1      -38.967  18.027 -45.716  0.00  0.00    +0.096 C 
BRANCH  18  19
ATOM     19  C   LIG    1      -40.223  18.876 -45.632  0.00  0.00    +0.045 A 
ATOM     20  C   LIG    1      -41.472  18.422 -46.058  0.00  0.00    +0.024 A 
ATOM     21  C   LIG    1      -42.589  19.240 -45.919  0.00  0.00    +0.007 A 
ATOM     22  C   LIG    1      -42.462  20.514 -45.373  0.00  0.00    -0.030 A 
ATOM     23  C   LIG    1      -41.180  20.899 -44.996  0.00  0.00    +0.114 A 
ATOM     24  N   LIG    1      -40.074  20.118 -45.113  0.00  0.00    -0.260 NA
BRANCH  22  25
ATOM     25  C   LIG    1      -43.701  21.354 -45.223  0.00  0.00    +0.033 C 
ATOM     26  C   LIG    1      -43.883  22.084 -43.901  0.00  0.00    +0.009 C 
ENDBRANCH  22  25
ENDBRANCH  18  19
ENDBRANCH  17  18
ENDBRANCH  16  17
ENDBRANCH   4  16
TORSDOF 7
ENDMDL
MODEL 9
REMARK VINA RESULT:      -7.4      1.910      2.260
REMARK  Name = 
REMARK                            x       y       z     vdW  Elec       q    Type
REMARK                         _______ _______ _______ _____ _____    ______ ____
ROOT
ATOM      1  C   LIG    1      -40.623  14.709 -44.541  0.00  0.00    -0.046 A 
ATOM      2  C   LIG    1      -41.438  14.837 -43.415  0.00  0.00    +0.007 A 
ATOM      3  C   LIG    1      -42.304  13.812 -43.042  0.00  0.00    +0.046 A 
ATOM      4  C   LIG    1      -42.404  12.642 -43.801  0.00  0.00    +0.121 A 
ATOM      5  C   LIG    1      -41.605  12.513 -44.937  0.00  0.00    +0.046 A 
ATOM      6  C   LIG    1      -40.714  13.535 -45.301  0.00  0.00    +0.007 A 
ENDROOT
BRANCH   1   7
ATOM      7  C   LIG    1      -39.690  15.835 -44.925  0.00  0.00    +0.059 C 
BRANCH   7  10
ATOM      8  O   LIG    1      -42.517  16.692 -46.281  0.00  0.00    -0.274 OA
ATOM      9  C   LIG    1      -41.376  17.132 -46.332  0.00  0.00    +0.234 C 
ATOM     10  C   LIG    1      -40.392  17.177 -45.174  0.00  0.00    +0.146 C 
ATOM     11  S   LIG    1      -39.134  18.394 -45.737  0.00  0.00    -0.054 S 
ATOM     12  C   LIG    1      -39.753  18.433 -47.370  0.00  0.00    +0.279 C 
ATOM     13  O   LIG    1      -39.281  19.111 -48.262  0.00  0.00    -0.263 OA
ATOM     14  N   LIG    1      -40.852  17.651 -47.475  0.00  0.00    -0.246 N 
ATOM     15  H   LIG    1      -41.409  17.700 -48.314  0.00  0.00    +0.158 HD
ENDBRANCH   7  10
ENDBRANCH   1   7
BRANCH   4  16
ATOM     16  O   LIG    1      -43.248  11.587 -43.522  0.00  0.00    -0.492 OA
BRANCH  16  17
ATOM     17  C   LIG    1      -44.226  11.359 -44.538  0.00  0.00    +0.235 C 
BRANCH  17  18
ATOM     18  C   LIG    1      -45.387  12.351 -44.514  0.00  0.00    +0.096 C 
BRANCH  18  19
ATOM     19  C   LIG    1      -46.451  11.989 -43.493  0.00  0.00    +0.045 A 
ATOM     20  C   LIG    1      -46.184  11.206 -42.369  0.00  0.00    +0.024 A 
ATOM     21  C   LIG    1      -47.198  10.942 -41.453  0.00  0.00    +0.007 A 
ATOM     22  C   LIG    1      -48.480  11.441 -41.664  0.00  0.00    -0.030 A 
ATOM     23  C   LIG    1      -48.669  12.190 -42.820  0.00  0.00    +0.114 A 
ATOM     24  N   LIG    1      -47.695  12.471 -43.725  0.00  0.00    -0.260 NA
BRANCH  22  25
ATOM     25  C   LIG    1      -49.539  11.147 -40.636  0.00  0.00    +0.033 C 
ATOM     26  C   LIG    1      -49.071  10.557 -39.314  0.00  0.00    +0.009 C 
ENDBRANCH  22  25
ENDBRANCH  18  19
ENDBRANCH  17  18
ENDBRANCH  16  17
ENDBRANCH   4  16
TORSDOF 7
ENDMDL
