MODEL 1
REMARK VINA RESULT:      -8.5      0.000      0.000
REMARK  Name = 
REMARK                            x       y       z     vdW  Elec       q    Type
REMARK                         _______ _______ _______ _____ _____    ______ ____
ROOT
ATOM      1  C   LIG    1       23.247 -26.044 -11.770  0.00  0.00    -0.046 A 
ATOM      2  C   LIG    1       22.894 -27.112 -12.597  0.00  0.00    +0.007 A 
ATOM      3  C   LIG    1       22.540 -28.346 -12.055  0.00  0.00    +0.046 A 
ATOM      4  C   LIG    1       22.559 -28.558 -10.673  0.00  0.00    +0.121 A 
ATOM      5  C   LIG    1       22.927 -27.500  -9.841  0.00  0.00    +0.046 A 
ATOM      6  C   LIG    1       23.260 -26.250 -10.384  0.00  0.00    +0.007 A 
ENDROOT
BRANCH   1   7
ATOM      7  C   LIG    1       23.626 -24.715 -12.382  0.00  0.00    +0.059 C 
BRANCH   7  10
ATOM      8  O   LIG    1       25.179 -21.895 -12.830  0.00  0.00    -0.274 OA
ATOM      9  C   LIG    1       25.537 -23.060 -12.715  0.00  0.00    +0.234 C 
ATOM     10  C   LIG    1       24.903 -24.095 -11.800  0.00  0.00    +0.146 C 
ATOM     11  S   LIG    1       26.188 -25.406 -11.693  0.00  0.00    -0.054 S 
ATOM     12  C   LIG    1       27.142 -24.719 -12.984  0.00  0.00    +0.279 C 
ATOM     13  O   LIG    1       28.186 -25.197 -13.389  0.00  0.00    -0.263 OA
ATOM     14  N   LIG    1       26.585 -23.567 -13.420  0.00  0.00    -0.246 N 
ATOM     15  H   LIG    1       27.107 -22.977 -14.049  0.00  0.00    +0.158 HD
ENDBRANCH   7  10
ENDBRANCH   1   7
BRANCH   4  16
ATOM     16  O   LIG    1       22.249 -29.749 -10.050  0.00  0.00    -0.492 OA
BRANCH  16  17
ATOM     17  C   LIG    1       22.497 -30.896 -10.864  0.00  0.00    +0.235 C 
BRANCH  17  18
ATOM     18  C   LIG    1       23.650 -31.767 -10.373  0.00  0.00    +0.096 C 
BRANCH  18  19
ATOM     19  C   LIG    1       24.974 -31.024 -10.327  0.00  0.00    +0.045 A 
ATOM     20  C   LIG    1       25.835 -30.946 -11.422  0.00  0.00    +0.024 A 
ATOM     21  C   LIG    1       27.016 -30.218 -11.323  0.00  0.00    +0.007 A 
ATOM     22  C   LIG    1       27.348 -29.581 -10.130  0.00  0.00    -0.030 A 
ATOM     23  C   LIG    1       26.449 -29.727  -9.080  0.00  0.00    +0.114 A 
ATOM     24  N   LIG    1       25.285 -30.425  -9.153  0.00  0.00    -0.260 NA
BRANCH  22  25
ATOM     25  C   LIG    1       28.626 -28.787 -10.076  0.00  0.00    +0.033 C 
ATOM     26  C   LIG    1       28.954 -28.099  -8.760  0.00  0.00    +0.009 C 
ENDBRANCH  22  25
ENDBRANCH  18  19
ENDBRANCH  17  18
ENDBRANCH  16  17
ENDBRANCH   4  16
TORSDOF 7
ENDMDL
MODEL 2
REMARK VINA RESULT:      -7.9      1.500      1.847
REMARK  Name = 
REMARK                            x       y       z     vdW  Elec       q    Type
REMARK                         _______ _______ _______ _____ _____    ______ ____
ROOT
ATOM      1  C   LIG    1       24.669 -27.348 -12.140  0.00  0.00    -0.046 A 
ATOM      2  C   LIG    1       24.360 -28.272 -13.140  0.00  0.00    +0.007 A 
ATOM      3  C   LIG    1       23.539 -29.365 -12.871  0.00  0.00    +0.046 A 
ATOM      4  C   LIG    1       23.028 -29.583 -11.588  0.00  0.00    +0.121 A 
ATOM      5  C   LIG    1       23.345 -28.673 -10.580  0.00  0.00    +0.046 A 
ATOM      6  C   LIG    1       24.153 -27.558 -10.855  0.00  0.00    +0.007 A 
ENDROOT
BRANCH   1   7
ATOM      7  C   LIG    1       25.561 -26.169 -12.457  0.00  0.00    +0.059 C 
BRANCH   7  10
ATOM      8  O   LIG    1       22.971 -24.603 -11.271  0.00  0.00    -0.274 OA
ATOM      9  C   LIG    1       24.053 -24.249 -11.722  0.00  0.00    +0.234 C 
ATOM     10  C   LIG    1       25.376 -24.969 -11.518  0.00  0.00    +0.146 C 
ATOM     11  S   LIG    1       26.623 -23.692 -11.958  0.00  0.00    -0.054 S 
ATOM     12  C   LIG    1       25.428 -22.608 -12.626  0.00  0.00    +0.279 C 
ATOM     13  O   LIG    1       25.688 -21.522 -13.110  0.00  0.00    -0.263 OA
ATOM     14  N   LIG    1       24.188 -23.125 -12.477  0.00  0.00    -0.246 N 
ATOM     15  H   LIG    1       23.388 -22.543 -12.670  0.00  0.00    +0.158 HD
ENDBRANCH   7  10
ENDBRANCH   1   7
BRANCH   4  16
ATOM     16  O   LIG    1       22.229 -30.647 -11.225  0.00  0.00    -0.492 OA
BRANCH  16  17
ATOM     17  C   LIG    1       22.801 -31.462 -10.199  0.00  0.00    +0.235 C 
BRANCH  17  18
ATOM     18  C   LIG    1       24.101 -32.149 -10.606  0.00  0.00    +0.096 C 
BRANCH  18  19
ATOM     19  C   LIG    1       25.321 -31.263 -10.420  0.00  0.00    +0.045 A 
ATOM     20  C   LIG    1       26.260 -31.049 -11.430  0.00  0.00    +0.024 A 
ATOM     21  C   LIG    1       27.336 -30.196 -11.204  0.00  0.00    +0.007 A 
ATOM     22  C   LIG    1       27.486 -29.570  -9.970  0.00  0.00    -0.030 A 
ATOM     23  C   LIG    1       26.521 -29.855  -9.011  0.00  0.00    +0.114 A 
ATOM     24  N   LIG    1       25.456 -30.676  -9.208  0.00  0.00    -0.260 NA
BRANCH  22  25
ATOM     25  C   LIG    1       28.653 -28.639  -9.779  0.00  0.00    +0.033 C 
ATOM     26  C   LIG    1       28.626 -27.743  -8.550  0.00  0.00    +0.009 C 
ENDBRANCH  22  25
ENDBRANCH  18  19
ENDBRANCH  17  18
ENDBRANCH  16  17
ENDBRANCH   4  16
TORSDOF 7
ENDMDL
MODEL 3
REMARK VINA RESULT:      -7.8      1.201      2.014
REMARK  Name = 
REMARK                            x       y       z     vdW  Elec       q    Type
REMARK                         _______ _______ _______ _____ _____    ______ ____
ROOT
ATOM      1  C   LIG    1       23.838 -26.796 -11.123  0.00  0.00    -0.046 A 
ATOM      2  C   LIG    1       24.073 -27.601 -12.238  0.00  0.00    +0.007 A 
ATOM      3  C   LIG    1       23.512 -28.873 -12.331  0.00  0.00    +0.046 A 
ATOM      4  C   LIG    1       22.724 -29.389 -11.297  0.00  0.00    +0.121 A 
ATOM      5  C   LIG    1       22.497 -28.597 -10.172  0.00  0.00    +0.046 A 
ATOM      6  C   LIG    1       23.042 -27.306 -10.088  0.00  0.00    +0.007 A 
ENDROOT
BRANCH   1   7
ATOM      7  C   LIG    1       24.457 -25.419 -11.046  0.00  0.00    +0.059 C 
BRANCH   7  10
ATOM      8  O   LIG    1       27.500 -25.225 -12.171  0.00  0.00    -0.274 OA
ATOM      9  C   LIG    1       26.524 -24.486 -12.211  0.00  0.00    +0.234 C 
ATOM     10  C   LIG    1       25.080 -24.935 -12.362  0.00  0.00    +0.146 C 
ATOM     11  S   LIG    1       24.215 -23.399 -12.884  0.00  0.00    -0.054 S 
ATOM     12  C   LIG    1       25.591 -22.383 -12.537  0.00  0.00    +0.279 C 
ATOM     13  O   LIG    1       25.606 -21.177 -12.696  0.00  0.00    -0.263 OA
ATOM     14  N   LIG    1       26.639 -23.133 -12.126  0.00  0.00    -0.246 N 
ATOM     15  H   LIG    1       27.547 -22.704 -12.044  0.00  0.00    +0.158 HD
ENDBRANCH   7  10
ENDBRANCH   1   7
BRANCH   4  16
ATOM     16  O   LIG    1       22.149 -30.643 -11.291  0.00  0.00    -0.492 OA
BRANCH  16  17
ATOM     17  C   LIG    1       22.646 -31.490 -10.254  0.00  0.00    +0.235 C 
BRANCH  17  18
ATOM     18  C   LIG    1       23.995 -32.132 -10.569  0.00  0.00    +0.096 C 
BRANCH  18  19
ATOM     19  C   LIG    1       25.163 -31.186 -10.353  0.00  0.00    +0.045 A 
ATOM     20  C   LIG    1       25.328 -30.445  -9.181  0.00  0.00    +0.024 A 
ATOM     21  C   LIG    1       26.441 -29.624  -9.033  0.00  0.00    +0.007 A 
ATOM     22  C   LIG    1       27.381 -29.527 -10.056  0.00  0.00    -0.030 A 
ATOM     23  C   LIG    1       27.130 -30.278 -11.198  0.00  0.00    +0.114 A 
ATOM     24  N   LIG    1       26.057 -31.094 -11.365  0.00  0.00    -0.260 NA
BRANCH  22  25
ATOM     25  C   LIG    1       28.580 -28.643  -9.842  0.00  0.00    +0.033 C 
ATOM     26  C   LIG    1       28.616 -27.829  -8.557  0.00  0.00    +0.009 C 
ENDBRANCH  22  25
ENDBRANCH  18  19
ENDBRANCH  17  18
ENDBRANCH  16  17
ENDBRANCH   4  16
TORSDOF 7
ENDMDL
MODEL 4
REMARK VINA RESULT:      -7.7      1.750      3.985
REMARK  Name = 
REMARK                            x       y       z     vdW  Elec       q    Type
REMARK                         _______ _______ _______ _____ _____    ______ ____
ROOT
ATOM      1  C   LIG    1       26.589 -27.038 -10.686  0.00  0.00    -0.046 A 
ATOM      2  C   LIG    1       26.435 -27.947 -11.734  0.00  0.00    +0.007 A 
ATOM      3  C   LIG    1       26.646 -29.310 -11.532  0.00  0.00    +0.046 A 
ATOM      4  C   LIG    1       27.046 -29.799 -10.285  0.00  0.00    +0.121 A 
ATOM      5  C   LIG    1       27.217 -28.895  -9.237  0.00  0.00    +0.046 A 
ATOM      6  C   LIG    1       26.982 -27.525  -9.432  0.00  0.00    +0.007 A 
ENDROOT
BRANCH   1   7
ATOM      7  C   LIG    1       26.353 -25.565 -10.930  0.00  0.00    +0.059 C 
BRANCH   7  10
ATOM      8  O   LIG    1       27.506 -25.325 -13.960  0.00  0.00    -0.274 OA
ATOM      9  C   LIG    1       26.712 -24.675 -13.293  0.00  0.00    +0.234 C 
ATOM     10  C   LIG    1       25.721 -25.246 -12.292  0.00  0.00    +0.146 C 
ATOM     11  S   LIG    1       24.516 -23.876 -12.064  0.00  0.00    -0.054 S 
ATOM     12  C   LIG    1       25.512 -22.720 -12.913  0.00  0.00    +0.279 C 
ATOM     13  O   LIG    1       25.208 -21.555 -13.087  0.00  0.00    -0.263 OA
ATOM     14  N   LIG    1       26.628 -23.320 -13.387  0.00  0.00    -0.246 N 
ATOM     15  H   LIG    1       27.217 -22.818 -14.033  0.00  0.00    +0.158 HD
ENDBRANCH   7  10
ENDBRANCH   1   7
BRANCH   4  16
ATOM     16  O   LIG    1       27.299 -31.125  -9.999  0.00  0.00    -0.492 OA
BRANCH  16  17
ATOM     17  C   LIG    1       26.225 -31.997 -10.354  0.00  0.00    +0.235 C 
BRANCH  17  18
ATOM     18  C   LIG    1       24.983 -31.839  -9.480  0.00  0.00    +0.096 C 
BRANCH  18  19
ATOM     19  C   LIG    1       24.107 -30.675  -9.906  0.00  0.00    +0.045 A 
ATOM     20  C   LIG    1       23.423 -30.649 -11.122  0.00  0.00    +0.024 A 
ATOM     21  C   LIG    1       22.607 -29.566 -11.434  0.00  0.00    +0.007 A 
ATOM     22  C   LIG    1       22.485 -28.503 -10.545  0.00  0.00    -0.030 A 
ATOM     23  C   LIG    1       23.217 -28.595  -9.367  0.00  0.00    +0.114 A 
ATOM     24  N   LIG    1       24.013 -29.644  -9.033  0.00  0.00    -0.260 NA
BRANCH  22  25
ATOM     25  C   LIG    1       21.574 -27.363 -10.916  0.00  0.00    +0.033 C 
ATOM     26  C   LIG    1       22.133 -26.317 -11.869  0.00  0.00    +0.009 C 
ENDBRANCH  22  25
ENDBRANCH  18  19
ENDBRANCH  17  18
ENDBRANCH  16  17
ENDBRANCH   4  16
TORSDOF 7
ENDMDL
MODEL 5
REMARK VINA RESULT:      -7.6      1.471      2.008
REMARK  Name = 
REMARK                            x       y       z     vdW  Elec       q    Type
REMARK                         _______ _______ _______ _____ _____    ______ ____
ROOT
ATOM      1  C   LIG    1       23.072 -26.988 -11.449  0.00  0.00    -0.046 A 
ATOM      2  C   LIG    1       22.789 -27.824 -12.530  0.00  0.00    +0.007 A 
ATOM      3  C   LIG    1       22.459 -29.163 -12.328  0.00  0.00    +0.046 A 
ATOM      4  C   LIG    1       22.431 -29.711 -11.042  0.00  0.00    +0.121 A 
ATOM      5  C   LIG    1       22.728 -28.886  -9.958  0.00  0.00    +0.046 A 
ATOM      6  C   LIG    1       23.038 -27.532 -10.158  0.00  0.00    +0.007 A 
ENDROOT
BRANCH   1   7
ATOM      7  C   LIG    1       23.427 -25.539 -11.693  0.00  0.00    +0.059 C 
BRANCH   7  10
ATOM      8  O   LIG    1       25.924 -27.334 -12.747  0.00  0.00    -0.274 OA
ATOM      9  C   LIG    1       25.776 -26.150 -12.475  0.00  0.00    +0.234 C 
ATOM     10  C   LIG    1       24.525 -25.329 -12.744  0.00  0.00    +0.146 C 
ATOM     11  S   LIG    1       25.125 -23.595 -12.617  0.00  0.00    -0.054 S 
ATOM     12  C   LIG    1       26.668 -24.068 -11.950  0.00  0.00    +0.279 C 
ATOM     13  O   LIG    1       27.545 -23.285 -11.638  0.00  0.00    -0.263 OA
ATOM     14  N   LIG    1       26.759 -25.416 -11.885  0.00  0.00    -0.246 N 
ATOM     15  H   LIG    1       27.649 -25.837 -11.672  0.00  0.00    +0.158 HD
ENDBRANCH   7  10
ENDBRANCH   1   7
BRANCH   4  16
ATOM     16  O   LIG    1       22.139 -31.027 -10.750  0.00  0.00    -0.492 OA
BRANCH  16  17
ATOM     17  C   LIG    1       23.207 -31.714 -10.095  0.00  0.00    +0.235 C 
BRANCH  17  18
ATOM     18  C   LIG    1       24.433 -31.938 -10.976  0.00  0.00    +0.096 C 
BRANCH  18  19
ATOM     19  C   LIG    1       25.585 -31.012 -10.631  0.00  0.00    +0.045 A 
ATOM     20  C   LIG    1       25.707 -30.388  -9.389  0.00  0.00    +0.024 A 
ATOM     21  C   LIG    1       26.808 -29.579  -9.126  0.00  0.00    +0.007 A 
ATOM     22  C   LIG    1       27.779 -29.378 -10.103  0.00  0.00    -0.030 A 
ATOM     23  C   LIG    1       27.571 -30.016 -11.321  0.00  0.00    +0.114 A 
ATOM     24  N   LIG    1       26.510 -30.818 -11.601  0.00  0.00    -0.260 NA
BRANCH  22  25
ATOM     25  C   LIG    1       28.963 -28.512  -9.766  0.00  0.00    +0.033 C 
ATOM     26  C   LIG    1       28.928 -27.787  -8.429  0.00  0.00    +0.009 C 
ENDBRANCH  22  25
ENDBRANCH  18  19
ENDBRANCH  17  18
ENDBRANCH  16  17
ENDBRANCH   4  16
TORSDOF 7
ENDMDL
MODEL 6
REMARK VINA RESULT:      -7.2      1.903      3.997
REMARK  Name = 
REMARK                            x       y       z     vdW  Elec       q    Type
REMARK                         _______ _______ _______ _____ _____    ______ ____
ROOT
ATOM      1  C   LIG    1       26.610 -27.670 -11.845  0.00  0.00    -0.046 A 
ATOM      2  C   LIG    1       26.254 -28.852 -12.496  0.00  0.00    +0.007 A 
ATOM      3  C   LIG    1       26.302 -30.075 -11.828  0.00  0.00    +0.046 A 
ATOM      4  C   LIG    1       26.735 -30.154 -10.502  0.00  0.00    +0.121 A 
ATOM      5  C   LIG    1       27.108 -28.979  -9.850  0.00  0.00    +0.046 A 
ATOM      6  C   LIG    1       27.037 -27.744 -10.513  0.00  0.00    +0.007 A 
ENDROOT
BRANCH   1   7
ATOM      7  C   LIG    1       26.548 -26.356 -12.590  0.00  0.00    +0.059 C 
BRANCH   7  10
ATOM      8  O   LIG    1       24.536 -25.262 -10.283  0.00  0.00    -0.274 OA
ATOM      9  C   LIG    1       25.142 -24.738 -11.209  0.00  0.00    +0.234 C 
ATOM     10  C   LIG    1       26.535 -25.118 -11.683  0.00  0.00    +0.146 C 
ATOM     11  S   LIG    1       27.051 -23.662 -12.681  0.00  0.00    -0.054 S 
ATOM     12  C   LIG    1       25.452 -22.961 -12.675  0.00  0.00    +0.279 C 
ATOM     13  O   LIG    1       25.164 -21.915 -13.225  0.00  0.00    -0.263 OA
ATOM     14  N   LIG    1       24.610 -23.717 -11.934  0.00  0.00    -0.246 N 
ATOM     15  H   LIG    1       23.697 -23.354 -11.707  0.00  0.00    +0.158 HD
ENDBRANCH   7  10
ENDBRANCH   1   7
BRANCH   4  16
ATOM     16  O   LIG    1       26.837 -31.320  -9.771  0.00  0.00    -0.492 OA
BRANCH  16  17
ATOM     17  C   LIG    1       25.746 -32.218  -9.981  0.00  0.00    +0.235 C 
BRANCH  17  18
ATOM     18  C   LIG    1       24.471 -31.831  -9.235  0.00  0.00    +0.096 C 
BRANCH  18  19
ATOM     19  C   LIG    1       23.784 -30.615  -9.833  0.00  0.00    +0.045 A 
ATOM     20  C   LIG    1       23.100 -30.656 -11.048  0.00  0.00    +0.024 A 
ATOM     21  C   LIG    1       22.462 -29.514 -11.521  0.00  0.00    +0.007 A 
ATOM     22  C   LIG    1       22.518 -28.328 -10.794  0.00  0.00    -0.030 A 
ATOM     23  C   LIG    1       23.239 -28.366  -9.606  0.00  0.00    +0.114 A 
ATOM     24  N   LIG    1       23.864 -29.469  -9.117  0.00  0.00    -0.260 NA
BRANCH  22  25
ATOM     25  C   LIG    1       21.794 -27.125 -11.335  0.00  0.00    +0.033 C 
ATOM     26  C   LIG    1       22.335 -26.515 -12.619  0.00  0.00    +0.009 C 
ENDBRANCH  22  25
ENDBRANCH  18  19
ENDBRANCH  17  18
ENDBRANCH  16  17
ENDBRANCH   4  16
TORSDOF 7
ENDMDL
MODEL 7
REMARK VINA RESULT:      -6.7      2.537      5.249
REMARK  Name = 
REMARK                            x       y       z     vdW  Elec       q    Type
REMARK                         _______ _______ _______ _____ _____    ______ ____
ROOT
ATOM      1  C   LIG    1       22.649 -29.628 -10.636  0.00  0.00    -0.046 A 
ATOM      2  C   LIG    1       22.659 -29.511 -12.027  0.00  0.00    +0.007 A 
ATOM      3  C   LIG    1       22.643 -28.259 -12.637  0.00  0.00    +0.046 A 
ATOM      4  C   LIG    1       22.586 -27.088 -11.875  0.00  0.00    +0.121 A 
ATOM      5  C   LIG    1       22.559 -27.197 -10.485  0.00  0.00    +0.046 A 
ATOM      6  C   LIG    1       22.599 -28.457  -9.868  0.00  0.00    +0.007 A 
ENDROOT
BRANCH   1   7
ATOM      7  C   LIG    1       22.667 -30.999  -9.998  0.00  0.00    +0.059 C 
BRANCH   7  10
ATOM      8  O   LIG    1       25.229 -29.935  -8.304  0.00  0.00    -0.274 OA
ATOM      9  C   LIG    1       25.088 -30.467  -9.398  0.00  0.00    +0.234 C 
ATOM     10  C   LIG    1       24.074 -31.550  -9.731  0.00  0.00    +0.146 C 
ATOM     11  S   LIG    1       24.723 -32.267 -11.294  0.00  0.00    -0.054 S 
ATOM     12  C   LIG    1       25.899 -30.994 -11.511  0.00  0.00    +0.279 C 
ATOM     13  O   LIG    1       26.671 -30.931 -12.450  0.00  0.00    -0.263 OA
ATOM     14  N   LIG    1       25.858 -30.133 -10.469  0.00  0.00    -0.246 N 
ATOM     15  H   LIG    1       26.585 -29.441 -10.376  0.00  0.00    +0.158 HD
ENDBRANCH   7  10
ENDBRANCH   1   7
BRANCH   4  16
ATOM     16  O   LIG    1       22.543 -25.809 -12.391  0.00  0.00    -0.492 OA
BRANCH  16  17
ATOM     17  C   LIG    1       23.115 -24.828 -11.524  0.00  0.00    +0.235 C 
BRANCH  17  18
ATOM     18  C   LIG    1       24.547 -24.440 -11.886  0.00  0.00    +0.096 C 
BRANCH  18  19
ATOM     19  C   LIG    1       25.548 -25.544 -11.598  0.00  0.00    +0.045 A 
ATOM     20  C   LIG    1       26.147 -26.303 -12.605  0.00  0.00    +0.024 A 
ATOM     21  C   LIG    1       27.084 -27.276 -12.273  0.00  0.00    +0.007 A 
ATOM     22  C   LIG    1       27.414 -27.505 -10.940  0.00  0.00    -0.030 A 
ATOM     23  C   LIG    1       26.756 -26.724  -9.998  0.00  0.00    +0.114 A 
ATOM     24  N   LIG    1       25.844 -25.762 -10.294  0.00  0.00    -0.260 NA
BRANCH  22  25
ATOM     25  C   LIG    1       28.449 -28.554 -10.631  0.00  0.00    +0.033 C 
ATOM     26  C   LIG    1       28.913 -28.659  -9.186  0.00  0.00    +0.009 C 
ENDBRANCH  22  25
ENDBRANCH  18  19
ENDBRANCH  17  18
ENDBRANCH  16  17
ENDBRANCH   4  16
TORSDOF 7
ENDMDL
MODEL 8
REMARK VINA RESULT:      -6.3      2.631      5.484
REMARK  Name = 
REMARK                            x       y       z     vdW  Elec       q    Type
REMARK                         _______ _______ _______ _____ _____    ______ ____
ROOT
ATOM      1  C   LIG    1       23.863 -30.534 -10.906  0.00  0.00    -0.046 A 
ATOM      2  C   LIG    1       24.290 -30.425  -9.582  0.00  0.00    +0.007 A 
ATOM      3  C   LIG    1       25.648 -30.359  -9.275  0.00  0.00    +0.046 A 
ATOM      4  C   LIG    1       26.617 -30.431 -10.280  0.00  0.00    +0.121 A 
ATOM      5  C   LIG    1       26.198 -30.556 -11.604  0.00  0.00    +0.046 A 
ATOM      6  C   LIG    1       24.831 -30.598 -11.917  0.00  0.00    +0.007 A 
ENDROOT
BRANCH   1   7
ATOM      7  C   LIG    1       22.384 -30.603 -11.214  0.00  0.00    +0.059 C 
BRANCH   7  10
ATOM      8  O   LIG    1       22.661 -28.631 -13.783  0.00  0.00    -0.274 OA
ATOM      9  C   LIG    1       22.608 -28.456 -12.572  0.00  0.00    +0.234 C 
ATOM     10  C   LIG    1       21.758 -29.256 -11.599  0.00  0.00    +0.146 C 
ATOM     11  S   LIG    1       21.714 -28.188 -10.103  0.00  0.00    -0.054 S 
ATOM     12  C   LIG    1       22.956 -27.118 -10.704  0.00  0.00    +0.279 C 
ATOM     13  O   LIG    1       23.379 -26.153 -10.095  0.00  0.00    -0.263 OA
ATOM     14  N   LIG    1       23.332 -27.486 -11.950  0.00  0.00    -0.246 N 
ATOM     15  H   LIG    1       23.923 -26.870 -12.486  0.00  0.00    +0.158 HD
ENDBRANCH   7  10
ENDBRANCH   1   7
BRANCH   4  16
ATOM     16  O   LIG    1       27.980 -30.397 -10.068  0.00  0.00    -0.492 OA
BRANCH  16  17
ATOM     17  C   LIG    1       28.520 -29.074 -10.055  0.00  0.00    +0.235 C 
BRANCH  17  18
ATOM     18  C   LIG    1       27.573 -28.024  -9.480  0.00  0.00    +0.096 C 
BRANCH  18  19
ATOM     19  C   LIG    1       27.116 -27.011 -10.515  0.00  0.00    +0.045 A 
ATOM     20  C   LIG    1       27.178 -27.255 -11.888  0.00  0.00    +0.024 A 
ATOM     21  C   LIG    1       26.709 -26.297 -12.782  0.00  0.00    +0.007 A 
ATOM     22  C   LIG    1       26.194 -25.093 -12.312  0.00  0.00    -0.030 A 
ATOM     23  C   LIG    1       26.189 -24.919 -10.933  0.00  0.00    +0.114 A 
ATOM     24  N   LIG    1       26.633 -25.840 -10.037  0.00  0.00    -0.260 NA
BRANCH  22  25
ATOM     25  C   LIG    1       25.678 -24.096 -13.315  0.00  0.00    +0.033 C 
ATOM     26  C   LIG    1       25.219 -22.750 -12.776  0.00  0.00    +0.009 C 
ENDBRANCH  22  25
ENDBRANCH  18  19
ENDBRANCH  17  18
ENDBRANCH  16  17
ENDBRANCH   4  16
TORSDOF 7
ENDMDL
MODEL 9
REMARK VINA RESULT:      -5.9      2.296      5.212
REMARK  Name = 
REMARK                            x       y       z     vdW  Elec       q    Type
REMARK                         _______ _______ _______ _____ _____    ______ ____
ROOT
ATOM      1  C   LIG    1       27.094 -30.421 -10.469  0.00  0.00    -0.046 A 
ATOM      2  C   LIG    1       26.552 -30.862 -11.677  0.00  0.00    +0.007 A 
ATOM      3  C   LIG    1       25.226 -31.281 -11.753  0.00  0.00    +0.046 A 
ATOM      4  C   LIG    1       24.411 -31.299 -10.617  0.00  0.00    +0.121 A 
ATOM      5  C   LIG    1       24.949 -30.875  -9.403  0.00  0.00    +0.046 A 
ATOM      6  C   LIG    1       26.278 -30.431  -9.329  0.00  0.00    +0.007 A 
ENDROOT
BRANCH   1   7
ATOM      7  C   LIG    1       28.535 -29.971 -10.412  0.00  0.00    +0.059 C 
BRANCH   7  10
ATOM      8  O   LIG    1       29.449 -27.813  -8.159  0.00  0.00    -0.274 OA
ATOM      9  C   LIG    1       28.579 -27.834  -9.021  0.00  0.00    +0.234 C 
ATOM     10  C   LIG    1       28.719 -28.447 -10.405  0.00  0.00    +0.146 C 
ATOM     11  S   LIG    1       27.331 -27.690 -11.343  0.00  0.00    -0.054 S 
ATOM     12  C   LIG    1       26.591 -27.021  -9.910  0.00  0.00    +0.279 C 
ATOM     13  O   LIG    1       25.563 -26.371  -9.913  0.00  0.00    -0.263 OA
ATOM     14  N   LIG    1       27.351 -27.283  -8.822  0.00  0.00    -0.246 N 
ATOM     15  H   LIG    1       27.135 -26.824  -7.951  0.00  0.00    +0.158 HD
ENDBRANCH   7  10
ENDBRANCH   1   7
BRANCH   4  16
ATOM     16  O   LIG    1       23.097 -31.719 -10.593  0.00  0.00    -0.492 OA
BRANCH  16  17
ATOM     17  C   LIG    1       22.157 -30.645 -10.669  0.00  0.00    +0.235 C 
BRANCH  17  18
ATOM     18  C   LIG    1       22.129 -29.941 -12.023  0.00  0.00    +0.096 C 
BRANCH  18  19
ATOM     19  C   LIG    1       22.557 -28.486 -11.941  0.00  0.00    +0.045 A 
ATOM     20  C   LIG    1       23.569 -27.950 -12.738  0.00  0.00    +0.024 A 
ATOM     21  C   LIG    1       23.887 -26.599 -12.638  0.00  0.00    +0.007 A 
ATOM     22  C   LIG    1       23.210 -25.786 -11.733  0.00  0.00    -0.030 A 
ATOM     23  C   LIG    1       22.233 -26.402 -10.959  0.00  0.00    +0.114 A 
ATOM     24  N   LIG    1       21.897 -27.716 -11.044  0.00  0.00    -0.260 NA
BRANCH  22  25
ATOM     25  C   LIG    1       23.574 -24.327 -11.674  0.00  0.00    +0.033 C 
ATOM     26  C   LIG    1       24.737 -23.871 -12.542  0.00  0.00    +0.009 C 
ENDBRANCH  22  25
ENDBRANCH  18  19
ENDBRANCH  17  18
ENDBRANCH  16  17
ENDBRANCH   4  16
TORSDOF 7
ENDMDL
