MODEL 1
REMARK VINA RESULT:      -7.9      0.000      0.000
REMARK  Name = 
REMARK                            x       y       z     vdW  Elec       q    Type
REMARK                         _______ _______ _______ _____ _____    ______ ____
ROOT
ATOM      1  C   LIG    1       20.481  49.046  16.708  0.00  0.00    -0.046 A 
ATOM      2  C   LIG    1       20.443  48.069  17.704  0.00  0.00    +0.007 A 
ATOM      3  C   LIG    1       19.499  48.132  18.728  0.00  0.00    +0.046 A 
ATOM      4  C   LIG    1       18.587  49.189  18.802  0.00  0.00    +0.121 A 
ATOM      5  C   LIG    1       18.630  50.177  17.819  0.00  0.00    +0.046 A 
ATOM      6  C   LIG    1       19.564  50.103  16.774  0.00  0.00    +0.007 A 
ENDROOT
BRANCH   1   7
ATOM      7  C   LIG    1       21.514  48.955  15.608  0.00  0.00    +0.059 C 
BRANCH   7  10
ATOM      8  O   LIG    1       21.688  46.914  13.084  0.00  0.00    -0.274 OA
ATOM      9  C   LIG    1       21.737  48.131  13.205  0.00  0.00    +0.234 C 
ATOM     10  C   LIG    1       20.925  48.956  14.190  0.00  0.00    +0.146 C 
ATOM     11  S   LIG    1       21.047  50.661  13.513  0.00  0.00    -0.054 S 
ATOM     12  C   LIG    1       22.290  50.227  12.366  0.00  0.00    +0.279 C 
ATOM     13  O   LIG    1       22.804  51.009  11.588  0.00  0.00    -0.263 OA
ATOM     14  N   LIG    1       22.551  48.902  12.434  0.00  0.00    -0.246 N 
ATOM     15  H   LIG    1       23.128  48.479  11.724  0.00  0.00    +0.158 HD
ENDBRANCH   7  10
ENDBRANCH   1   7
BRANCH   4  16
ATOM     16  O   LIG    1       17.636  49.346  19.788  0.00  0.00    -0.492 OA
BRANCH  16  17
ATOM     17  C   LIG    1       16.319  48.983  19.370  0.00  0.00    +0.235 C 
BRANCH  17  18
ATOM     18  C   LIG    1       16.145  47.491  19.094  0.00  0.00    +0.096 C 
BRANCH  18  19
ATOM     19  C   LIG    1       16.194  47.156  17.614  0.00  0.00    +0.045 A 
ATOM     20  C   LIG    1       16.349  48.128  16.624  0.00  0.00    +0.024 A 
ATOM     21  C   LIG    1       16.421  47.748  15.287  0.00  0.00    +0.007 A 
ATOM     22  C   LIG    1       16.324  46.405  14.934  0.00  0.00    -0.030 A 
ATOM     23  C   LIG    1       16.147  45.503  15.978  0.00  0.00    +0.114 A 
ATOM     24  N   LIG    1       16.081  45.846  17.291  0.00  0.00    -0.260 NA
BRANCH  22  25
ATOM     25  C   LIG    1       16.429  46.040  13.478  0.00  0.00    +0.033 C 
ATOM     26  C   LIG    1       15.125  45.881  12.711  0.00  0.00    +0.009 C 
ENDBRANCH  22  25
ENDBRANCH  18  19
ENDBRANCH  17  18
ENDBRANCH  16  17
ENDBRANCH   4  16
TORSDOF 7
ENDMDL
MODEL 2
REMARK VINA RESULT:      -6.1      1.138      2.131
REMARK  Name = 
REMARK                            x       y       z     vdW  Elec       q    Type
REMARK                         _______ _______ _______ _____ _____    ______ ____
ROOT
ATOM      1  C   LIG    1       20.074  49.852  16.324  0.00  0.00    -0.046 A 
ATOM      2  C   LIG    1       18.851  50.488  16.541  0.00  0.00    +0.007 A 
ATOM      3  C   LIG    1       18.084  50.193  17.667  0.00  0.00    +0.046 A 
ATOM      4  C   LIG    1       18.504  49.233  18.593  0.00  0.00    +0.121 A 
ATOM      5  C   LIG    1       19.718  48.582  18.374  0.00  0.00    +0.046 A 
ATOM      6  C   LIG    1       20.503  48.894  17.253  0.00  0.00    +0.007 A 
ENDROOT
BRANCH   1   7
ATOM      7  C   LIG    1       20.888  50.190  15.096  0.00  0.00    +0.059 C 
BRANCH   7  10
ATOM      8  O   LIG    1       23.561  50.340  13.252  0.00  0.00    -0.274 OA
ATOM      9  C   LIG    1       22.736  49.468  13.494  0.00  0.00    +0.234 C 
ATOM     10  C   LIG    1       22.061  49.235  14.836  0.00  0.00    +0.146 C 
ATOM     11  S   LIG    1       21.397  47.528  14.682  0.00  0.00    -0.054 S 
ATOM     12  C   LIG    1       21.714  47.448  12.966  0.00  0.00    +0.279 C 
ATOM     13  O   LIG    1       21.458  46.484  12.270  0.00  0.00    -0.263 OA
ATOM     14  N   LIG    1       22.327  48.579  12.548  0.00  0.00    -0.246 N 
ATOM     15  H   LIG    1       22.714  48.611  11.619  0.00  0.00    +0.158 HD
ENDBRANCH   7  10
ENDBRANCH   1   7
BRANCH   4  16
ATOM     16  O   LIG    1       17.802  48.861  19.720  0.00  0.00    -0.492 OA
BRANCH  16  17
ATOM     17  C   LIG    1       16.467  48.436  19.443  0.00  0.00    +0.235 C 
BRANCH  17  18
ATOM     18  C   LIG    1       16.359  46.980  18.997  0.00  0.00    +0.096 C 
BRANCH  18  19
ATOM     19  C   LIG    1       16.332  46.825  17.487  0.00  0.00    +0.045 A 
ATOM     20  C   LIG    1       16.362  45.581  16.855  0.00  0.00    +0.024 A 
ATOM     21  C   LIG    1       16.298  45.510  15.466  0.00  0.00    +0.007 A 
ATOM     22  C   LIG    1       16.222  46.674  14.708  0.00  0.00    -0.030 A 
ATOM     23  C   LIG    1       16.221  47.872  15.413  0.00  0.00    +0.114 A 
ATOM     24  N   LIG    1       16.273  47.970  16.767  0.00  0.00    -0.260 NA
BRANCH  22  25
ATOM     25  C   LIG    1       16.133  46.546  13.211  0.00  0.00    +0.033 C 
ATOM     26  C   LIG    1       15.088  45.587  12.662  0.00  0.00    +0.009 C 
ENDBRANCH  22  25
ENDBRANCH  18  19
ENDBRANCH  17  18
ENDBRANCH  16  17
ENDBRANCH   4  16
TORSDOF 7
ENDMDL
MODEL 3
REMARK VINA RESULT:      -5.9      1.437      1.966
REMARK  Name = 
REMARK                            x       y       z     vdW  Elec       q    Type
REMARK                         _______ _______ _______ _____ _____    ______ ____
ROOT
ATOM      1  C   LIG    1       20.337  48.811  14.774  0.00  0.00    -0.046 A 
ATOM      2  C   LIG    1       19.748  50.040  15.075  0.00  0.00    +0.007 A 
ATOM      3  C   LIG    1       19.289  50.314  16.361  0.00  0.00    +0.046 A 
ATOM      4  C   LIG    1       19.379  49.357  17.377  0.00  0.00    +0.121 A 
ATOM      5  C   LIG    1       19.952  48.120  17.080  0.00  0.00    +0.046 A 
ATOM      6  C   LIG    1       20.436  47.851  15.790  0.00  0.00    +0.007 A 
ENDROOT
BRANCH   1   7
ATOM      7  C   LIG    1       20.828  48.537  13.370  0.00  0.00    +0.059 C 
BRANCH   7  10
ATOM      8  O   LIG    1       23.277  49.377  15.336  0.00  0.00    -0.274 OA
ATOM      9  C   LIG    1       22.905  49.743  14.229  0.00  0.00    +0.234 C 
ATOM     10  C   LIG    1       22.315  48.846  13.152  0.00  0.00    +0.146 C 
ATOM     11  S   LIG    1       22.480  49.858  11.625  0.00  0.00    -0.054 S 
ATOM     12  C   LIG    1       22.910  51.303  12.506  0.00  0.00    +0.279 C 
ATOM     13  O   LIG    1       23.149  52.375  11.982  0.00  0.00    -0.263 OA
ATOM     14  N   LIG    1       22.989  51.041  13.830  0.00  0.00    -0.246 N 
ATOM     15  H   LIG    1       23.383  51.737  14.444  0.00  0.00    +0.158 HD
ENDBRANCH   7  10
ENDBRANCH   1   7
BRANCH   4  16
ATOM     16  O   LIG    1       18.932  49.531  18.670  0.00  0.00    -0.492 OA
BRANCH  16  17
ATOM     17  C   LIG    1       18.152  48.435  19.153  0.00  0.00    +0.235 C 
BRANCH  17  18
ATOM     18  C   LIG    1       16.693  48.467  18.704  0.00  0.00    +0.096 C 
BRANCH  18  19
ATOM     19  C   LIG    1       16.446  47.655  17.445  0.00  0.00    +0.045 A 
ATOM     20  C   LIG    1       16.383  48.231  16.176  0.00  0.00    +0.024 A 
ATOM     21  C   LIG    1       16.189  47.424  15.059  0.00  0.00    +0.007 A 
ATOM     22  C   LIG    1       16.041  46.048  15.206  0.00  0.00    -0.030 A 
ATOM     23  C   LIG    1       16.092  45.557  16.506  0.00  0.00    +0.114 A 
ATOM     24  N   LIG    1       16.289  46.320  17.612  0.00  0.00    -0.260 NA
BRANCH  22  25
ATOM     25  C   LIG    1       15.854  45.213  13.968  0.00  0.00    +0.033 C 
ATOM     26  C   LIG    1       15.260  45.907  12.752  0.00  0.00    +0.009 C 
ENDBRANCH  22  25
ENDBRANCH  18  19
ENDBRANCH  17  18
ENDBRANCH  16  17
ENDBRANCH   4  16
TORSDOF 7
ENDMDL
MODEL 4
REMARK VINA RESULT:      -5.7      2.475      5.812
REMARK  Name = 
REMARK                            x       y       z     vdW  Elec       q    Type
REMARK                         _______ _______ _______ _____ _____    ______ ____
ROOT
ATOM      1  C   LIG    1       18.665  49.490  18.810  0.00  0.00    -0.046 A 
ATOM      2  C   LIG    1       19.013  50.493  17.904  0.00  0.00    +0.007 A 
ATOM      3  C   LIG    1       20.114  50.343  17.064  0.00  0.00    +0.046 A 
ATOM      4  C   LIG    1       20.916  49.200  17.125  0.00  0.00    +0.121 A 
ATOM      5  C   LIG    1       20.584  48.200  18.039  0.00  0.00    +0.046 A 
ATOM      6  C   LIG    1       19.462  48.339  18.870  0.00  0.00    +0.007 A 
ENDROOT
BRANCH   1   7
ATOM      7  C   LIG    1       17.465  49.676  19.711  0.00  0.00    +0.059 C 
BRANCH   7  10
ATOM      8  O   LIG    1       14.813  48.235  20.919  0.00  0.00    -0.274 OA
ATOM      9  C   LIG    1       15.484  48.083  19.906  0.00  0.00    +0.234 C 
ATOM     10  C   LIG    1       16.141  49.194  19.103  0.00  0.00    +0.146 C 
ATOM     11  S   LIG    1       16.501  48.390  17.489  0.00  0.00    -0.054 S 
ATOM     12  C   LIG    1       16.135  46.791  18.086  0.00  0.00    +0.279 C 
ATOM     13  O   LIG    1       16.206  45.779  17.415  0.00  0.00    -0.263 OA
ATOM     14  N   LIG    1       15.713  46.853  19.370  0.00  0.00    -0.246 N 
ATOM     15  H   LIG    1       15.315  46.031  19.795  0.00  0.00    +0.158 HD
ENDBRANCH   7  10
ENDBRANCH   1   7
BRANCH   4  16
ATOM     16  O   LIG    1       22.036  48.976  16.351  0.00  0.00    -0.492 OA
BRANCH  16  17
ATOM     17  C   LIG    1       21.765  48.978  14.948  0.00  0.00    +0.235 C 
BRANCH  17  18
ATOM     18  C   LIG    1       21.251  47.644  14.413  0.00  0.00    +0.096 C 
BRANCH  18  19
ATOM     19  C   LIG    1       19.735  47.547  14.427  0.00  0.00    +0.045 A 
ATOM     20  C   LIG    1       18.906  48.662  14.291  0.00  0.00    +0.024 A 
ATOM     21  C   LIG    1       17.525  48.498  14.275  0.00  0.00    +0.007 A 
ATOM     22  C   LIG    1       16.968  47.229  14.412  0.00  0.00    -0.030 A 
ATOM     23  C   LIG    1       17.862  46.176  14.567  0.00  0.00    +0.114 A 
ATOM     24  N   LIG    1       19.214  46.307  14.577  0.00  0.00    -0.260 NA
BRANCH  22  25
ATOM     25  C   LIG    1       15.469  47.099  14.368  0.00  0.00    +0.033 C 
ATOM     26  C   LIG    1       14.881  46.289  13.223  0.00  0.00    +0.009 C 
ENDBRANCH  22  25
ENDBRANCH  18  19
ENDBRANCH  17  18
ENDBRANCH  16  17
ENDBRANCH   4  16
TORSDOF 7
ENDMDL
MODEL 5
REMARK VINA RESULT:      -5.6      2.722      5.062
REMARK  Name = 
REMARK                            x       y       z     vdW  Elec       q    Type
REMARK                         _______ _______ _______ _____ _____    ______ ____
ROOT
ATOM      1  C   LIG    1       16.343  46.213  16.995  0.00  0.00    -0.046 A 
ATOM      2  C   LIG    1       17.524  46.020  17.714  0.00  0.00    +0.007 A 
ATOM      3  C   LIG    1       17.886  46.893  18.738  0.00  0.00    +0.046 A 
ATOM      4  C   LIG    1       17.092  48.000  19.054  0.00  0.00    +0.121 A 
ATOM      5  C   LIG    1       15.918  48.208  18.330  0.00  0.00    +0.046 A 
ATOM      6  C   LIG    1       15.541  47.317  17.314  0.00  0.00    +0.007 A 
ENDROOT
BRANCH   1   7
ATOM      7  C   LIG    1       15.973  45.252  15.889  0.00  0.00    +0.059 C 
BRANCH   7  10
ATOM      8  O   LIG    1       18.766  46.567  14.870  0.00  0.00    -0.274 OA
ATOM      9  C   LIG    1       17.588  46.725  14.576  0.00  0.00    +0.234 C 
ATOM     10  C   LIG    1       16.536  45.630  14.512  0.00  0.00    +0.146 C 
ATOM     11  S   LIG    1       15.188  46.397  13.525  0.00  0.00    -0.054 S 
ATOM     12  C   LIG    1       15.898  47.991  13.603  0.00  0.00    +0.279 C 
ATOM     13  O   LIG    1       15.409  48.981  13.093  0.00  0.00    -0.263 OA
ATOM     14  N   LIG    1       17.081  47.947  14.257  0.00  0.00    -0.246 N 
ATOM     15  H   LIG    1       17.680  48.758  14.241  0.00  0.00    +0.158 HD
ENDBRANCH   7  10
ENDBRANCH   1   7
BRANCH   4  16
ATOM     16  O   LIG    1       17.381  48.927  20.034  0.00  0.00    -0.492 OA
BRANCH  16  17
ATOM     17  C   LIG    1       18.182  50.014  19.567  0.00  0.00    +0.235 C 
BRANCH  17  18
ATOM     18  C   LIG    1       17.927  50.392  18.110  0.00  0.00    +0.096 C 
BRANCH  18  19
ATOM     19  C   LIG    1       19.052  49.965  17.184  0.00  0.00    +0.045 A 
ATOM     20  C   LIG    1       20.226  49.370  17.648  0.00  0.00    +0.024 A 
ATOM     21  C   LIG    1       21.203  48.969  16.741  0.00  0.00    +0.007 A 
ATOM     22  C   LIG    1       21.019  49.176  15.377  0.00  0.00    -0.030 A 
ATOM     23  C   LIG    1       19.834  49.797  15.000  0.00  0.00    +0.114 A 
ATOM     24  N   LIG    1       18.860  50.190  15.863  0.00  0.00    -0.260 NA
BRANCH  22  25
ATOM     25  C   LIG    1       22.093  48.708  14.432  0.00  0.00    +0.033 C 
ATOM     26  C   LIG    1       21.650  47.858  13.251  0.00  0.00    +0.009 C 
ENDBRANCH  22  25
ENDBRANCH  18  19
ENDBRANCH  17  18
ENDBRANCH  16  17
ENDBRANCH   4  16
TORSDOF 7
ENDMDL
MODEL 6
REMARK VINA RESULT:      -5.5      2.220      4.149
REMARK  Name = 
REMARK                            x       y       z     vdW  Elec       q    Type
REMARK                         _______ _______ _______ _____ _____    ______ ____
ROOT
ATOM      1  C   LIG    1       19.475  48.620  14.851  0.00  0.00    -0.046 A 
ATOM      2  C   LIG    1       18.180  49.138  14.808  0.00  0.00    +0.007 A 
ATOM      3  C   LIG    1       17.082  48.297  14.636  0.00  0.00    +0.046 A 
ATOM      4  C   LIG    1       17.250  46.919  14.471  0.00  0.00    +0.121 A 
ATOM      5  C   LIG    1       18.542  46.396  14.497  0.00  0.00    +0.046 A 
ATOM      6  C   LIG    1       19.647  47.238  14.694  0.00  0.00    +0.007 A 
ENDROOT
BRANCH   1   7
ATOM      7  C   LIG    1       20.650  49.553  15.041  0.00  0.00    +0.059 C 
BRANCH   7  10
ATOM      8  O   LIG    1       23.844  49.857  15.564  0.00  0.00    -0.274 OA
ATOM      9  C   LIG    1       23.118  50.004  14.588  0.00  0.00    +0.234 C 
ATOM     10  C   LIG    1       21.904  49.154  14.252  0.00  0.00    +0.146 C 
ATOM     11  S   LIG    1       21.612  49.522  12.474  0.00  0.00    -0.054 S 
ATOM     12  C   LIG    1       22.740  50.855  12.459  0.00  0.00    +0.279 C 
ATOM     13  O   LIG    1       22.978  51.536  11.479  0.00  0.00    -0.263 OA
ATOM     14  N   LIG    1       23.338  50.980  13.665  0.00  0.00    -0.246 N 
ATOM     15  H   LIG    1       24.126  51.601  13.760  0.00  0.00    +0.158 HD
ENDBRANCH   7  10
ENDBRANCH   1   7
BRANCH   4  16
ATOM     16  O   LIG    1       16.226  46.015  14.272  0.00  0.00    -0.492 OA
BRANCH  16  17
ATOM     17  C   LIG    1       15.484  45.728  15.458  0.00  0.00    +0.235 C 
BRANCH  17  18
ATOM     18  C   LIG    1       16.347  45.300  16.642  0.00  0.00    +0.096 C 
BRANCH  18  19
ATOM     19  C   LIG    1       16.655  46.444  17.592  0.00  0.00    +0.045 A 
ATOM     20  C   LIG    1       17.958  46.808  17.937  0.00  0.00    +0.024 A 
ATOM     21  C   LIG    1       18.171  47.891  18.785  0.00  0.00    +0.007 A 
ATOM     22  C   LIG    1       17.090  48.599  19.303  0.00  0.00    -0.030 A 
ATOM     23  C   LIG    1       15.826  48.157  18.929  0.00  0.00    +0.114 A 
ATOM     24  N   LIG    1       15.590  47.110  18.096  0.00  0.00    -0.260 NA
BRANCH  22  25
ATOM     25  C   LIG    1       17.370  49.775  20.199  0.00  0.00    +0.033 C 
ATOM     26  C   LIG    1       16.980  51.149  19.675  0.00  0.00    +0.009 C 
ENDBRANCH  22  25
ENDBRANCH  18  19
ENDBRANCH  17  18
ENDBRANCH  16  17
ENDBRANCH   4  16
TORSDOF 7
ENDMDL
MODEL 7
REMARK VINA RESULT:      -5.5      2.636      6.393
REMARK  Name = 
REMARK                            x       y       z     vdW  Elec       q    Type
REMARK                         _______ _______ _______ _____ _____    ______ ____
ROOT
ATOM      1  C   LIG    1       19.567  48.975  18.034  0.00  0.00    -0.046 A 
ATOM      2  C   LIG    1       19.658  50.203  17.377  0.00  0.00    +0.007 A 
ATOM      3  C   LIG    1       20.667  50.439  16.445  0.00  0.00    +0.046 A 
ATOM      4  C   LIG    1       21.631  49.465  16.166  0.00  0.00    +0.121 A 
ATOM      5  C   LIG    1       21.556  48.241  16.831  0.00  0.00    +0.046 A 
ATOM      6  C   LIG    1       20.526  47.993  17.752  0.00  0.00    +0.007 A 
ENDROOT
BRANCH   1   7
ATOM      7  C   LIG    1       18.462  48.743  19.039  0.00  0.00    +0.059 C 
BRANCH   7  10
ATOM      8  O   LIG    1       16.578  51.384  18.837  0.00  0.00    -0.274 OA
ATOM      9  C   LIG    1       16.381  50.214  19.140  0.00  0.00    +0.234 C 
ATOM     10  C   LIG    1       17.051  49.009  18.498  0.00  0.00    +0.146 C 
ATOM     11  S   LIG    1       15.965  47.611  18.994  0.00  0.00    -0.054 S 
ATOM     12  C   LIG    1       15.073  48.576  20.143  0.00  0.00    +0.279 C 
ATOM     13  O   LIG    1       14.162  48.151  20.828  0.00  0.00    -0.263 OA
ATOM     14  N   LIG    1       15.504  49.857  20.116  0.00  0.00    -0.246 N 
ATOM     15  H   LIG    1       14.976  50.562  20.608  0.00  0.00    +0.158 HD
ENDBRANCH   7  10
ENDBRANCH   1   7
BRANCH   4  16
ATOM     16  O   LIG    1       22.677  49.618  15.280  0.00  0.00    -0.492 OA
BRANCH  16  17
ATOM     17  C   LIG    1       22.257  49.706  13.917  0.00  0.00    +0.235 C 
BRANCH  17  18
ATOM     18  C   LIG    1       21.754  48.387  13.336  0.00  0.00    +0.096 C 
BRANCH  18  19
ATOM     19  C   LIG    1       20.383  47.996  13.859  0.00  0.00    +0.045 A 
ATOM     20  C   LIG    1       20.056  46.688  14.217  0.00  0.00    +0.024 A 
ATOM     21  C   LIG    1       18.792  46.405  14.725  0.00  0.00    +0.007 A 
ATOM     22  C   LIG    1       17.848  47.419  14.859  0.00  0.00    -0.030 A 
ATOM     23  C   LIG    1       18.245  48.690  14.458  0.00  0.00    +0.114 A 
ATOM     24  N   LIG    1       19.476  48.995  13.968  0.00  0.00    -0.260 NA
BRANCH  22  25
ATOM     25  C   LIG    1       16.501  47.070  15.432  0.00  0.00    +0.033 C 
ATOM     26  C   LIG    1       16.188  45.591  15.604  0.00  0.00    +0.009 C 
ENDBRANCH  22  25
ENDBRANCH  18  19
ENDBRANCH  17  18
ENDBRANCH  16  17
ENDBRANCH   4  16
TORSDOF 7
ENDMDL
MODEL 8
REMARK VINA RESULT:      -5.4      2.191      4.116
REMARK  Name = 
REMARK                            x       y       z     vdW  Elec       q    Type
REMARK                         _______ _______ _______ _____ _____    ______ ____
ROOT
ATOM      1  C   LIG    1       19.325  47.776  14.301  0.00  0.00    -0.046 A 
ATOM      2  C   LIG    1       19.241  46.508  14.880  0.00  0.00    +0.007 A 
ATOM      3  C   LIG    1       18.075  46.093  15.520  0.00  0.00    +0.046 A 
ATOM      4  C   LIG    1       16.970  46.943  15.626  0.00  0.00    +0.121 A 
ATOM      5  C   LIG    1       17.052  48.217  15.064  0.00  0.00    +0.046 A 
ATOM      6  C   LIG    1       18.217  48.628  14.398  0.00  0.00    +0.007 A 
ENDROOT
BRANCH   1   7
ATOM      7  C   LIG    1       20.600  48.203  13.611  0.00  0.00    +0.059 C 
BRANCH   7  10
ATOM      8  O   LIG    1       19.780  51.013  15.025  0.00  0.00    -0.274 OA
ATOM      9  C   LIG    1       20.707  50.653  14.310  0.00  0.00    +0.234 C 
ATOM     10  C   LIG    1       21.384  49.293  14.355  0.00  0.00    +0.146 C 
ATOM     11  S   LIG    1       22.966  49.581  13.464  0.00  0.00    -0.054 S 
ATOM     12  C   LIG    1       22.472  51.152  12.883  0.00  0.00    +0.279 C 
ATOM     13  O   LIG    1       23.163  51.868  12.183  0.00  0.00    -0.263 OA
ATOM     14  N   LIG    1       21.250  51.470  13.367  0.00  0.00    -0.246 N 
ATOM     15  H   LIG    1       20.906  52.409  13.248  0.00  0.00    +0.158 HD
ENDBRANCH   7  10
ENDBRANCH   1   7
BRANCH   4  16
ATOM     16  O   LIG    1       15.787  46.627  16.260  0.00  0.00    -0.492 OA
BRANCH  16  17
ATOM     17  C   LIG    1       15.969  46.132  17.588  0.00  0.00    +0.235 C 
BRANCH  17  18
ATOM     18  C   LIG    1       16.154  47.226  18.636  0.00  0.00    +0.096 C 
BRANCH  18  19
ATOM     19  C   LIG    1       17.481  47.952  18.504  0.00  0.00    +0.045 A 
ATOM     20  C   LIG    1       18.709  47.326  18.723  0.00  0.00    +0.024 A 
ATOM     21  C   LIG    1       19.891  48.040  18.549  0.00  0.00    +0.007 A 
ATOM     22  C   LIG    1       19.850  49.380  18.174  0.00  0.00    -0.030 A 
ATOM     23  C   LIG    1       18.588  49.935  17.999  0.00  0.00    +0.114 A 
ATOM     24  N   LIG    1       17.419  49.258  18.154  0.00  0.00    -0.260 NA
BRANCH  22  25
ATOM     25  C   LIG    1       21.154  50.106  17.977  0.00  0.00    +0.033 C 
ATOM     26  C   LIG    1       22.272  49.339  17.288  0.00  0.00    +0.009 C 
ENDBRANCH  22  25
ENDBRANCH  18  19
ENDBRANCH  17  18
ENDBRANCH  16  17
ENDBRANCH   4  16
TORSDOF 7
ENDMDL
MODEL 9
REMARK VINA RESULT:      -5.1      3.077      5.998
REMARK  Name = 
REMARK                            x       y       z     vdW  Elec       q    Type
REMARK                         _______ _______ _______ _____ _____    ______ ____
ROOT
ATOM      1  C   LIG    1       17.278  46.564  15.213  0.00  0.00    -0.046 A 
ATOM      2  C   LIG    1       17.120  47.947  15.113  0.00  0.00    +0.007 A 
ATOM      3  C   LIG    1       18.181  48.759  14.717  0.00  0.00    +0.046 A 
ATOM      4  C   LIG    1       19.438  48.214  14.438  0.00  0.00    +0.121 A 
ATOM      5  C   LIG    1       19.608  46.835  14.551  0.00  0.00    +0.046 A 
ATOM      6  C   LIG    1       18.534  46.013  14.927  0.00  0.00    +0.007 A 
ENDROOT
BRANCH   1   7
ATOM      7  C   LIG    1       16.111  45.705  15.645  0.00  0.00    +0.059 C 
BRANCH   7  10
ATOM      8  O   LIG    1       15.432  43.416  13.438  0.00  0.00    -0.274 OA
ATOM      9  C   LIG    1       15.442  44.641  13.426  0.00  0.00    +0.234 C 
ATOM     10  C   LIG    1       15.022  45.540  14.577  0.00  0.00    +0.146 C 
ATOM     11  S   LIG    1       14.756  47.168  13.763  0.00  0.00    -0.054 S 
ATOM     12  C   LIG    1       15.484  46.652  12.262  0.00  0.00    +0.279 C 
ATOM     13  O   LIG    1       15.603  47.363  11.282  0.00  0.00    -0.263 OA
ATOM     14  N   LIG    1       15.840  45.349  12.335  0.00  0.00    -0.246 N 
ATOM     15  H   LIG    1       16.125  44.871  11.494  0.00  0.00    +0.158 HD
ENDBRANCH   7  10
ENDBRANCH   1   7
BRANCH   4  16
ATOM     16  O   LIG    1       20.549  48.940  14.062  0.00  0.00    -0.492 OA
BRANCH  16  17
ATOM     17  C   LIG    1       20.983  49.869  15.057  0.00  0.00    +0.235 C 
BRANCH  17  18
ATOM     18  C   LIG    1       21.310  49.228  16.404  0.00  0.00    +0.096 C 
BRANCH  18  19
ATOM     19  C   LIG    1       20.097  49.101  17.307  0.00  0.00    +0.045 A 
ATOM     20  C   LIG    1       19.796  47.932  18.008  0.00  0.00    +0.024 A 
ATOM     21  C   LIG    1       18.687  47.896  18.848  0.00  0.00    +0.007 A 
ATOM     22  C   LIG    1       17.870  49.015  18.978  0.00  0.00    -0.030 A 
ATOM     23  C   LIG    1       18.225  50.130  18.228  0.00  0.00    +0.114 A 
ATOM     24  N   LIG    1       19.306  50.196  17.408  0.00  0.00    -0.260 NA
BRANCH  22  25
ATOM     25  C   LIG    1       16.694  48.935  19.915  0.00  0.00    +0.033 C 
ATOM     26  C   LIG    1       15.504  48.106  19.457  0.00  0.00    +0.009 C 
ENDBRANCH  22  25
ENDBRANCH  18  19
ENDBRANCH  17  18
ENDBRANCH  16  17
ENDBRANCH   4  16
TORSDOF 7
ENDMDL
