REMARK  Name = 
REMARK                            x       y       z     vdW  Elec       q    Type
REMARK                         _______ _______ _______ _____ _____    ______ ____
ROOT
ATOM      1  C   LIG    1        1.331  -2.681  -0.515  0.00  0.00    -0.046 A 
ATOM      2  C   LIG    1        0.191  -1.880  -0.432  0.00  0.00    +0.007 A 
ATOM      3  C   LIG    1       -1.027  -2.415  -0.017  0.00  0.00    +0.046 A 
ATOM      4  C   LIG    1       -1.147  -3.772   0.298  0.00  0.00    +0.121 A 
ATOM      5  C   LIG    1       -0.016  -4.582   0.202  0.00  0.00    +0.046 A 
ATOM      6  C   LIG    1        1.217  -4.040  -0.193  0.00  0.00    +0.007 A 
ENDROOT
BRANCH   1   7
ATOM      7  C   LIG    1        2.641  -2.077  -0.967  0.00  0.00    +0.059 C 
BRANCH   7  10
ATOM      8  O   LIG    1        1.769   0.304   1.067  0.00  0.00    -0.274 OA
ATOM      9  C   LIG    1        2.757   0.087   0.377  0.00  0.00    +0.234 C 
ATOM     10  C   LIG    1        3.374  -1.278   0.119  0.00  0.00    +0.146 C 
ATOM     11  S   LIG    1        5.057  -0.869  -0.498  0.00  0.00    -0.054 S 
ATOM     12  C   LIG    1        4.691   0.829  -0.677  0.00  0.00    +0.279 C 
ATOM     13  O   LIG    1        5.483   1.658  -1.084  0.00  0.00    -0.263 OA
ATOM     14  N   LIG    1        3.434   1.087  -0.250  0.00  0.00    -0.246 N 
ATOM     15  H   LIG    1        3.140   2.045  -0.143  0.00  0.00    +0.158 HD
ENDBRANCH   7  10
ENDBRANCH   1   7
BRANCH   4  16
ATOM     16  O   LIG    1       -2.314  -4.392   0.694  0.00  0.00    -0.492 OA
BRANCH  16  17
ATOM     17  C   LIG    1       -3.398  -3.484   0.898  0.00  0.00    +0.235 C 
BRANCH  17  18
ATOM     18  C   LIG    1       -4.702  -4.159   1.316  0.00  0.00    +0.096 C 
BRANCH  18  19
ATOM     19  C   LIG    1       -5.857  -3.182   1.446  0.00  0.00    +0.045 A 
ATOM     20  C   LIG    1       -5.677  -1.798   1.465  0.00  0.00    +0.024 A 
ATOM     21  C   LIG    1       -6.783  -0.958   1.550  0.00  0.00    +0.007 A 
ATOM     22  C   LIG    1       -8.065  -1.494   1.633  0.00  0.00    -0.030 A 
ATOM     23  C   LIG    1       -8.156  -2.881   1.632  0.00  0.00    +0.114 A 
ATOM     24  N   LIG    1       -7.094  -3.724   1.541  0.00  0.00    -0.260 NA
BRANCH  22  25
ATOM     25  C   LIG    1       -9.232  -0.546   1.702  0.00  0.00    +0.033 C 
ATOM     26  C   LIG    1      -10.614  -1.164   1.851  0.00  0.00    +0.009 C 
ENDBRANCH  22  25
ENDBRANCH  18  19
ENDBRANCH  17  18
ENDBRANCH  16  17
ENDBRANCH   4  16
TORSDOF 7
