MODEL 1
REMARK VINA RESULT:      -8.7      0.000      0.000
REMARK  Name = 
REMARK                            x       y       z     vdW  Elec       q    Type
REMARK                         _______ _______ _______ _____ _____    ______ ____
ROOT
ATOM      1  C   LIG    1       -7.022  -4.288  11.850  0.00  0.00    +0.100 C 
ENDROOT
BRANCH   1   6
ATOM      2 CL   LIG    1      -11.580  -0.390  12.982  0.00  0.00    -0.084 Cl
ATOM      3  C   LIG    1      -10.301  -1.480  12.618  0.00  0.00    +0.041 A 
ATOM      4  C   LIG    1       -9.153  -1.026  11.987  0.00  0.00    +0.020 A 
ATOM      5  C   LIG    1       -8.103  -1.911  11.696  0.00  0.00    +0.006 A 
ATOM      6  C   LIG    1       -8.172  -3.268  12.053  0.00  0.00    -0.036 A 
ATOM      7  C   LIG    1       -9.356  -3.693  12.698  0.00  0.00    +0.006 A 
ATOM      8  C   LIG    1      -10.412  -2.819  12.970  0.00  0.00    +0.020 A 
ENDBRANCH   1   6
BRANCH   1   9
ATOM      9  C   LIG    1       -6.074  -4.360  13.075  0.00  0.00    -0.036 A 
ATOM     10  C   LIG    1       -4.696  -4.615  12.988  0.00  0.00    +0.006 A 
ATOM     11  C   LIG    1       -3.887  -4.617  14.134  0.00  0.00    +0.020 A 
ATOM     12  C   LIG    1       -4.446  -4.411  15.389  0.00  0.00    +0.041 A 
ATOM     13 CL   LIG    1       -3.451  -4.436  16.792  0.00  0.00    -0.084 Cl
ATOM     14  C   LIG    1       -5.809  -4.180  15.511  0.00  0.00    +0.020 A 
ATOM     15  C   LIG    1       -6.607  -4.134  14.364  0.00  0.00    +0.006 A 
ENDBRANCH   1   9
BRANCH   1  16
ATOM     16  C   LIG    1       -7.340  -5.657  11.123  0.00  0.00    +0.201 C 
ATOM     17 CL   LIG    1       -5.868  -6.290  10.271  0.00  0.00    -0.082 Cl
ATOM     18 CL   LIG    1       -8.585  -5.415   9.823  0.00  0.00    -0.082 Cl
ATOM     19 CL   LIG    1       -7.939  -6.990  12.177  0.00  0.00    -0.082 Cl
ENDBRANCH   1  16
TORSDOF 3
ENDMDL
MODEL 2
REMARK VINA RESULT:      -8.7      0.067      1.157
REMARK  Name = 
REMARK                            x       y       z     vdW  Elec       q    Type
REMARK                         _______ _______ _______ _____ _____    ______ ____
ROOT
ATOM      1  C   LIG    1       -7.000  -4.224  11.843  0.00  0.00    +0.100 C 
ENDROOT
BRANCH   1   6
ATOM      2 CL   LIG    1      -11.589  -0.376  13.023  0.00  0.00    -0.084 Cl
ATOM      3  C   LIG    1      -10.303  -1.453  12.646  0.00  0.00    +0.041 A 
ATOM      4  C   LIG    1       -9.176  -0.991  11.982  0.00  0.00    +0.020 A 
ATOM      5  C   LIG    1       -8.119  -1.865  11.680  0.00  0.00    +0.006 A 
ATOM      6  C   LIG    1       -8.161  -3.218  12.058  0.00  0.00    -0.036 A 
ATOM      7  C   LIG    1       -9.323  -3.651  12.735  0.00  0.00    +0.006 A 
ATOM      8  C   LIG    1      -10.386  -2.788  13.018  0.00  0.00    +0.020 A 
ENDBRANCH   1   6
BRANCH   1   9
ATOM      9  C   LIG    1       -6.062  -4.313  13.074  0.00  0.00    -0.036 A 
ATOM     10  C   LIG    1       -4.691  -4.607  12.996  0.00  0.00    +0.006 A 
ATOM     11  C   LIG    1       -3.888  -4.624  14.146  0.00  0.00    +0.020 A 
ATOM     12  C   LIG    1       -4.448  -4.393  15.397  0.00  0.00    +0.041 A 
ATOM     13 CL   LIG    1       -3.462  -4.435  16.806  0.00  0.00    -0.084 Cl
ATOM     14  C   LIG    1       -5.804  -4.123  15.509  0.00  0.00    +0.020 A 
ATOM     15  C   LIG    1       -6.595  -4.063  14.358  0.00  0.00    +0.006 A 
ENDBRANCH   1   9
BRANCH   1  16
ATOM     16  C   LIG    1       -7.302  -5.580  11.085  0.00  0.00    +0.201 C 
ATOM     17 CL   LIG    1       -8.624  -5.353   9.863  0.00  0.00    -0.082 Cl
ATOM     18 CL   LIG    1       -7.922  -6.835  12.242  0.00  0.00    -0.082 Cl
ATOM     19 CL   LIG    1       -5.912  -6.320  10.209  0.00  0.00    -0.082 Cl
ENDBRANCH   1  16
TORSDOF 3
ENDMDL
MODEL 3
REMARK VINA RESULT:      -8.5      0.920      5.413
REMARK  Name = 
REMARK                            x       y       z     vdW  Elec       q    Type
REMARK                         _______ _______ _______ _____ _____    ______ ____
ROOT
ATOM      1  C   LIG    1       -7.550  -4.974  12.874  0.00  0.00    +0.100 C 
ENDROOT
BRANCH   1   6
ATOM      2 CL   LIG    1       -3.101  -4.280  16.993  0.00  0.00    -0.084 Cl
ATOM      3  C   LIG    1       -4.341  -4.436  15.813  0.00  0.00    +0.041 A 
ATOM      4  C   LIG    1       -4.017  -4.564  14.470  0.00  0.00    +0.020 A 
ATOM      5  C   LIG    1       -5.027  -4.700  13.504  0.00  0.00    +0.006 A 
ATOM      6  C   LIG    1       -6.383  -4.735  13.867  0.00  0.00    -0.036 A 
ATOM      7  C   LIG    1       -6.674  -4.606  15.243  0.00  0.00    +0.006 A 
ATOM      8  C   LIG    1       -5.672  -4.449  16.206  0.00  0.00    +0.020 A 
ENDBRANCH   1   6
BRANCH   1   9
ATOM      9  C   LIG    1       -8.504  -3.755  12.779  0.00  0.00    -0.036 A 
ATOM     10  C   LIG    1       -9.899  -3.837  12.919  0.00  0.00    +0.006 A 
ATOM     11  C   LIG    1      -10.699  -2.687  12.871  0.00  0.00    +0.020 A 
ATOM     12  C   LIG    1      -10.127  -1.442  12.638  0.00  0.00    +0.041 A 
ATOM     13 CL   LIG    1      -11.117  -0.037  12.561  0.00  0.00    -0.084 Cl
ATOM     14  C   LIG    1       -8.754  -1.331  12.473  0.00  0.00    +0.020 A 
ATOM     15  C   LIG    1       -7.953  -2.473  12.564  0.00  0.00    +0.006 A 
ENDBRANCH   1   9
BRANCH   1  16
ATOM     16  C   LIG    1       -7.252  -5.743  11.523  0.00  0.00    +0.201 C 
ATOM     17 CL   LIG    1       -6.540  -4.620  10.287  0.00  0.00    -0.082 Cl
ATOM     18 CL   LIG    1       -8.792  -6.361  10.785  0.00  0.00    -0.082 Cl
ATOM     19 CL   LIG    1       -6.132  -7.150  11.646  0.00  0.00    -0.082 Cl
ENDBRANCH   1  16
TORSDOF 3
ENDMDL
MODEL 4
REMARK VINA RESULT:      -8.3      0.339      1.946
REMARK  Name = 
REMARK                            x       y       z     vdW  Elec       q    Type
REMARK                         _______ _______ _______ _____ _____    ______ ____
ROOT
ATOM      1  C   LIG    1       -7.227  -4.070  12.097  0.00  0.00    +0.100 C 
ENDROOT
BRANCH   1   6
ATOM      2 CL   LIG    1      -11.798  -0.081  12.765  0.00  0.00    -0.084 Cl
ATOM      3  C   LIG    1      -10.510  -1.210  12.622  0.00  0.00    +0.041 A 
ATOM      4  C   LIG    1      -10.690  -2.529  13.013  0.00  0.00    +0.020 A 
ATOM      5  C   LIG    1       -9.643  -3.457  12.890  0.00  0.00    +0.006 A 
ATOM      6  C   LIG    1       -8.400  -3.087  12.351  0.00  0.00    -0.036 A 
ATOM      7  C   LIG    1       -8.255  -1.737  11.961  0.00  0.00    +0.006 A 
ATOM      8  C   LIG    1       -9.289  -0.805  12.102  0.00  0.00    +0.020 A 
ENDBRANCH   1   6
BRANCH   1   9
ATOM      9  C   LIG    1       -6.286  -4.194  13.323  0.00  0.00    -0.036 A 
ATOM     10  C   LIG    1       -6.715  -4.096  14.656  0.00  0.00    +0.006 A 
ATOM     11  C   LIG    1       -5.817  -4.268  15.720  0.00  0.00    +0.020 A 
ATOM     12  C   LIG    1       -4.468  -4.493  15.471  0.00  0.00    +0.041 A 
ATOM     13 CL   LIG    1       -3.369  -4.682  16.780  0.00  0.00    -0.084 Cl
ATOM     14  C   LIG    1       -4.009  -4.571  14.165  0.00  0.00    +0.020 A 
ATOM     15  C   LIG    1       -4.913  -4.444  13.105  0.00  0.00    +0.006 A 
ENDBRANCH   1   9
BRANCH   1  16
ATOM     16  C   LIG    1       -7.513  -5.401  11.290  0.00  0.00    +0.201 C 
ATOM     17 CL   LIG    1       -7.923  -6.762  12.418  0.00  0.00    -0.082 Cl
ATOM     18 CL   LIG    1       -6.025  -5.941  10.401  0.00  0.00    -0.082 Cl
ATOM     19 CL   LIG    1       -8.844  -5.318  10.077  0.00  0.00    -0.082 Cl
ENDBRANCH   1  16
TORSDOF 3
ENDMDL
MODEL 5
REMARK VINA RESULT:      -8.0      1.952      4.794
REMARK  Name = 
REMARK                            x       y       z     vdW  Elec       q    Type
REMARK                         _______ _______ _______ _____ _____    ______ ____
ROOT
ATOM      1  C   LIG    1       -7.702  -4.724  13.076  0.00  0.00    +0.100 C 
ENDROOT
BRANCH   1   6
ATOM      2 CL   LIG    1       -6.016  -9.244   9.339  0.00  0.00    -0.084 Cl
ATOM      3  C   LIG    1       -6.533  -7.972  10.373  0.00  0.00    +0.041 A 
ATOM      4  C   LIG    1       -7.565  -8.179  11.275  0.00  0.00    +0.020 A 
ATOM      5  C   LIG    1       -7.985  -7.145  12.127  0.00  0.00    +0.006 A 
ATOM      6  C   LIG    1       -7.361  -5.886  12.108  0.00  0.00    -0.036 A 
ATOM      7  C   LIG    1       -6.311  -5.713  11.178  0.00  0.00    +0.006 A 
ATOM      8  C   LIG    1       -5.905  -6.735  10.314  0.00  0.00    +0.020 A 
ENDBRANCH   1   6
BRANCH   1   9
ATOM      9  C   LIG    1       -6.607  -4.512  14.153  0.00  0.00    -0.036 A 
ATOM     10  C   LIG    1       -6.877  -4.268  15.510  0.00  0.00    +0.006 A 
ATOM     11  C   LIG    1       -5.837  -4.135  16.441  0.00  0.00    +0.020 A 
ATOM     12  C   LIG    1       -4.511  -4.196  16.028  0.00  0.00    +0.041 A 
ATOM     13 CL   LIG    1       -3.241  -4.011  17.173  0.00  0.00    -0.084 Cl
ATOM     14  C   LIG    1       -4.213  -4.412  14.691  0.00  0.00    +0.020 A 
ATOM     15  C   LIG    1       -5.250  -4.589  13.771  0.00  0.00    +0.006 A 
ENDBRANCH   1   9
BRANCH   1  16
ATOM     16  C   LIG    1       -8.376  -3.418  12.487  0.00  0.00    +0.201 C 
ATOM     17 CL   LIG    1      -10.049  -3.200  13.155  0.00  0.00    -0.082 Cl
ATOM     18 CL   LIG    1       -8.587  -3.563  10.690  0.00  0.00    -0.082 Cl
ATOM     19 CL   LIG    1       -7.496  -1.873  12.786  0.00  0.00    -0.082 Cl
ENDBRANCH   1  16
TORSDOF 3
ENDMDL
MODEL 6
REMARK VINA RESULT:      -7.7      2.113      5.432
REMARK  Name = 
REMARK                            x       y       z     vdW  Elec       q    Type
REMARK                         _______ _______ _______ _____ _____    ______ ____
ROOT
ATOM      1  C   LIG    1       -6.837  -4.240  12.681  0.00  0.00    +0.100 C 
ENDROOT
BRANCH   1   6
ATOM      2 CL   LIG    1       -5.169  -5.207  18.471  0.00  0.00    -0.084 Cl
ATOM      3  C   LIG    1       -5.616  -4.895  16.841  0.00  0.00    +0.041 A 
ATOM      4  C   LIG    1       -4.644  -4.782  15.858  0.00  0.00    +0.020 A 
ATOM      5  C   LIG    1       -5.005  -4.535  14.524  0.00  0.00    +0.006 A 
ATOM      6  C   LIG    1       -6.353  -4.420  14.143  0.00  0.00    -0.036 A 
ATOM      7  C   LIG    1       -7.315  -4.544  15.171  0.00  0.00    +0.006 A 
ATOM      8  C   LIG    1       -6.957  -4.768  16.504  0.00  0.00    +0.020 A 
ENDBRANCH   1   6
BRANCH   1   9
ATOM      9  C   LIG    1       -6.721  -5.547  11.855  0.00  0.00    -0.036 A 
ATOM     10  C   LIG    1       -7.573  -6.652  12.010  0.00  0.00    +0.006 A 
ATOM     11  C   LIG    1       -7.443  -7.786  11.195  0.00  0.00    +0.020 A 
ATOM     12  C   LIG    1       -6.433  -7.855  10.243  0.00  0.00    +0.041 A 
ATOM     13 CL   LIG    1       -6.266  -9.257   9.260  0.00  0.00    -0.084 Cl
ATOM     14  C   LIG    1       -5.560  -6.789  10.082  0.00  0.00    +0.020 A 
ATOM     15  C   LIG    1       -5.718  -5.642  10.865  0.00  0.00    +0.006 A 
ENDBRANCH   1   9
BRANCH   1  16
ATOM     16  C   LIG    1       -8.114  -3.345  12.409  0.00  0.00    +0.201 C 
ATOM     17 CL   LIG    1       -8.446  -3.221  10.629  0.00  0.00    -0.082 Cl
ATOM     18 CL   LIG    1       -7.831  -1.640  12.968  0.00  0.00    -0.082 Cl
ATOM     19 CL   LIG    1       -9.645  -3.899  13.181  0.00  0.00    -0.082 Cl
ENDBRANCH   1  16
TORSDOF 3
ENDMDL
MODEL 7
REMARK VINA RESULT:      -7.7      1.835      5.431
REMARK  Name = 
REMARK                            x       y       z     vdW  Elec       q    Type
REMARK                         _______ _______ _______ _____ _____    ______ ____
ROOT
ATOM      1  C   LIG    1       -7.712  -5.208  11.746  0.00  0.00    +0.100 C 
ENDROOT
BRANCH   1   6
ATOM      2 CL   LIG    1       -3.979  -4.313  16.491  0.00  0.00    -0.084 Cl
ATOM      3  C   LIG    1       -5.044  -4.604  15.173  0.00  0.00    +0.041 A 
ATOM      4  C   LIG    1       -6.414  -4.661  15.382  0.00  0.00    +0.020 A 
ATOM      5  C   LIG    1       -7.289  -4.890  14.308  0.00  0.00    +0.006 A 
ATOM      6  C   LIG    1       -6.809  -5.044  12.996  0.00  0.00    -0.036 A 
ATOM      7  C   LIG    1       -5.408  -4.977  12.823  0.00  0.00    +0.006 A 
ATOM      8  C   LIG    1       -4.533  -4.770  13.894  0.00  0.00    +0.020 A 
ENDBRANCH   1   6
BRANCH   1   9
ATOM      9  C   LIG    1       -7.771  -3.918  10.888  0.00  0.00    -0.036 A 
ATOM     10  C   LIG    1       -7.399  -3.857   9.535  0.00  0.00    +0.006 A 
ATOM     11  C   LIG    1       -7.525  -2.667   8.803  0.00  0.00    +0.020 A 
ATOM     12  C   LIG    1       -7.981  -1.508   9.420  0.00  0.00    +0.041 A 
ATOM     13 CL   LIG    1       -8.114  -0.047   8.521  0.00  0.00    -0.084 Cl
ATOM     14  C   LIG    1       -8.335  -1.530  10.761  0.00  0.00    +0.020 A 
ATOM     15  C   LIG    1       -8.250  -2.727  11.478  0.00  0.00    +0.006 A 
ENDBRANCH   1   9
BRANCH   1  16
ATOM     16  C   LIG    1       -7.674  -6.580  10.957  0.00  0.00    +0.201 C 
ATOM     17 CL   LIG    1       -8.995  -6.643   9.714  0.00  0.00    -0.082 Cl
ATOM     18 CL   LIG    1       -7.997  -7.971  12.078  0.00  0.00    -0.082 Cl
ATOM     19 CL   LIG    1       -6.137  -6.952  10.094  0.00  0.00    -0.082 Cl
ENDBRANCH   1  16
TORSDOF 3
ENDMDL
MODEL 8
REMARK VINA RESULT:      -7.6      1.894      5.963
REMARK  Name = 
REMARK                            x       y       z     vdW  Elec       q    Type
REMARK                         _______ _______ _______ _____ _____    ______ ____
ROOT
ATOM      1  C   LIG    1       -6.795  -4.167  13.385  0.00  0.00    +0.100 C 
ENDROOT
BRANCH   1   6
ATOM      2 CL   LIG    1       -6.249  -8.905   9.578  0.00  0.00    -0.084 Cl
ATOM      3  C   LIG    1       -6.443  -7.561  10.631  0.00  0.00    +0.041 A 
ATOM      4  C   LIG    1       -7.498  -7.523  11.531  0.00  0.00    +0.020 A 
ATOM      5  C   LIG    1       -7.656  -6.431  12.399  0.00  0.00    +0.006 A 
ATOM      6  C   LIG    1       -6.744  -5.362  12.399  0.00  0.00    -0.036 A 
ATOM      7  C   LIG    1       -5.680  -5.437  11.471  0.00  0.00    +0.006 A 
ATOM      8  C   LIG    1       -5.533  -6.513  10.591  0.00  0.00    +0.020 A 
ENDBRANCH   1   6
BRANCH   1   9
ATOM      9  C   LIG    1       -8.030  -3.260  13.151  0.00  0.00    -0.036 A 
ATOM     10  C   LIG    1       -9.358  -3.680  13.331  0.00  0.00    +0.006 A 
ATOM     11  C   LIG    1      -10.428  -2.792  13.149  0.00  0.00    +0.020 A 
ATOM     12  C   LIG    1      -10.195  -1.485  12.740  0.00  0.00    +0.041 A 
ATOM     13 CL   LIG    1      -11.514  -0.407  12.499  0.00  0.00    -0.084 Cl
ATOM     14  C   LIG    1       -8.896  -1.046  12.531  0.00  0.00    +0.020 A 
ATOM     15  C   LIG    1       -7.827  -1.919  12.755  0.00  0.00    +0.006 A 
ENDBRANCH   1   9
BRANCH   1  16
ATOM     16  C   LIG    1       -6.371  -4.407  14.891  0.00  0.00    +0.201 C 
ATOM     17 CL   LIG    1       -4.847  -5.388  14.982  0.00  0.00    -0.082 Cl
ATOM     18 CL   LIG    1       -7.629  -5.386  15.761  0.00  0.00    -0.082 Cl
ATOM     19 CL   LIG    1       -6.089  -2.925  15.878  0.00  0.00    -0.082 Cl
ENDBRANCH   1  16
TORSDOF 3
ENDMDL
MODEL 9
REMARK VINA RESULT:      -7.5      2.055      4.161
REMARK  Name = 
REMARK                            x       y       z     vdW  Elec       q    Type
REMARK                         _______ _______ _______ _____ _____    ______ ____
ROOT
ATOM      1  C   LIG    1       -8.286  -3.682  12.336  0.00  0.00    +0.100 C 
ENDROOT
BRANCH   1   6
ATOM      2 CL   LIG    1       -8.315  -7.233   7.372  0.00  0.00    -0.084 Cl
ATOM      3  C   LIG    1       -8.275  -6.260   8.789  0.00  0.00    +0.041 A 
ATOM      4  C   LIG    1       -7.110  -5.601   9.152  0.00  0.00    +0.020 A 
ATOM      5  C   LIG    1       -7.075  -4.798  10.303  0.00  0.00    +0.006 A 
ATOM      6  C   LIG    1       -8.217  -4.622  11.104  0.00  0.00    -0.036 A 
ATOM      7  C   LIG    1       -9.385  -5.306  10.700  0.00  0.00    +0.006 A 
ATOM      8  C   LIG    1       -9.417  -6.123   9.566  0.00  0.00    +0.020 A 
ENDBRANCH   1   6
BRANCH   1   9
ATOM      9  C   LIG    1       -7.262  -4.071  13.433  0.00  0.00    -0.036 A 
ATOM     10  C   LIG    1       -5.876  -4.147  13.222  0.00  0.00    +0.006 A 
ATOM     11  C   LIG    1       -5.000  -4.457  14.273  0.00  0.00    +0.020 A 
ATOM     12  C   LIG    1       -5.495  -4.741  15.540  0.00  0.00    +0.041 A 
ATOM     13 CL   LIG    1       -4.417  -5.140  16.819  0.00  0.00    -0.084 Cl
ATOM     14  C   LIG    1       -6.862  -4.697  15.774  0.00  0.00    +0.020 A 
ATOM     15  C   LIG    1       -7.730  -4.345  14.737  0.00  0.00    +0.006 A 
ENDBRANCH   1   9
BRANCH   1  16
ATOM     16  C   LIG    1       -8.512  -2.134  12.098  0.00  0.00    +0.201 C 
ATOM     17 CL   LIG    1       -7.339  -1.155  13.078  0.00  0.00    -0.082 Cl
ATOM     18 CL   LIG    1      -10.160  -1.632  12.674  0.00  0.00    -0.082 Cl
ATOM     19 CL   LIG    1       -8.360  -1.566  10.395  0.00  0.00    -0.082 Cl
ENDBRANCH   1  16
TORSDOF 3
ENDMDL
