MODEL 1
REMARK VINA RESULT:      -8.7      0.000      0.000
REMARK  Name = 
REMARK                            x       y       z     vdW  Elec       q    Type
REMARK                         _______ _______ _______ _____ _____    ______ ____
ROOT
ATOM      1  C   LIG    1       60.966  47.039  29.755  0.00  0.00    +0.100 C 
ENDROOT
BRANCH   1   6
ATOM      2 CL   LIG    1       55.390  44.649  30.427  0.00  0.00    -0.084 Cl
ATOM      3  C   LIG    1       56.969  45.292  30.204  0.00  0.00    +0.041 A 
ATOM      4  C   LIG    1       57.320  45.882  28.999  0.00  0.00    +0.020 A 
ATOM      5  C   LIG    1       58.606  46.416  28.815  0.00  0.00    +0.006 A 
ATOM      6  C   LIG    1       59.560  46.391  29.846  0.00  0.00    -0.036 A 
ATOM      7  C   LIG    1       59.165  45.786  31.061  0.00  0.00    +0.006 A 
ATOM      8  C   LIG    1       57.892  45.234  31.239  0.00  0.00    +0.020 A 
ENDBRANCH   1   6
BRANCH   1   9
ATOM      9  C   LIG    1       61.867  46.665  30.960  0.00  0.00    -0.036 A 
ATOM     10  C   LIG    1       62.877  45.691  30.912  0.00  0.00    +0.006 A 
ATOM     11  C   LIG    1       63.690  45.437  32.026  0.00  0.00    +0.020 A 
ATOM     12  C   LIG    1       63.481  46.117  33.219  0.00  0.00    +0.041 A 
ATOM     13 CL   LIG    1       64.468  45.787  34.588  0.00  0.00    -0.084 Cl
ATOM     14  C   LIG    1       62.475  47.070  33.305  0.00  0.00    +0.020 A 
ATOM     15  C   LIG    1       61.694  47.353  32.181  0.00  0.00    +0.006 A 
ENDBRANCH   1   9
BRANCH   1  16
ATOM     16  C   LIG    1       61.674  47.120  28.342  0.00  0.00    +0.201 C 
ATOM     17 CL   LIG    1       63.290  47.935  28.478  0.00  0.00    -0.082 Cl
ATOM     18 CL   LIG    1       60.707  48.151  27.201  0.00  0.00    -0.082 Cl
ATOM     19 CL   LIG    1       61.958  45.548  27.510  0.00  0.00    -0.082 Cl
ENDBRANCH   1  16
TORSDOF 3
ENDMDL
MODEL 2
REMARK VINA RESULT:      -8.7      1.522      2.069
REMARK  Name = 
REMARK                            x       y       z     vdW  Elec       q    Type
REMARK                         _______ _______ _______ _____ _____    ______ ____
ROOT
ATOM      1  C   LIG    1       62.155  46.251  29.937  0.00  0.00    +0.100 C 
ENDROOT
BRANCH   1   6
ATOM      2 CL   LIG    1       56.165  46.469  28.791  0.00  0.00    -0.084 Cl
ATOM      3  C   LIG    1       57.842  46.404  29.159  0.00  0.00    +0.041 A 
ATOM      4  C   LIG    1       58.384  45.276  29.758  0.00  0.00    +0.020 A 
ATOM      5  C   LIG    1       59.756  45.216  30.052  0.00  0.00    +0.006 A 
ATOM      6  C   LIG    1       60.618  46.277  29.730  0.00  0.00    -0.036 A 
ATOM      7  C   LIG    1       60.031  47.407  29.118  0.00  0.00    +0.006 A 
ATOM      8  C   LIG    1       58.662  47.479  28.843  0.00  0.00    +0.020 A 
ENDBRANCH   1   6
BRANCH   1   9
ATOM      9  C   LIG    1       62.551  46.375  31.431  0.00  0.00    -0.036 A 
ATOM     10  C   LIG    1       63.616  45.676  32.021  0.00  0.00    +0.006 A 
ATOM     11  C   LIG    1       63.952  45.872  33.369  0.00  0.00    +0.020 A 
ATOM     12  C   LIG    1       63.203  46.733  34.161  0.00  0.00    +0.041 A 
ATOM     13 CL   LIG    1       63.608  46.954  35.818  0.00  0.00    -0.084 Cl
ATOM     14  C   LIG    1       62.130  47.421  33.613  0.00  0.00    +0.020 A 
ATOM     15  C   LIG    1       61.824  47.258  32.259  0.00  0.00    +0.006 A 
ENDBRANCH   1   9
BRANCH   1  16
ATOM     16  C   LIG    1       63.023  45.264  29.056  0.00  0.00    +0.201 C 
ATOM     17 CL   LIG    1       64.752  45.812  28.990  0.00  0.00    -0.082 Cl
ATOM     18 CL   LIG    1       62.448  45.271  27.333  0.00  0.00    -0.082 Cl
ATOM     19 CL   LIG    1       63.048  43.543  29.591  0.00  0.00    -0.082 Cl
ENDBRANCH   1  16
TORSDOF 3
ENDMDL
MODEL 3
REMARK VINA RESULT:      -8.6      1.351      5.642
REMARK  Name = 
REMARK                            x       y       z     vdW  Elec       q    Type
REMARK                         _______ _______ _______ _____ _____    ______ ____
ROOT
ATOM      1  C   LIG    1       62.059  45.859  29.936  0.00  0.00    +0.100 C 
ENDROOT
BRANCH   1   6
ATOM      2 CL   LIG    1       63.402  47.483  35.664  0.00  0.00    -0.084 Cl
ATOM      3  C   LIG    1       63.066  47.039  34.037  0.00  0.00    +0.041 A 
ATOM      4  C   LIG    1       63.803  46.040  33.418  0.00  0.00    +0.020 A 
ATOM      5  C   LIG    1       63.526  45.668  32.093  0.00  0.00    +0.006 A 
ATOM      6  C   LIG    1       62.487  46.275  31.367  0.00  0.00    -0.036 A 
ATOM      7  C   LIG    1       61.756  47.285  32.032  0.00  0.00    +0.006 A 
ATOM      8  C   LIG    1       62.043  47.672  33.344  0.00  0.00    +0.020 A 
ENDBRANCH   1   6
BRANCH   1   9
ATOM      9  C   LIG    1       60.550  46.105  29.676  0.00  0.00    -0.036 A 
ATOM     10  C   LIG    1       60.035  47.270  29.088  0.00  0.00    +0.006 A 
ATOM     11  C   LIG    1       58.662  47.407  28.835  0.00  0.00    +0.020 A 
ATOM     12  C   LIG    1       57.776  46.403  29.207  0.00  0.00    +0.041 A 
ATOM     13 CL   LIG    1       56.091  46.586  28.914  0.00  0.00    -0.084 Cl
ATOM     14  C   LIG    1       58.251  45.249  29.812  0.00  0.00    +0.020 A 
ATOM     15  C   LIG    1       59.625  45.095  30.023  0.00  0.00    +0.006 A 
ENDBRANCH   1   9
BRANCH   1  16
ATOM     16  C   LIG    1       63.041  46.161  28.732  0.00  0.00    +0.201 C 
ATOM     17 CL   LIG    1       62.543  45.241  27.249  0.00  0.00    -0.082 Cl
ATOM     18 CL   LIG    1       64.720  45.586  29.117  0.00  0.00    -0.082 Cl
ATOM     19 CL   LIG    1       63.182  47.890  28.243  0.00  0.00    -0.082 Cl
ENDBRANCH   1  16
TORSDOF 3
ENDMDL
MODEL 4
REMARK VINA RESULT:      -8.6      1.352      5.542
REMARK  Name = 
REMARK                            x       y       z     vdW  Elec       q    Type
REMARK                         _______ _______ _______ _____ _____    ______ ____
ROOT
ATOM      1  C   LIG    1       62.053  45.851  29.963  0.00  0.00    +0.100 C 
ENDROOT
BRANCH   1   6
ATOM      2 CL   LIG    1       63.387  47.519  35.680  0.00  0.00    -0.084 Cl
ATOM      3  C   LIG    1       63.053  47.063  34.056  0.00  0.00    +0.041 A 
ATOM      4  C   LIG    1       63.803  46.073  33.440  0.00  0.00    +0.020 A 
ATOM      5  C   LIG    1       63.528  45.691  32.117  0.00  0.00    +0.006 A 
ATOM      6  C   LIG    1       62.479  46.280  31.391  0.00  0.00    -0.036 A 
ATOM      7  C   LIG    1       61.735  47.282  32.053  0.00  0.00    +0.006 A 
ATOM      8  C   LIG    1       62.020  47.679  33.363  0.00  0.00    +0.020 A 
ENDBRANCH   1   6
BRANCH   1   9
ATOM      9  C   LIG    1       60.547  46.106  29.694  0.00  0.00    -0.036 A 
ATOM     10  C   LIG    1       60.041  47.277  29.110  0.00  0.00    +0.006 A 
ATOM     11  C   LIG    1       58.670  47.422  28.849  0.00  0.00    +0.020 A 
ATOM     12  C   LIG    1       57.777  46.420  29.209  0.00  0.00    +0.041 A 
ATOM     13 CL   LIG    1       56.095  46.612  28.905  0.00  0.00    -0.084 Cl
ATOM     14  C   LIG    1       58.244  45.260  29.809  0.00  0.00    +0.020 A 
ATOM     15  C   LIG    1       59.615  45.098  30.028  0.00  0.00    +0.006 A 
ENDBRANCH   1   9
BRANCH   1  16
ATOM     16  C   LIG    1       63.042  46.133  28.759  0.00  0.00    +0.201 C 
ATOM     17 CL   LIG    1       63.065  47.900  28.346  0.00  0.00    -0.082 Cl
ATOM     18 CL   LIG    1       62.474  45.292  27.254  0.00  0.00    -0.082 Cl
ATOM     19 CL   LIG    1       64.757  45.642  29.016  0.00  0.00    -0.082 Cl
ENDBRANCH   1  16
TORSDOF 3
ENDMDL
MODEL 5
REMARK VINA RESULT:      -8.3      1.788      2.616
REMARK  Name = 
REMARK                            x       y       z     vdW  Elec       q    Type
REMARK                         _______ _______ _______ _____ _____    ______ ____
ROOT
ATOM      1  C   LIG    1       62.986  46.271  30.030  0.00  0.00    +0.100 C 
ENDROOT
BRANCH   1   6
ATOM      2 CL   LIG    1       57.000  46.765  28.946  0.00  0.00    -0.084 Cl
ATOM      3  C   LIG    1       58.694  46.631  29.207  0.00  0.00    +0.041 A 
ATOM      4  C   LIG    1       59.534  47.694  28.909  0.00  0.00    +0.020 A 
ATOM      5  C   LIG    1       60.917  47.593  29.129  0.00  0.00    +0.006 A 
ATOM      6  C   LIG    1       61.485  46.429  29.673  0.00  0.00    -0.036 A 
ATOM      7  C   LIG    1       60.598  45.368  29.967  0.00  0.00    +0.006 A 
ATOM      8  C   LIG    1       59.223  45.459  29.729  0.00  0.00    +0.020 A 
ENDBRANCH   1   6
BRANCH   1   9
ATOM      9  C   LIG    1       63.206  45.971  31.535  0.00  0.00    -0.036 A 
ATOM     10  C   LIG    1       63.875  44.835  32.020  0.00  0.00    +0.006 A 
ATOM     11  C   LIG    1       64.083  44.650  33.394  0.00  0.00    +0.020 A 
ATOM     12  C   LIG    1       63.588  45.570  34.311  0.00  0.00    +0.041 A 
ATOM     13 CL   LIG    1       63.830  45.326  35.996  0.00  0.00    -0.084 Cl
ATOM     14  C   LIG    1       62.902  46.690  33.865  0.00  0.00    +0.020 A 
ATOM     15  C   LIG    1       62.734  46.896  32.492  0.00  0.00    +0.006 A 
ENDBRANCH   1   9
BRANCH   1  16
ATOM     16  C   LIG    1       63.932  45.512  29.013  0.00  0.00    +0.201 C 
ATOM     17 CL   LIG    1       63.217  43.913  28.540  0.00  0.00    -0.082 Cl
ATOM     18 CL   LIG    1       65.524  45.119  29.793  0.00  0.00    -0.082 Cl
ATOM     19 CL   LIG    1       64.304  46.384  27.481  0.00  0.00    -0.082 Cl
ENDBRANCH   1  16
TORSDOF 3
ENDMDL
MODEL 6
REMARK VINA RESULT:      -8.2      3.322      6.019
REMARK  Name = 
REMARK                            x       y       z     vdW  Elec       q    Type
REMARK                         _______ _______ _______ _____ _____    ______ ____
ROOT
ATOM      1  C   LIG    1       63.158  45.563  32.852  0.00  0.00    +0.100 C 
ENDROOT
BRANCH   1   6
ATOM      2 CL   LIG    1       60.551  48.982  37.183  0.00  0.00    -0.084 Cl
ATOM      3  C   LIG    1       61.294  48.057  35.939  0.00  0.00    +0.041 A 
ATOM      4  C   LIG    1       62.636  48.237  35.641  0.00  0.00    +0.020 A 
ATOM      5  C   LIG    1       63.250  47.478  34.632  0.00  0.00    +0.006 A 
ATOM      6  C   LIG    1       62.534  46.504  33.915  0.00  0.00    -0.036 A 
ATOM      7  C   LIG    1       61.170  46.347  34.249  0.00  0.00    +0.006 A 
ATOM      8  C   LIG    1       60.551  47.117  35.239  0.00  0.00    +0.020 A 
ENDBRANCH   1   6
BRANCH   1   9
ATOM      9  C   LIG    1       63.107  46.168  31.425  0.00  0.00    -0.036 A 
ATOM     10  C   LIG    1       63.951  45.774  30.375  0.00  0.00    +0.006 A 
ATOM     11  C   LIG    1       63.818  46.328  29.093  0.00  0.00    +0.020 A 
ATOM     12  C   LIG    1       62.871  47.316  28.850  0.00  0.00    +0.041 A 
ATOM     13 CL   LIG    1       62.727  48.005  27.281  0.00  0.00    -0.084 Cl
ATOM     14  C   LIG    1       62.038  47.743  29.873  0.00  0.00    +0.020 A 
ATOM     15  C   LIG    1       62.142  47.159  31.139  0.00  0.00    +0.006 A 
ENDBRANCH   1   9
BRANCH   1  16
ATOM     16  C   LIG    1       64.465  44.754  33.229  0.00  0.00    +0.201 C 
ATOM     17 CL   LIG    1       64.502  43.156  32.368  0.00  0.00    -0.082 Cl
ATOM     18 CL   LIG    1       64.478  44.349  35.000  0.00  0.00    -0.082 Cl
ATOM     19 CL   LIG    1       66.030  45.570  32.869  0.00  0.00    -0.082 Cl
ENDBRANCH   1  16
TORSDOF 3
ENDMDL
MODEL 7
REMARK VINA RESULT:      -7.9      3.025      5.818
REMARK  Name = 
REMARK                            x       y       z     vdW  Elec       q    Type
REMARK                         _______ _______ _______ _____ _____    ______ ____
ROOT
ATOM      1  C   LIG    1       62.977  45.626  32.427  0.00  0.00    +0.100 C 
ENDROOT
BRANCH   1   6
ATOM      2 CL   LIG    1       60.815  48.853  37.133  0.00  0.00    -0.084 Cl
ATOM      3  C   LIG    1       61.430  47.983  35.785  0.00  0.00    +0.041 A 
ATOM      4  C   LIG    1       62.739  48.175  35.367  0.00  0.00    +0.020 A 
ATOM      5  C   LIG    1       63.249  47.460  34.271  0.00  0.00    +0.006 A 
ATOM      6  C   LIG    1       62.463  46.519  33.585  0.00  0.00    -0.036 A 
ATOM      7  C   LIG    1       61.137  46.348  34.041  0.00  0.00    +0.006 A 
ATOM      8  C   LIG    1       60.619  47.074  35.119  0.00  0.00    +0.020 A 
ENDBRANCH   1   6
BRANCH   1   9
ATOM      9  C   LIG    1       62.551  46.159  31.035  0.00  0.00    -0.036 A 
ATOM     10  C   LIG    1       62.627  45.410  29.850  0.00  0.00    +0.006 A 
ATOM     11  C   LIG    1       62.178  45.938  28.630  0.00  0.00    +0.020 A 
ATOM     12  C   LIG    1       61.688  47.236  28.564  0.00  0.00    +0.041 A 
ATOM     13 CL   LIG    1       61.157  47.884  27.062  0.00  0.00    -0.084 Cl
ATOM     14  C   LIG    1       61.622  48.010  29.714  0.00  0.00    +0.020 A 
ATOM     15  C   LIG    1       62.029  47.468  30.936  0.00  0.00    +0.006 A 
ENDBRANCH   1   9
BRANCH   1  16
ATOM     16  C   LIG    1       64.432  45.010  32.532  0.00  0.00    +0.201 C 
ATOM     17 CL   LIG    1       65.654  46.114  31.768  0.00  0.00    -0.082 Cl
ATOM     18 CL   LIG    1       64.537  43.455  31.600  0.00  0.00    -0.082 Cl
ATOM     19 CL   LIG    1       65.023  44.661  34.198  0.00  0.00    -0.082 Cl
ENDBRANCH   1  16
TORSDOF 3
ENDMDL
MODEL 8
REMARK VINA RESULT:      -7.9      2.036      3.979
REMARK  Name = 
REMARK                            x       y       z     vdW  Elec       q    Type
REMARK                         _______ _______ _______ _____ _____    ______ ____
ROOT
ATOM      1  C   LIG    1       61.089  46.080  30.847  0.00  0.00    +0.100 C 
ENDROOT
BRANCH   1   6
ATOM      2 CL   LIG    1       55.183  46.134  29.310  0.00  0.00    -0.084 Cl
ATOM      3  C   LIG    1       56.856  46.100  29.702  0.00  0.00    +0.041 A 
ATOM      4  C   LIG    1       57.766  46.828  28.951  0.00  0.00    +0.020 A 
ATOM      5  C   LIG    1       59.132  46.810  29.273  0.00  0.00    +0.006 A 
ATOM      6  C   LIG    1       59.613  46.078  30.372  0.00  0.00    -0.036 A 
ATOM      7  C   LIG    1       58.657  45.352  31.116  0.00  0.00    +0.006 A 
ATOM      8  C   LIG    1       57.298  45.350  30.784  0.00  0.00    +0.020 A 
ENDBRANCH   1   6
BRANCH   1   9
ATOM      9  C   LIG    1       62.075  46.451  29.711  0.00  0.00    -0.036 A 
ATOM     10  C   LIG    1       62.095  47.697  29.063  0.00  0.00    +0.006 A 
ATOM     11  C   LIG    1       63.048  47.984  28.075  0.00  0.00    +0.020 A 
ATOM     12  C   LIG    1       63.968  47.019  27.684  0.00  0.00    +0.041 A 
ATOM     13 CL   LIG    1       65.121  47.371  26.458  0.00  0.00    -0.084 Cl
ATOM     14  C   LIG    1       63.959  45.770  28.288  0.00  0.00    +0.020 A 
ATOM     15  C   LIG    1       63.037  45.500  29.304  0.00  0.00    +0.006 A 
ENDBRANCH   1   9
BRANCH   1  16
ATOM     16  C   LIG    1       61.422  46.651  32.286  0.00  0.00    +0.201 C 
ATOM     17 CL   LIG    1       61.683  48.446  32.221  0.00  0.00    -0.082 Cl
ATOM     18 CL   LIG    1       62.983  45.957  32.903  0.00  0.00    -0.082 Cl
ATOM     19 CL   LIG    1       60.181  46.356  33.559  0.00  0.00    -0.082 Cl
ENDBRANCH   1  16
TORSDOF 3
ENDMDL
MODEL 9
REMARK VINA RESULT:      -6.6      2.714      4.225
REMARK  Name = 
REMARK                            x       y       z     vdW  Elec       q    Type
REMARK                         _______ _______ _______ _____ _____    ______ ____
ROOT
ATOM      1  C   LIG    1       61.810  46.496  33.620  0.00  0.00    +0.100 C 
ENDROOT
BRANCH   1   6
ATOM      2 CL   LIG    1       56.615  45.281  30.658  0.00  0.00    -0.084 Cl
ATOM      3  C   LIG    1       58.057  45.658  31.513  0.00  0.00    +0.041 A 
ATOM      4  C   LIG    1       58.092  45.574  32.897  0.00  0.00    +0.020 A 
ATOM      5  C   LIG    1       59.270  45.873  33.599  0.00  0.00    +0.006 A 
ATOM      6  C   LIG    1       60.447  46.240  32.926  0.00  0.00    -0.036 A 
ATOM      7  C   LIG    1       60.375  46.311  31.517  0.00  0.00    +0.006 A 
ATOM      8  C   LIG    1       59.196  46.035  30.816  0.00  0.00    +0.020 A 
ENDBRANCH   1   6
BRANCH   1   9
ATOM      9  C   LIG    1       63.002  45.929  32.806  0.00  0.00    -0.036 A 
ATOM     10  C   LIG    1       63.800  44.854  33.227  0.00  0.00    +0.006 A 
ATOM     11  C   LIG    1       64.833  44.359  32.419  0.00  0.00    +0.020 A 
ATOM     12  C   LIG    1       65.118  44.957  31.197  0.00  0.00    +0.041 A 
ATOM     13 CL   LIG    1       66.399  44.358  30.219  0.00  0.00    -0.084 Cl
ATOM     14  C   LIG    1       64.363  46.037  30.763  0.00  0.00    +0.020 A 
ATOM     15  C   LIG    1       63.305  46.502  31.551  0.00  0.00    +0.006 A 
ENDBRANCH   1   9
BRANCH   1  16
ATOM     16  C   LIG    1       62.046  47.885  34.342  0.00  0.00    +0.201 C 
ATOM     17 CL   LIG    1       63.708  47.960  35.066  0.00  0.00    -0.082 Cl
ATOM     18 CL   LIG    1       60.901  48.080  35.739  0.00  0.00    -0.082 Cl
ATOM     19 CL   LIG    1       61.865  49.351  33.311  0.00  0.00    -0.082 Cl
ENDBRANCH   1  16
TORSDOF 3
ENDMDL
