MODEL 1
REMARK VINA RESULT:      -8.8      0.000      0.000
REMARK  Name = 
REMARK                            x       y       z     vdW  Elec       q    Type
REMARK                         _______ _______ _______ _____ _____    ______ ____
ROOT
ATOM      1  C   LIG    1       39.164  -0.236  16.000  0.00  0.00    +0.100 C 
ENDROOT
BRANCH   1   6
ATOM      2 CL   LIG    1       44.496  -1.002  18.869  0.00  0.00    -0.084 Cl
ATOM      3  C   LIG    1       43.009  -0.745  18.047  0.00  0.00    +0.041 A 
ATOM      4  C   LIG    1       42.989  -0.590  16.668  0.00  0.00    +0.020 A 
ATOM      5  C   LIG    1       41.775  -0.389  15.992  0.00  0.00    +0.006 A 
ATOM      6  C   LIG    1       40.552  -0.362  16.682  0.00  0.00    -0.036 A 
ATOM      7  C   LIG    1       40.611  -0.526  18.084  0.00  0.00    +0.006 A 
ATOM      8  C   LIG    1       41.820  -0.705  18.763  0.00  0.00    +0.020 A 
ENDBRANCH   1   6
BRANCH   1   9
ATOM      9  C   LIG    1       38.570   1.190  16.128  0.00  0.00    -0.036 A 
ATOM     10  C   LIG    1       39.137   2.333  15.542  0.00  0.00    +0.006 A 
ATOM     11  C   LIG    1       38.521   3.587  15.657  0.00  0.00    +0.020 A 
ATOM     12  C   LIG    1       37.352   3.731  16.396  0.00  0.00    +0.041 A 
ATOM     13 CL   LIG    1       36.612   5.275  16.549  0.00  0.00    -0.084 Cl
ATOM     14  C   LIG    1       36.780   2.625  17.007  0.00  0.00    +0.020 A 
ATOM     15  C   LIG    1       37.372   1.368  16.855  0.00  0.00    +0.006 A 
ENDBRANCH   1   9
BRANCH   1  16
ATOM     16  C   LIG    1       38.925  -0.979  14.623  0.00  0.00    +0.201 C 
ATOM     17 CL   LIG    1       37.160  -0.992  14.198  0.00  0.00    -0.082 Cl
ATOM     18 CL   LIG    1       39.404  -2.726  14.748  0.00  0.00    -0.082 Cl
ATOM     19 CL   LIG    1       39.794  -0.300  13.198  0.00  0.00    -0.082 Cl
ENDBRANCH   1  16
TORSDOF 3
ENDMDL
MODEL 2
REMARK VINA RESULT:      -8.6      0.649      5.707
REMARK  Name = 
REMARK                            x       y       z     vdW  Elec       q    Type
REMARK                         _______ _______ _______ _____ _____    ______ ____
ROOT
ATOM      1  C   LIG    1       39.982   0.265  15.357  0.00  0.00    +0.100 C 
ENDROOT
BRANCH   1   6
ATOM      2 CL   LIG    1       36.070   4.613  17.100  0.00  0.00    -0.084 Cl
ATOM      3  C   LIG    1       37.182   3.381  16.653  0.00  0.00    +0.041 A 
ATOM      4  C   LIG    1       36.974   2.070  17.058  0.00  0.00    +0.020 A 
ATOM      5  C   LIG    1       37.875   1.059  16.688  0.00  0.00    +0.006 A 
ATOM      6  C   LIG    1       38.993   1.337  15.883  0.00  0.00    -0.036 A 
ATOM      7  C   LIG    1       39.170   2.682  15.488  0.00  0.00    +0.006 A 
ATOM      8  C   LIG    1       38.286   3.695  15.873  0.00  0.00    +0.020 A 
ENDBRANCH   1   6
BRANCH   1   9
ATOM      9  C   LIG    1       41.064  -0.105  16.404  0.00  0.00    -0.036 A 
ATOM     10  C   LIG    1       40.816  -0.222  17.781  0.00  0.00    +0.006 A 
ATOM     11  C   LIG    1       41.831  -0.610  18.668  0.00  0.00    +0.020 A 
ATOM     12  C   LIG    1       43.120  -0.843  18.203  0.00  0.00    +0.041 A 
ATOM     13 CL   LIG    1       44.365  -1.298  19.299  0.00  0.00    -0.084 Cl
ATOM     14  C   LIG    1       43.402  -0.713  16.850  0.00  0.00    +0.020 A 
ATOM     15  C   LIG    1       42.379  -0.369  15.961  0.00  0.00    +0.006 A 
ENDBRANCH   1   9
BRANCH   1  16
ATOM     16  C   LIG    1       39.416  -0.922  14.476  0.00  0.00    +0.201 C 
ATOM     17 CL   LIG    1       39.433  -2.479  15.408  0.00  0.00    -0.082 Cl
ATOM     18 CL   LIG    1       40.479  -1.211  13.033  0.00  0.00    -0.082 Cl
ATOM     19 CL   LIG    1       37.738  -0.713  13.854  0.00  0.00    -0.082 Cl
ENDBRANCH   1  16
TORSDOF 3
ENDMDL
MODEL 3
REMARK VINA RESULT:      -8.6      0.430      1.624
REMARK  Name = 
REMARK                            x       y       z     vdW  Elec       q    Type
REMARK                         _______ _______ _______ _____ _____    ______ ____
ROOT
ATOM      1  C   LIG    1       39.132  -0.440  16.109  0.00  0.00    +0.100 C 
ENDROOT
BRANCH   1   6
ATOM      2 CL   LIG    1       44.241  -1.375  19.313  0.00  0.00    -0.084 Cl
ATOM      3  C   LIG    1       42.823  -1.077  18.389  0.00  0.00    +0.041 A 
ATOM      4  C   LIG    1       42.842  -1.226  17.009  0.00  0.00    +0.020 A 
ATOM      5  C   LIG    1       41.684  -0.993  16.251  0.00  0.00    +0.006 A 
ATOM      6  C   LIG    1       40.474  -0.626  16.863  0.00  0.00    -0.036 A 
ATOM      7  C   LIG    1       40.491  -0.488  18.269  0.00  0.00    +0.006 A 
ATOM      8  C   LIG    1       41.649  -0.699  19.025  0.00  0.00    +0.020 A 
ENDBRANCH   1   6
BRANCH   1   9
ATOM      9  C   LIG    1       38.603   1.015  16.195  0.00  0.00    -0.036 A 
ATOM     10  C   LIG    1       37.357   1.367  16.737  0.00  0.00    +0.006 A 
ATOM     11  C   LIG    1       36.960   2.709  16.829  0.00  0.00    +0.020 A 
ATOM     12  C   LIG    1       37.781   3.719  16.342  0.00  0.00    +0.041 A 
ATOM     13 CL   LIG    1       37.281   5.361  16.440  0.00  0.00    -0.084 Cl
ATOM     14  C   LIG    1       39.009   3.402  15.779  0.00  0.00    +0.020 A 
ATOM     15  C   LIG    1       39.421   2.067  15.727  0.00  0.00    +0.006 A 
ENDBRANCH   1   9
BRANCH   1  16
ATOM     16  C   LIG    1       38.928  -1.184  14.727  0.00  0.00    +0.201 C 
ATOM     17 CL   LIG    1       39.406  -2.930  14.860  0.00  0.00    -0.082 Cl
ATOM     18 CL   LIG    1       40.017  -0.480  13.455  0.00  0.00    -0.082 Cl
ATOM     19 CL   LIG    1       37.256  -1.157  14.054  0.00  0.00    -0.082 Cl
ENDBRANCH   1  16
TORSDOF 3
ENDMDL
MODEL 4
REMARK VINA RESULT:      -8.6      3.991      7.952
REMARK  Name = 
REMARK                            x       y       z     vdW  Elec       q    Type
REMARK                         _______ _______ _______ _____ _____    ______ ____
ROOT
ATOM      1  C   LIG    1       45.335  -2.185  16.719  0.00  0.00    +0.100 C 
ENDROOT
BRANCH   1   6
ATOM      2 CL   LIG    1       39.452  -1.628  15.193  0.00  0.00    -0.084 Cl
ATOM      3  C   LIG    1       41.121  -1.774  15.580  0.00  0.00    +0.041 A 
ATOM      4  C   LIG    1       41.963  -0.677  15.471  0.00  0.00    +0.020 A 
ATOM      5  C   LIG    1       43.325  -0.790  15.795  0.00  0.00    +0.006 A 
ATOM      6  C   LIG    1       43.866  -2.002  16.256  0.00  0.00    -0.036 A 
ATOM      7  C   LIG    1       42.978  -3.096  16.357  0.00  0.00    +0.006 A 
ATOM      8  C   LIG    1       41.626  -2.992  16.015  0.00  0.00    +0.020 A 
ENDBRANCH   1   6
BRANCH   1   9
ATOM      9  C   LIG    1       45.441  -2.510  18.231  0.00  0.00    -0.036 A 
ATOM     10  C   LIG    1       46.262  -3.518  18.762  0.00  0.00    +0.006 A 
ATOM     11  C   LIG    1       46.348  -3.727  20.146  0.00  0.00    +0.020 A 
ATOM     12  C   LIG    1       45.582  -2.966  21.021  0.00  0.00    +0.041 A 
ATOM     13 CL   LIG    1       45.677  -3.241  22.716  0.00  0.00    -0.084 Cl
ATOM     14  C   LIG    1       44.743  -1.978  20.526  0.00  0.00    +0.020 A 
ATOM     15  C   LIG    1       44.691  -1.741  19.149  0.00  0.00    +0.006 A 
ENDBRANCH   1   9
BRANCH   1  16
ATOM     16  C   LIG    1       46.345  -2.940  15.762  0.00  0.00    +0.201 C 
ATOM     17 CL   LIG    1       46.078  -2.454  14.034  0.00  0.00    -0.082 Cl
ATOM     18 CL   LIG    1       46.054  -4.732  15.812  0.00  0.00    -0.082 Cl
ATOM     19 CL   LIG    1       48.096  -2.686  16.104  0.00  0.00    -0.082 Cl
ENDBRANCH   1  16
TORSDOF 3
ENDMDL
MODEL 5
REMARK VINA RESULT:      -8.5      0.778      5.566
REMARK  Name = 
REMARK                            x       y       z     vdW  Elec       q    Type
REMARK                         _______ _______ _______ _____ _____    ______ ____
ROOT
ATOM      1  C   LIG    1       40.092   0.028  15.154  0.00  0.00    +0.100 C 
ENDROOT
BRANCH   1   6
ATOM      2 CL   LIG    1       36.150   4.209  17.210  0.00  0.00    -0.084 Cl
ATOM      3  C   LIG    1       37.270   3.020  16.674  0.00  0.00    +0.041 A 
ATOM      4  C   LIG    1       37.058   1.680  16.962  0.00  0.00    +0.020 A 
ATOM      5  C   LIG    1       37.965   0.704  16.519  0.00  0.00    +0.006 A 
ATOM      6  C   LIG    1       39.094   1.051  15.757  0.00  0.00    -0.036 A 
ATOM      7  C   LIG    1       39.275   2.425  15.481  0.00  0.00    +0.006 A 
ATOM      8  C   LIG    1       38.384   3.401  15.939  0.00  0.00    +0.020 A 
ENDBRANCH   1   6
BRANCH   1   9
ATOM      9  C   LIG    1       41.254  -0.306  16.125  0.00  0.00    -0.036 A 
ATOM     10  C   LIG    1       42.576  -0.543  15.715  0.00  0.00    +0.006 A 
ATOM     11  C   LIG    1       43.590  -0.791  16.651  0.00  0.00    +0.020 A 
ATOM     12  C   LIG    1       43.295  -0.852  18.008  0.00  0.00    +0.041 A 
ATOM     13 CL   LIG    1       44.539  -1.176  19.149  0.00  0.00    -0.084 Cl
ATOM     14  C   LIG    1       41.994  -0.645  18.443  0.00  0.00    +0.020 A 
ATOM     15  C   LIG    1       40.992  -0.354  17.512  0.00  0.00    +0.006 A 
ENDBRANCH   1   9
BRANCH   1  16
ATOM     16  C   LIG    1       39.521  -1.174  14.297  0.00  0.00    +0.201 C 
ATOM     17 CL   LIG    1       39.528  -2.712  15.260  0.00  0.00    -0.082 Cl
ATOM     18 CL   LIG    1       40.587  -1.498  12.862  0.00  0.00    -0.082 Cl
ATOM     19 CL   LIG    1       37.846  -0.968  13.666  0.00  0.00    -0.082 Cl
ENDBRANCH   1  16
TORSDOF 3
ENDMDL
MODEL 6
REMARK VINA RESULT:      -8.4      1.200      5.688
REMARK  Name = 
REMARK                            x       y       z     vdW  Elec       q    Type
REMARK                         _______ _______ _______ _____ _____    ______ ____
ROOT
ATOM      1  C   LIG    1       40.097  -0.339  15.745  0.00  0.00    +0.100 C 
ENDROOT
BRANCH   1   6
ATOM      2 CL   LIG    1       38.002   5.348  16.466  0.00  0.00    -0.084 Cl
ATOM      3  C   LIG    1       38.557   3.738  16.235  0.00  0.00    +0.041 A 
ATOM      4  C   LIG    1       38.949   3.307  14.976  0.00  0.00    +0.020 A 
ATOM      5  C   LIG    1       39.412   1.995  14.784  0.00  0.00    +0.006 A 
ATOM      6  C   LIG    1       39.512   1.093  15.856  0.00  0.00    -0.036 A 
ATOM      7  C   LIG    1       39.107   1.569  17.124  0.00  0.00    +0.006 A 
ATOM      8  C   LIG    1       38.626   2.868  17.314  0.00  0.00    +0.020 A 
ENDBRANCH   1   6
BRANCH   1   9
ATOM      9  C   LIG    1       41.392  -0.514  16.579  0.00  0.00    -0.036 A 
ATOM     10  C   LIG    1       41.409  -0.745  17.964  0.00  0.00    +0.006 A 
ATOM     11  C   LIG    1       42.616  -0.944  18.650  0.00  0.00    +0.020 A 
ATOM     12  C   LIG    1       43.829  -0.871  17.974  0.00  0.00    +0.041 A 
ATOM     13 CL   LIG    1       45.306  -1.096  18.825  0.00  0.00    -0.084 Cl
ATOM     14  C   LIG    1       43.846  -0.621  16.610  0.00  0.00    +0.020 A 
ATOM     15  C   LIG    1       42.641  -0.466  15.920  0.00  0.00    +0.006 A 
ENDBRANCH   1   9
BRANCH   1  16
ATOM     16  C   LIG    1       39.099  -1.567  15.725  0.00  0.00    +0.201 C 
ATOM     17 CL   LIG    1       39.936  -3.066  15.137  0.00  0.00    -0.082 Cl
ATOM     18 CL   LIG    1       37.749  -1.274  14.547  0.00  0.00    -0.082 Cl
ATOM     19 CL   LIG    1       38.334  -1.988  17.301  0.00  0.00    -0.082 Cl
ENDBRANCH   1  16
TORSDOF 3
ENDMDL
MODEL 7
REMARK VINA RESULT:      -7.7      3.024      4.778
REMARK  Name = 
REMARK                            x       y       z     vdW  Elec       q    Type
REMARK                         _______ _______ _______ _____ _____    ______ ____
ROOT
ATOM      1  C   LIG    1       41.238  -0.844  16.079  0.00  0.00    +0.100 C 
ENDROOT
BRANCH   1   6
ATOM      2 CL   LIG    1       46.393  -4.104  15.875  0.00  0.00    -0.084 Cl
ATOM      3  C   LIG    1       44.918  -3.223  15.919  0.00  0.00    +0.041 A 
ATOM      4  C   LIG    1       43.909  -3.592  16.797  0.00  0.00    +0.020 A 
ATOM      5  C   LIG    1       42.705  -2.870  16.842  0.00  0.00    +0.006 A 
ATOM      6  C   LIG    1       42.498  -1.747  16.024  0.00  0.00    -0.036 A 
ATOM      7  C   LIG    1       43.549  -1.399  15.146  0.00  0.00    +0.006 A 
ATOM      8  C   LIG    1       44.740  -2.129  15.083  0.00  0.00    +0.020 A 
ENDBRANCH   1   6
BRANCH   1   9
ATOM      9  C   LIG    1       40.211  -1.195  14.972  0.00  0.00    -0.036 A 
ATOM     10  C   LIG    1       39.878  -2.506  14.596  0.00  0.00    +0.006 A 
ATOM     11  C   LIG    1       38.903  -2.753  13.619  0.00  0.00    +0.020 A 
ATOM     12  C   LIG    1       38.277  -1.697  12.968  0.00  0.00    +0.041 A 
ATOM     13 CL   LIG    1       37.097  -2.007  11.756  0.00  0.00    -0.084 Cl
ATOM     14  C   LIG    1       38.601  -0.390  13.300  0.00  0.00    +0.020 A 
ATOM     15  C   LIG    1       39.541  -0.145  14.305  0.00  0.00    +0.006 A 
ENDBRANCH   1   9
BRANCH   1  16
ATOM     16  C   LIG    1       40.644  -0.454  17.494  0.00  0.00    +0.201 C 
ATOM     17 CL   LIG    1       39.280  -1.562  17.946  0.00  0.00    -0.082 Cl
ATOM     18 CL   LIG    1       39.921   1.211  17.447  0.00  0.00    -0.082 Cl
ATOM     19 CL   LIG    1       41.806  -0.479  18.871  0.00  0.00    -0.082 Cl
ENDBRANCH   1  16
TORSDOF 3
ENDMDL
MODEL 8
REMARK VINA RESULT:      -7.3      3.736      7.249
REMARK  Name = 
REMARK                            x       y       z     vdW  Elec       q    Type
REMARK                         _______ _______ _______ _____ _____    ______ ____
ROOT
ATOM      1  C   LIG    1       41.621  -2.122  16.588  0.00  0.00    +0.100 C 
ENDROOT
BRANCH   1   6
ATOM      2 CL   LIG    1       37.929  -1.774  11.741  0.00  0.00    -0.084 Cl
ATOM      3  C   LIG    1       38.997  -1.898  13.081  0.00  0.00    +0.041 A 
ATOM      4  C   LIG    1       40.285  -1.388  12.999  0.00  0.00    +0.020 A 
ATOM      5  C   LIG    1       41.158  -1.479  14.095  0.00  0.00    +0.006 A 
ATOM      6  C   LIG    1       40.750  -2.064  15.306  0.00  0.00    -0.036 A 
ATOM      7  C   LIG    1       39.432  -2.569  15.353  0.00  0.00    +0.006 A 
ATOM      8  C   LIG    1       38.567  -2.499  14.256  0.00  0.00    +0.020 A 
ENDBRANCH   1   6
BRANCH   1   9
ATOM      9  C   LIG    1       43.051  -2.651  16.307  0.00  0.00    -0.036 A 
ATOM     10  C   LIG    1       44.143  -1.831  15.986  0.00  0.00    +0.006 A 
ATOM     11  C   LIG    1       45.423  -2.372  15.793  0.00  0.00    +0.020 A 
ATOM     12  C   LIG    1       45.625  -3.744  15.872  0.00  0.00    +0.041 A 
ATOM     13 CL   LIG    1       47.192  -4.403  15.614  0.00  0.00    -0.084 Cl
ATOM     14  C   LIG    1       44.560  -4.584  16.165  0.00  0.00    +0.020 A 
ATOM     15  C   LIG    1       43.294  -4.040  16.401  0.00  0.00    +0.006 A 
ENDBRANCH   1   9
BRANCH   1  16
ATOM     16  C   LIG    1       41.497  -0.948  17.642  0.00  0.00    +0.201 C 
ATOM     17 CL   LIG    1       39.906  -1.029  18.512  0.00  0.00    -0.082 Cl
ATOM     18 CL   LIG    1       41.510   0.665  16.808  0.00  0.00    -0.082 Cl
ATOM     19 CL   LIG    1       42.775  -0.889  18.911  0.00  0.00    -0.082 Cl
ENDBRANCH   1  16
TORSDOF 3
ENDMDL
MODEL 9
REMARK VINA RESULT:      -7.2      1.694      2.167
REMARK  Name = 
REMARK                            x       y       z     vdW  Elec       q    Type
REMARK                         _______ _______ _______ _____ _____    ______ ____
ROOT
ATOM      1  C   LIG    1       39.321  -1.131  15.204  0.00  0.00    +0.100 C 
ENDROOT
BRANCH   1   6
ATOM      2 CL   LIG    1       45.159  -2.047  16.729  0.00  0.00    -0.084 Cl
ATOM      3  C   LIG    1       43.512  -1.833  16.286  0.00  0.00    +0.041 A 
ATOM      4  C   LIG    1       42.516  -2.552  16.930  0.00  0.00    +0.020 A 
ATOM      5  C   LIG    1       41.168  -2.374  16.577  0.00  0.00    +0.006 A 
ATOM      6  C   LIG    1       40.790  -1.452  15.586  0.00  0.00    -0.036 A 
ATOM      7  C   LIG    1       41.831  -0.736  14.956  0.00  0.00    +0.006 A 
ATOM      8  C   LIG    1       43.176  -0.927  15.289  0.00  0.00    +0.020 A 
ENDBRANCH   1   6
BRANCH   1   9
ATOM      9  C   LIG    1       38.766   0.095  15.973  0.00  0.00    -0.036 A 
ATOM     10  C   LIG    1       39.570   1.086  16.558  0.00  0.00    +0.006 A 
ATOM     11  C   LIG    1       39.000   2.196  17.198  0.00  0.00    +0.020 A 
ATOM     12  C   LIG    1       37.620   2.314  17.304  0.00  0.00    +0.041 A 
ATOM     13 CL   LIG    1       36.928   3.668  18.107  0.00  0.00    -0.084 Cl
ATOM     14  C   LIG    1       36.798   1.339  16.757  0.00  0.00    +0.020 A 
ATOM     15  C   LIG    1       37.367   0.255  16.081  0.00  0.00    +0.006 A 
ENDBRANCH   1   9
BRANCH   1  16
ATOM     16  C   LIG    1       38.883  -1.272  13.689  0.00  0.00    +0.201 C 
ATOM     17 CL   LIG    1       39.015   0.321  12.831  0.00  0.00    -0.082 Cl
ATOM     18 CL   LIG    1       37.133  -1.742  13.571  0.00  0.00    -0.082 Cl
ATOM     19 CL   LIG    1       39.810  -2.465  12.707  0.00  0.00    -0.082 Cl
ENDBRANCH   1  16
TORSDOF 3
ENDMDL
