MODEL 1
REMARK VINA RESULT:      -8.3      0.000      0.000
REMARK  Name = 
REMARK                            x       y       z     vdW  Elec       q    Type
REMARK                         _______ _______ _______ _____ _____    ______ ____
ROOT
ATOM      1  C   LIG    1       19.162  28.433  10.144  0.00  0.00    +0.100 C 
ENDROOT
BRANCH   1   6
ATOM      2 CL   LIG    1       14.366  31.944   8.759  0.00  0.00    -0.084 Cl
ATOM      3  C   LIG    1       15.688  30.921   9.159  0.00  0.00    +0.041 A 
ATOM      4  C   LIG    1       15.933  29.773   8.419  0.00  0.00    +0.020 A 
ATOM      5  C   LIG    1       17.017  28.939   8.736  0.00  0.00    +0.006 A 
ATOM      6  C   LIG    1       17.893  29.251   9.789  0.00  0.00    -0.036 A 
ATOM      7  C   LIG    1       17.614  30.429  10.518  0.00  0.00    +0.006 A 
ATOM      8  C   LIG    1       16.523  31.250  10.218  0.00  0.00    +0.020 A 
ENDBRANCH   1   6
BRANCH   1   9
ATOM      9  C   LIG    1       20.309  28.650   9.123  0.00  0.00    -0.036 A 
ATOM     10  C   LIG    1       20.968  27.609   8.451  0.00  0.00    +0.006 A 
ATOM     11  C   LIG    1       21.965  27.877   7.501  0.00  0.00    +0.020 A 
ATOM     12  C   LIG    1       22.352  29.186   7.241  0.00  0.00    +0.041 A 
ATOM     13 CL   LIG    1       23.589  29.508   6.090  0.00  0.00    -0.084 Cl
ATOM     14  C   LIG    1       21.736  30.236   7.907  0.00  0.00    +0.020 A 
ATOM     15  C   LIG    1       20.712  29.969   8.820  0.00  0.00    +0.006 A 
ENDBRANCH   1   9
BRANCH   1  16
ATOM     16  C   LIG    1       19.585  28.310  11.665  0.00  0.00    +0.201 C 
ATOM     17 CL   LIG    1       20.762  26.948  11.897  0.00  0.00    -0.082 Cl
ATOM     18 CL   LIG    1       18.150  27.889  12.695  0.00  0.00    -0.082 Cl
ATOM     19 CL   LIG    1       20.341  29.773  12.395  0.00  0.00    -0.082 Cl
ENDBRANCH   1  16
TORSDOF 3
ENDMDL
MODEL 2
REMARK VINA RESULT:      -8.2      0.484      1.536
REMARK  Name = 
REMARK                            x       y       z     vdW  Elec       q    Type
REMARK                         _______ _______ _______ _____ _____    ______ ____
ROOT
ATOM      1  C   LIG    1       19.066  28.561  10.408  0.00  0.00    +0.100 C 
ENDROOT
BRANCH   1   6
ATOM      2 CL   LIG    1       14.353  32.067   8.754  0.00  0.00    -0.084 Cl
ATOM      3  C   LIG    1       15.709  31.113   9.206  0.00  0.00    +0.041 A 
ATOM      4  C   LIG    1       16.571  31.549  10.202  0.00  0.00    +0.020 A 
ATOM      5  C   LIG    1       17.675  30.769  10.580  0.00  0.00    +0.006 A 
ATOM      6  C   LIG    1       17.925  29.522   9.984  0.00  0.00    -0.036 A 
ATOM      7  C   LIG    1       17.024  29.109   8.977  0.00  0.00    +0.006 A 
ATOM      8  C   LIG    1       15.936  29.894   8.582  0.00  0.00    +0.020 A 
ENDBRANCH   1   6
BRANCH   1   9
ATOM      9  C   LIG    1       20.239  28.553   9.394  0.00  0.00    -0.036 A 
ATOM     10  C   LIG    1       20.892  27.390   8.957  0.00  0.00    +0.006 A 
ATOM     11  C   LIG    1       21.914  27.450   7.999  0.00  0.00    +0.020 A 
ATOM     12  C   LIG    1       22.334  28.675   7.495  0.00  0.00    +0.041 A 
ATOM     13 CL   LIG    1       23.602  28.744   6.335  0.00  0.00    -0.084 Cl
ATOM     14  C   LIG    1       21.724  29.845   7.924  0.00  0.00    +0.020 A 
ATOM     15  C   LIG    1       20.675  29.780   8.846  0.00  0.00    +0.006 A 
ENDBRANCH   1   9
BRANCH   1  16
ATOM     16  C   LIG    1       19.457  28.475  11.939  0.00  0.00    +0.201 C 
ATOM     17 CL   LIG    1       20.770  29.664  12.336  0.00  0.00    -0.082 Cl
ATOM     18 CL   LIG    1       20.148  26.842  12.333  0.00  0.00    -0.082 Cl
ATOM     19 CL   LIG    1       18.121  28.773  13.112  0.00  0.00    -0.082 Cl
ENDBRANCH   1  16
TORSDOF 3
ENDMDL
MODEL 3
REMARK VINA RESULT:      -8.2      0.988      5.463
REMARK  Name = 
REMARK                            x       y       z     vdW  Elec       q    Type
REMARK                         _______ _______ _______ _____ _____    ______ ____
ROOT
ATOM      1  C   LIG    1       19.354  29.701  10.814  0.00  0.00    +0.100 C 
ENDROOT
BRANCH   1   6
ATOM      2 CL   LIG    1       23.029  27.886   6.293  0.00  0.00    -0.084 Cl
ATOM      3  C   LIG    1       21.959  28.379   7.544  0.00  0.00    +0.041 A 
ATOM      4  C   LIG    1       21.258  27.433   8.278  0.00  0.00    +0.020 A 
ATOM      5  C   LIG    1       20.389  27.831   9.307  0.00  0.00    +0.006 A 
ATOM      6  C   LIG    1       20.221  29.186   9.636  0.00  0.00    -0.036 A 
ATOM      7  C   LIG    1       20.953  30.120   8.869  0.00  0.00    +0.006 A 
ATOM      8  C   LIG    1       21.803  29.728   7.830  0.00  0.00    +0.020 A 
ENDBRANCH   1   6
BRANCH   1   9
ATOM      9  C   LIG    1       18.018  30.325  10.335  0.00  0.00    -0.036 A 
ATOM     10  C   LIG    1       17.386  31.407  10.967  0.00  0.00    +0.006 A 
ATOM     11  C   LIG    1       16.202  31.956  10.451  0.00  0.00    +0.020 A 
ATOM     12  C   LIG    1       15.606  31.405   9.324  0.00  0.00    +0.041 A 
ATOM     13 CL   LIG    1       14.144  32.070   8.708  0.00  0.00    -0.084 Cl
ATOM     14  C   LIG    1       16.194  30.320   8.690  0.00  0.00    +0.020 A 
ATOM     15  C   LIG    1       17.397  29.802   9.179  0.00  0.00    +0.006 A 
ENDBRANCH   1   9
BRANCH   1  16
ATOM     16  C   LIG    1       19.296  28.845  12.144  0.00  0.00    +0.201 C 
ATOM     17 CL   LIG    1       18.155  27.445  11.959  0.00  0.00    -0.082 Cl
ATOM     18 CL   LIG    1       18.628  29.835  13.513  0.00  0.00    -0.082 Cl
ATOM     19 CL   LIG    1       20.863  28.161  12.712  0.00  0.00    -0.082 Cl
ENDBRANCH   1  16
TORSDOF 3
ENDMDL
MODEL 4
REMARK VINA RESULT:      -8.0      0.342      1.226
REMARK  Name = 
REMARK                            x       y       z     vdW  Elec       q    Type
REMARK                         _______ _______ _______ _____ _____    ______ ____
ROOT
ATOM      1  C   LIG    1       19.116  28.131  10.247  0.00  0.00    +0.100 C 
ENDROOT
BRANCH   1   6
ATOM      2 CL   LIG    1       14.517  31.858   8.763  0.00  0.00    -0.084 Cl
ATOM      3  C   LIG    1       15.782  30.775   9.187  0.00  0.00    +0.041 A 
ATOM      4  C   LIG    1       16.025  29.647   8.417  0.00  0.00    +0.020 A 
ATOM      5  C   LIG    1       17.062  28.764   8.756  0.00  0.00    +0.006 A 
ATOM      6  C   LIG    1       17.895  29.006   9.861  0.00  0.00    -0.036 A 
ATOM      7  C   LIG    1       17.620  30.166  10.619  0.00  0.00    +0.006 A 
ATOM      8  C   LIG    1       16.573  31.036  10.298  0.00  0.00    +0.020 A 
ENDBRANCH   1   6
BRANCH   1   9
ATOM      9  C   LIG    1       20.309  28.321   9.275  0.00  0.00    -0.036 A 
ATOM     10  C   LIG    1       20.995  27.263   8.657  0.00  0.00    +0.006 A 
ATOM     11  C   LIG    1       22.034  27.507   7.748  0.00  0.00    +0.020 A 
ATOM     12  C   LIG    1       22.438  28.809   7.475  0.00  0.00    +0.041 A 
ATOM     13 CL   LIG    1       23.727  29.101   6.375  0.00  0.00    -0.084 Cl
ATOM     14  C   LIG    1       21.795  29.875   8.087  0.00  0.00    +0.020 A 
ATOM     15  C   LIG    1       20.730  29.632   8.959  0.00  0.00    +0.006 A 
ENDBRANCH   1   9
BRANCH   1  16
ATOM     16  C   LIG    1       19.475  27.962  11.779  0.00  0.00    +0.201 C 
ATOM     17 CL   LIG    1       20.120  29.513  12.464  0.00  0.00    -0.082 Cl
ATOM     18 CL   LIG    1       20.808  26.747  11.993  0.00  0.00    -0.082 Cl
ATOM     19 CL   LIG    1       18.123  27.447  12.854  0.00  0.00    -0.082 Cl
ENDBRANCH   1  16
TORSDOF 3
ENDMDL
MODEL 5
REMARK VINA RESULT:      -7.7      2.078      4.175
REMARK  Name = 
REMARK                            x       y       z     vdW  Elec       q    Type
REMARK                         _______ _______ _______ _____ _____    ______ ____
ROOT
ATOM      1  C   LIG    1       18.328  30.115   9.860  0.00  0.00    +0.100 C 
ENDROOT
BRANCH   1   6
ATOM      2 CL   LIG    1       18.903  29.094  15.849  0.00  0.00    -0.084 Cl
ATOM      3  C   LIG    1       18.701  29.403  14.170  0.00  0.00    +0.041 A 
ATOM      4  C   LIG    1       18.657  30.707  13.699  0.00  0.00    +0.020 A 
ATOM      5  C   LIG    1       18.502  30.964  12.328  0.00  0.00    +0.006 A 
ATOM      6  C   LIG    1       18.410  29.916  11.396  0.00  0.00    -0.036 A 
ATOM      7  C   LIG    1       18.461  28.602  11.912  0.00  0.00    +0.006 A 
ATOM      8  C   LIG    1       18.595  28.343  13.280  0.00  0.00    +0.020 A 
ENDBRANCH   1   6
BRANCH   1   9
ATOM      9  C   LIG    1       19.560  29.528   9.123  0.00  0.00    -0.036 A 
ATOM     10  C   LIG    1       19.745  28.160   8.870  0.00  0.00    +0.006 A 
ATOM     11  C   LIG    1       20.859  27.701   8.153  0.00  0.00    +0.020 A 
ATOM     12  C   LIG    1       21.831  28.594   7.716  0.00  0.00    +0.041 A 
ATOM     13 CL   LIG    1       23.205  28.022   6.855  0.00  0.00    -0.084 Cl
ATOM     14  C   LIG    1       21.688  29.950   7.971  0.00  0.00    +0.020 A 
ATOM     15  C   LIG    1       20.555  30.411   8.647  0.00  0.00    +0.006 A 
ENDBRANCH   1   9
BRANCH   1  16
ATOM     16  C   LIG    1       16.927  29.939   9.145  0.00  0.00    +0.201 C 
ATOM     17 CL   LIG    1       16.939  30.720   7.507  0.00  0.00    -0.082 Cl
ATOM     18 CL   LIG    1       15.622  30.790  10.077  0.00  0.00    -0.082 Cl
ATOM     19 CL   LIG    1       16.373  28.242   8.902  0.00  0.00    -0.082 Cl
ENDBRANCH   1  16
TORSDOF 3
ENDMDL
MODEL 6
REMARK VINA RESULT:      -7.3      2.011      5.938
REMARK  Name = 
REMARK                            x       y       z     vdW  Elec       q    Type
REMARK                         _______ _______ _______ _____ _____    ______ ____
ROOT
ATOM      1  C   LIG    1       18.703  28.694   9.730  0.00  0.00    +0.100 C 
ENDROOT
BRANCH   1   6
ATOM      2 CL   LIG    1       23.733  29.373   6.342  0.00  0.00    -0.084 Cl
ATOM      3  C   LIG    1       22.339  29.199   7.332  0.00  0.00    +0.041 A 
ATOM      4  C   LIG    1       21.736  30.315   7.893  0.00  0.00    +0.020 A 
ATOM      5  C   LIG    1       20.592  30.178   8.695  0.00  0.00    +0.006 A 
ATOM      6  C   LIG    1       20.015  28.920   8.934  0.00  0.00    -0.036 A 
ATOM      7  C   LIG    1       20.655  27.807   8.343  0.00  0.00    +0.006 A 
ATOM      8  C   LIG    1       21.807  27.938   7.561  0.00  0.00    +0.020 A 
ENDBRANCH   1   6
BRANCH   1   9
ATOM      9  C   LIG    1       18.923  28.771  11.263  0.00  0.00    -0.036 A 
ATOM     10  C   LIG    1       19.601  29.818  11.908  0.00  0.00    +0.006 A 
ATOM     11  C   LIG    1       19.721  29.850  13.305  0.00  0.00    +0.020 A 
ATOM     12  C   LIG    1       19.206  28.817  14.078  0.00  0.00    +0.041 A 
ATOM     13 CL   LIG    1       19.375  28.853  15.789  0.00  0.00    -0.084 Cl
ATOM     14  C   LIG    1       18.551  27.756  13.469  0.00  0.00    +0.020 A 
ATOM     15  C   LIG    1       18.394  27.747  12.080  0.00  0.00    +0.006 A 
ENDBRANCH   1   9
BRANCH   1  16
ATOM     16  C   LIG    1       17.361  29.325   9.177  0.00  0.00    +0.201 C 
ATOM     17 CL   LIG    1       16.535  30.308  10.460  0.00  0.00    -0.082 Cl
ATOM     18 CL   LIG    1       16.178  28.021   8.731  0.00  0.00    -0.082 Cl
ATOM     19 CL   LIG    1       17.526  30.393   7.736  0.00  0.00    -0.082 Cl
ENDBRANCH   1  16
TORSDOF 3
ENDMDL
MODEL 7
REMARK VINA RESULT:      -7.3      2.249      4.506
REMARK  Name = 
REMARK                            x       y       z     vdW  Elec       q    Type
REMARK                         _______ _______ _______ _____ _____    ______ ____
ROOT
ATOM      1  C   LIG    1       19.616  29.569  10.447  0.00  0.00    +0.100 C 
ENDROOT
BRANCH   1   6
ATOM      2 CL   LIG    1       21.887  29.313  16.106  0.00  0.00    -0.084 Cl
ATOM      3  C   LIG    1       21.289  29.376  14.495  0.00  0.00    +0.041 A 
ATOM      4  C   LIG    1       21.345  28.252  13.684  0.00  0.00    +0.020 A 
ATOM      5  C   LIG    1       20.850  28.297  12.371  0.00  0.00    +0.006 A 
ATOM      6  C   LIG    1       20.267  29.465  11.851  0.00  0.00    -0.036 A 
ATOM      7  C   LIG    1       20.225  30.588  12.707  0.00  0.00    +0.006 A 
ATOM      8  C   LIG    1       20.736  30.552  14.008  0.00  0.00    +0.020 A 
ENDBRANCH   1   6
BRANCH   1   9
ATOM      9  C   LIG    1       20.577  29.119   9.316  0.00  0.00    -0.036 A 
ATOM     10  C   LIG    1       20.859  27.778   9.011  0.00  0.00    +0.006 A 
ATOM     11  C   LIG    1       21.701  27.441   7.942  0.00  0.00    +0.020 A 
ATOM     12  C   LIG    1       22.311  28.435   7.187  0.00  0.00    +0.041 A 
ATOM     13 CL   LIG    1       23.358  28.014   5.889  0.00  0.00    -0.084 Cl
ATOM     14  C   LIG    1       22.072  29.770   7.478  0.00  0.00    +0.020 A 
ATOM     15  C   LIG    1       21.198  30.105   8.516  0.00  0.00    +0.006 A 
ENDBRANCH   1   9
BRANCH   1  16
ATOM     16  C   LIG    1       18.095  29.163  10.283  0.00  0.00    +0.201 C 
ATOM     17 CL   LIG    1       17.008  30.488  10.878  0.00  0.00    -0.082 Cl
ATOM     18 CL   LIG    1       17.705  27.718  11.312  0.00  0.00    -0.082 Cl
ATOM     19 CL   LIG    1       17.559  28.769   8.608  0.00  0.00    -0.082 Cl
ENDBRANCH   1  16
TORSDOF 3
ENDMDL
MODEL 8
REMARK VINA RESULT:      -7.1      2.239      4.673
REMARK  Name = 
REMARK                            x       y       z     vdW  Elec       q    Type
REMARK                         _______ _______ _______ _____ _____    ______ ____
ROOT
ATOM      1  C   LIG    1       19.204  30.123  10.528  0.00  0.00    +0.100 C 
ENDROOT
BRANCH   1   6
ATOM      2 CL   LIG    1       13.832  32.314   8.634  0.00  0.00    -0.084 Cl
ATOM      3  C   LIG    1       15.328  31.655   9.165  0.00  0.00    +0.041 A 
ATOM      4  C   LIG    1       16.052  30.809   8.338  0.00  0.00    +0.020 A 
ATOM      5  C   LIG    1       17.279  30.275   8.764  0.00  0.00    +0.006 A 
ATOM      6  C   LIG    1       17.817  30.596  10.021  0.00  0.00    -0.036 A 
ATOM      7  C   LIG    1       17.053  31.463  10.835  0.00  0.00    +0.006 A 
ATOM      8  C   LIG    1       15.821  31.980  10.422  0.00  0.00    +0.020 A 
ENDBRANCH   1   6
BRANCH   1   9
ATOM      9  C   LIG    1       19.188  29.751  12.033  0.00  0.00    -0.036 A 
ATOM     10  C   LIG    1       18.470  28.669  12.567  0.00  0.00    +0.006 A 
ATOM     11  C   LIG    1       18.538  28.359  13.933  0.00  0.00    +0.020 A 
ATOM     12  C   LIG    1       19.287  29.149  14.797  0.00  0.00    +0.041 A 
ATOM     13 CL   LIG    1       19.351  28.775  16.474  0.00  0.00    -0.084 Cl
ATOM     14  C   LIG    1       19.989  30.240  14.303  0.00  0.00    +0.020 A 
ATOM     15  C   LIG    1       19.955  30.522  12.935  0.00  0.00    +0.006 A 
ENDBRANCH   1   9
BRANCH   1  16
ATOM     16  C   LIG    1       20.085  29.207   9.584  0.00  0.00    +0.201 C 
ATOM     17 CL   LIG    1       21.307  28.275  10.550  0.00  0.00    -0.082 Cl
ATOM     18 CL   LIG    1       21.052  30.221   8.430  0.00  0.00    -0.082 Cl
ATOM     19 CL   LIG    1       19.185  28.001   8.592  0.00  0.00    -0.082 Cl
ENDBRANCH   1  16
TORSDOF 3
ENDMDL
MODEL 9
REMARK VINA RESULT:      -7.0      1.980      5.420
REMARK  Name = 
REMARK                            x       y       z     vdW  Elec       q    Type
REMARK                         _______ _______ _______ _____ _____    ______ ____
ROOT
ATOM      1  C   LIG    1       18.981  28.468  10.152  0.00  0.00    +0.100 C 
ENDROOT
BRANCH   1   6
ATOM      2 CL   LIG    1       19.410  28.826  16.229  0.00  0.00    -0.084 Cl
ATOM      3  C   LIG    1       19.305  28.682  14.519  0.00  0.00    +0.041 A 
ATOM      4  C   LIG    1       18.456  27.746  13.947  0.00  0.00    +0.020 A 
ATOM      5  C   LIG    1       18.361  27.631  12.551  0.00  0.00    +0.006 A 
ATOM      6  C   LIG    1       19.098  28.469  11.698  0.00  0.00    -0.036 A 
ATOM      7  C   LIG    1       19.948  29.413  12.317  0.00  0.00    +0.006 A 
ATOM      8  C   LIG    1       20.062  29.515  13.707  0.00  0.00    +0.020 A 
ENDBRANCH   1   6
BRANCH   1   9
ATOM      9  C   LIG    1       17.837  29.384   9.645  0.00  0.00    -0.036 A 
ATOM     10  C   LIG    1       16.997  29.069   8.566  0.00  0.00    +0.006 A 
ATOM     11  C   LIG    1       15.949  29.922   8.191  0.00  0.00    +0.020 A 
ATOM     12  C   LIG    1       15.750  31.125   8.857  0.00  0.00    +0.041 A 
ATOM     13 CL   LIG    1       14.476  32.176   8.379  0.00  0.00    -0.084 Cl
ATOM     14  C   LIG    1       16.578  31.477   9.913  0.00  0.00    +0.020 A 
ATOM     15  C   LIG    1       17.595  30.605  10.314  0.00  0.00    +0.006 A 
ENDBRANCH   1   9
BRANCH   1  16
ATOM     16  C   LIG    1       20.308  28.453   9.289  0.00  0.00    +0.201 C 
ATOM     17 CL   LIG    1       21.578  27.425  10.080  0.00  0.00    -0.082 Cl
ATOM     18 CL   LIG    1       21.026  30.119   9.193  0.00  0.00    -0.082 Cl
ATOM     19 CL   LIG    1       20.144  27.858   7.597  0.00  0.00    -0.082 Cl
ENDBRANCH   1  16
TORSDOF 3
ENDMDL
