MODEL 1
REMARK VINA RESULT:      -8.7      0.000      0.000
REMARK  Name = 
REMARK                            x       y       z     vdW  Elec       q    Type
REMARK                         _______ _______ _______ _____ _____    ______ ____
ROOT
ATOM      1  C   LIG    1       31.076  -0.641  26.165  0.00  0.00    +0.100 C 
ENDROOT
BRANCH   1   6
ATOM      2 CL   LIG    1       33.954  -3.930  21.905  0.00  0.00    -0.084 Cl
ATOM      3  C   LIG    1       33.125  -3.042  23.121  0.00  0.00    +0.041 A 
ATOM      4  C   LIG    1       33.397  -3.270  24.462  0.00  0.00    +0.020 A 
ATOM      5  C   LIG    1       32.728  -2.541  25.458  0.00  0.00    +0.006 A 
ATOM      6  C   LIG    1       31.788  -1.551  25.130  0.00  0.00    -0.036 A 
ATOM      7  C   LIG    1       31.540  -1.344  23.754  0.00  0.00    +0.006 A 
ATOM      8  C   LIG    1       32.188  -2.083  22.760  0.00  0.00    +0.020 A 
ENDBRANCH   1   6
BRANCH   1   9
ATOM      9  C   LIG    1       29.776  -1.280  26.717  0.00  0.00    -0.036 A 
ATOM     10  C   LIG    1       28.484  -0.823  26.411  0.00  0.00    +0.006 A 
ATOM     11  C   LIG    1       27.348  -1.479  26.907  0.00  0.00    +0.020 A 
ATOM     12  C   LIG    1       27.481  -2.574  27.751  0.00  0.00    +0.041 A 
ATOM     13 CL   LIG    1       26.084  -3.362  28.371  0.00  0.00    -0.084 Cl
ATOM     14  C   LIG    1       28.745  -3.037  28.090  0.00  0.00    +0.020 A 
ATOM     15  C   LIG    1       29.876  -2.409  27.561  0.00  0.00    +0.006 A 
ENDBRANCH   1   9
BRANCH   1  16
ATOM     16  C   LIG    1       31.959   0.168  27.199  0.00  0.00    +0.201 C 
ATOM     17 CL   LIG    1       30.928   1.284  28.191  0.00  0.00    -0.082 Cl
ATOM     18 CL   LIG    1       33.138   1.243  26.331  0.00  0.00    -0.082 Cl
ATOM     19 CL   LIG    1       32.915  -0.821  28.363  0.00  0.00    -0.082 Cl
ENDBRANCH   1  16
TORSDOF 3
ENDMDL
MODEL 2
REMARK VINA RESULT:      -8.6      0.143      1.608
REMARK  Name = 
REMARK                            x       y       z     vdW  Elec       q    Type
REMARK                         _______ _______ _______ _____ _____    ______ ____
ROOT
ATOM      1  C   LIG    1       30.943  -0.727  26.121  0.00  0.00    +0.100 C 
ENDROOT
BRANCH   1   6
ATOM      2 CL   LIG    1       34.048  -3.876  21.916  0.00  0.00    -0.084 Cl
ATOM      3  C   LIG    1       33.155  -3.029  23.115  0.00  0.00    +0.041 A 
ATOM      4  C   LIG    1       33.373  -3.284  24.461  0.00  0.00    +0.020 A 
ATOM      5  C   LIG    1       32.652  -2.587  25.444  0.00  0.00    +0.006 A 
ATOM      6  C   LIG    1       31.712  -1.603  25.098  0.00  0.00    -0.036 A 
ATOM      7  C   LIG    1       31.519  -1.368  23.718  0.00  0.00    +0.006 A 
ATOM      8  C   LIG    1       32.220  -2.075  22.736  0.00  0.00    +0.020 A 
ENDBRANCH   1   6
BRANCH   1   9
ATOM      9  C   LIG    1       29.713  -1.458  26.717  0.00  0.00    -0.036 A 
ATOM     10  C   LIG    1       29.797  -2.552  27.593  0.00  0.00    +0.006 A 
ATOM     11  C   LIG    1       28.643  -3.136  28.135  0.00  0.00    +0.020 A 
ATOM     12  C   LIG    1       27.385  -2.669  27.777  0.00  0.00    +0.041 A 
ATOM     13 CL   LIG    1       25.973  -3.403  28.429  0.00  0.00    -0.084 Cl
ATOM     14  C   LIG    1       27.267  -1.605  26.895  0.00  0.00    +0.020 A 
ATOM     15  C   LIG    1       28.419  -0.995  26.390  0.00  0.00    +0.006 A 
ENDBRANCH   1   9
BRANCH   1  16
ATOM     16  C   LIG    1       31.772   0.184  27.115  0.00  0.00    +0.201 C 
ATOM     17 CL   LIG    1       33.008   1.161  26.214  0.00  0.00    -0.082 Cl
ATOM     18 CL   LIG    1       32.720  -0.838  28.279  0.00  0.00    -0.082 Cl
ATOM     19 CL   LIG    1       30.816   1.348  28.103  0.00  0.00    -0.082 Cl
ENDBRANCH   1  16
TORSDOF 3
ENDMDL
MODEL 3
REMARK VINA RESULT:      -8.0      1.225      5.620
REMARK  Name = 
REMARK                            x       y       z     vdW  Elec       q    Type
REMARK                         _______ _______ _______ _____ _____    ______ ____
ROOT
ATOM      1  C   LIG    1       31.111  -1.285  27.219  0.00  0.00    +0.100 C 
ENDROOT
BRANCH   1   6
ATOM      2 CL   LIG    1       25.073  -0.591  26.666  0.00  0.00    -0.084 Cl
ATOM      3  C   LIG    1       26.767  -0.805  26.863  0.00  0.00    +0.041 A 
ATOM      4  C   LIG    1       27.301  -2.079  26.998  0.00  0.00    +0.020 A 
ATOM      5  C   LIG    1       28.685  -2.259  27.151  0.00  0.00    +0.006 A 
ATOM      6  C   LIG    1       29.567  -1.165  27.148  0.00  0.00    -0.036 A 
ATOM      7  C   LIG    1       28.987   0.116  27.005  0.00  0.00    +0.006 A 
ATOM      8  C   LIG    1       27.607   0.300  26.875  0.00  0.00    +0.020 A 
ENDBRANCH   1   6
BRANCH   1   9
ATOM      9  C   LIG    1       31.726  -1.789  25.889  0.00  0.00    -0.036 A 
ATOM     10  C   LIG    1       32.576  -2.903  25.788  0.00  0.00    +0.006 A 
ATOM     11  C   LIG    1       33.058  -3.335  24.544  0.00  0.00    +0.020 A 
ATOM     12  C   LIG    1       32.738  -2.638  23.386  0.00  0.00    +0.041 A 
ATOM     13 CL   LIG    1       33.349  -3.162  21.866  0.00  0.00    -0.084 Cl
ATOM     14  C   LIG    1       31.920  -1.520  23.455  0.00  0.00    +0.020 A 
ATOM     15  C   LIG    1       31.404  -1.116  24.690  0.00  0.00    +0.006 A 
ENDBRANCH   1   9
BRANCH   1  16
ATOM     16  C   LIG    1       31.924  -0.170  27.995  0.00  0.00    +0.201 C 
ATOM     17 CL   LIG    1       33.559  -0.788  28.482  0.00  0.00    -0.082 Cl
ATOM     18 CL   LIG    1       31.090   0.267  29.547  0.00  0.00    -0.082 Cl
ATOM     19 CL   LIG    1       32.201   1.370  27.101  0.00  0.00    -0.082 Cl
ENDBRANCH   1  16
TORSDOF 3
ENDMDL
MODEL 4
REMARK VINA RESULT:      -7.7      2.289      4.232
REMARK  Name = 
REMARK                            x       y       z     vdW  Elec       q    Type
REMARK                         _______ _______ _______ _____ _____    ______ ____
ROOT
ATOM      1  C   LIG    1       29.965  -1.088  27.228  0.00  0.00    +0.100 C 
ENDROOT
BRANCH   1   6
ATOM      2 CL   LIG    1       33.439  -3.083  22.624  0.00  0.00    -0.084 Cl
ATOM      3  C   LIG    1       32.484  -2.482  23.921  0.00  0.00    +0.041 A 
ATOM      4  C   LIG    1       31.702  -1.349  23.747  0.00  0.00    +0.020 A 
ATOM      5  C   LIG    1       30.914  -0.860  24.801  0.00  0.00    +0.006 A 
ATOM      6  C   LIG    1       30.876  -1.510  26.046  0.00  0.00    -0.036 A 
ATOM      7  C   LIG    1       31.683  -2.662  26.184  0.00  0.00    +0.006 A 
ATOM      8  C   LIG    1       32.485  -3.140  25.143  0.00  0.00    +0.020 A 
ENDBRANCH   1   6
BRANCH   1   9
ATOM      9  C   LIG    1       30.742  -0.316  28.326  0.00  0.00    -0.036 A 
ATOM     10  C   LIG    1       30.928   1.075  28.325  0.00  0.00    +0.006 A 
ATOM     11  C   LIG    1       31.600   1.716  29.376  0.00  0.00    +0.020 A 
ATOM     12  C   LIG    1       32.136   0.975  30.423  0.00  0.00    +0.041 A 
ATOM     13 CL   LIG    1       32.976   1.766  31.699  0.00  0.00    -0.084 Cl
ATOM     14  C   LIG    1       31.989  -0.404  30.440  0.00  0.00    +0.020 A 
ATOM     15  C   LIG    1       31.282  -1.037  29.414  0.00  0.00    +0.006 A 
ENDBRANCH   1   9
BRANCH   1  16
ATOM     16  C   LIG    1       28.499  -0.582  26.913  0.00  0.00    +0.201 C 
ATOM     17 CL   LIG    1       27.539  -0.399  28.442  0.00  0.00    -0.082 Cl
ATOM     18 CL   LIG    1       27.599  -1.808  25.921  0.00  0.00    -0.082 Cl
ATOM     19 CL   LIG    1       28.377   0.988  26.037  0.00  0.00    -0.082 Cl
ENDBRANCH   1  16
TORSDOF 3
ENDMDL
MODEL 5
REMARK VINA RESULT:      -7.5      2.219      5.713
REMARK  Name = 
REMARK                            x       y       z     vdW  Elec       q    Type
REMARK                         _______ _______ _______ _____ _____    ______ ____
ROOT
ATOM      1  C   LIG    1       30.420  -0.603  26.903  0.00  0.00    +0.100 C 
ENDROOT
BRANCH   1   6
ATOM      2 CL   LIG    1       25.533  -3.984  28.290  0.00  0.00    -0.084 Cl
ATOM      3  C   LIG    1       26.897  -3.033  27.855  0.00  0.00    +0.041 A 
ATOM      4  C   LIG    1       26.723  -1.779  27.289  0.00  0.00    +0.020 A 
ATOM      5  C   LIG    1       27.835  -0.995  26.940  0.00  0.00    +0.006 A 
ATOM      6  C   LIG    1       29.145  -1.444  27.174  0.00  0.00    -0.036 A 
ATOM      7  C   LIG    1       29.283  -2.724  27.755  0.00  0.00    +0.006 A 
ATOM      8  C   LIG    1       28.178  -3.516  28.083  0.00  0.00    +0.020 A 
ENDBRANCH   1   6
BRANCH   1   9
ATOM      9  C   LIG    1       31.034  -0.026  28.204  0.00  0.00    -0.036 A 
ATOM     10  C   LIG    1       31.483  -0.812  29.277  0.00  0.00    +0.006 A 
ATOM     11  C   LIG    1       32.074  -0.226  30.406  0.00  0.00    +0.020 A 
ATOM     12  C   LIG    1       32.187   1.156  30.503  0.00  0.00    +0.041 A 
ATOM     13 CL   LIG    1       32.895   1.868  31.899  0.00  0.00    -0.084 Cl
ATOM     14  C   LIG    1       31.732   1.961  29.469  0.00  0.00    +0.020 A 
ATOM     15  C   LIG    1       31.183   1.374  28.326  0.00  0.00    +0.006 A 
ENDBRANCH   1   9
BRANCH   1  16
ATOM     16  C   LIG    1       31.442  -1.106  25.803  0.00  0.00    +0.201 C 
ATOM     17 CL   LIG    1       32.870   0.008  25.694  0.00  0.00    -0.082 Cl
ATOM     18 CL   LIG    1       30.676  -1.074  24.157  0.00  0.00    -0.082 Cl
ATOM     19 CL   LIG    1       32.101  -2.767  26.039  0.00  0.00    -0.082 Cl
ENDBRANCH   1  16
TORSDOF 3
ENDMDL
MODEL 6
REMARK VINA RESULT:      -7.3      2.067      5.701
REMARK  Name = 
REMARK                            x       y       z     vdW  Elec       q    Type
REMARK                         _______ _______ _______ _____ _____    ______ ____
ROOT
ATOM      1  C   LIG    1       30.965  -0.487  26.560  0.00  0.00    +0.100 C 
ENDROOT
BRANCH   1   6
ATOM      2 CL   LIG    1       35.238   1.684  30.339  0.00  0.00    -0.084 Cl
ATOM      3  C   LIG    1       34.013   1.113  29.277  0.00  0.00    +0.041 A 
ATOM      4  C   LIG    1       33.819   1.717  28.043  0.00  0.00    +0.020 A 
ATOM      5  C   LIG    1       32.825   1.248  27.169  0.00  0.00    +0.006 A 
ATOM      6  C   LIG    1       32.019   0.148  27.505  0.00  0.00    -0.036 A 
ATOM      7  C   LIG    1       32.247  -0.444  28.768  0.00  0.00    +0.006 A 
ATOM      8  C   LIG    1       33.222   0.034  29.649  0.00  0.00    +0.020 A 
ENDBRANCH   1   6
BRANCH   1   9
ATOM      9  C   LIG    1       31.609  -1.395  25.482  0.00  0.00    -0.036 A 
ATOM     10  C   LIG    1       32.363  -2.543  25.770  0.00  0.00    +0.006 A 
ATOM     11  C   LIG    1       32.877  -3.348  24.743  0.00  0.00    +0.020 A 
ATOM     12  C   LIG    1       32.685  -2.997  23.412  0.00  0.00    +0.041 A 
ATOM     13 CL   LIG    1       33.335  -3.979  22.158  0.00  0.00    -0.084 Cl
ATOM     14  C   LIG    1       31.964  -1.856  23.095  0.00  0.00    +0.020 A 
ATOM     15  C   LIG    1       31.415  -1.078  24.119  0.00  0.00    +0.006 A 
ENDBRANCH   1   9
BRANCH   1  16
ATOM     16  C   LIG    1       29.595  -0.986  27.178  0.00  0.00    +0.201 C 
ATOM     17 CL   LIG    1       28.329  -1.148  25.888  0.00  0.00    -0.082 Cl
ATOM     18 CL   LIG    1       28.938   0.236  28.349  0.00  0.00    -0.082 Cl
ATOM     19 CL   LIG    1       29.650  -2.564  28.047  0.00  0.00    -0.082 Cl
ENDBRANCH   1  16
TORSDOF 3
ENDMDL
MODEL 7
REMARK VINA RESULT:      -7.3      2.005      4.678
REMARK  Name = 
REMARK                            x       y       z     vdW  Elec       q    Type
REMARK                         _______ _______ _______ _____ _____    ______ ____
ROOT
ATOM      1  C   LIG    1       31.765  -1.387  26.614  0.00  0.00    +0.100 C 
ENDROOT
BRANCH   1   6
ATOM      2 CL   LIG    1       33.048  -3.670  21.102  0.00  0.00    -0.084 Cl
ATOM      3  C   LIG    1       32.664  -3.066  22.664  0.00  0.00    +0.041 A 
ATOM      4  C   LIG    1       33.148  -3.702  23.798  0.00  0.00    +0.020 A 
ATOM      5  C   LIG    1       32.844  -3.207  25.077  0.00  0.00    +0.006 A 
ATOM      6  C   LIG    1       32.068  -2.049  25.244  0.00  0.00    -0.036 A 
ATOM      7  C   LIG    1       31.596  -1.426  24.067  0.00  0.00    +0.006 A 
ATOM      8  C   LIG    1       31.879  -1.929  22.793  0.00  0.00    +0.020 A 
ENDBRANCH   1   6
BRANCH   1   9
ATOM      9  C   LIG    1       32.750  -0.236  26.944  0.00  0.00    -0.036 A 
ATOM     10  C   LIG    1       32.775   0.994  26.267  0.00  0.00    +0.006 A 
ATOM     11  C   LIG    1       33.659   2.013  26.650  0.00  0.00    +0.020 A 
ATOM     12  C   LIG    1       34.564   1.806  27.683  0.00  0.00    +0.041 A 
ATOM     13 CL   LIG    1       35.660   3.052  28.134  0.00  0.00    -0.084 Cl
ATOM     14  C   LIG    1       34.581   0.593  28.357  0.00  0.00    +0.020 A 
ATOM     15  C   LIG    1       33.668  -0.406  28.003  0.00  0.00    +0.006 A 
ENDBRANCH   1   9
BRANCH   1  16
ATOM     16  C   LIG    1       30.255  -1.167  27.034  0.00  0.00    +0.201 C 
ATOM     17 CL   LIG    1       30.150  -0.328  28.640  0.00  0.00    -0.082 Cl
ATOM     18 CL   LIG    1       29.417  -2.761  27.265  0.00  0.00    -0.082 Cl
ATOM     19 CL   LIG    1       29.248  -0.210  25.886  0.00  0.00    -0.082 Cl
ENDBRANCH   1  16
TORSDOF 3
ENDMDL
MODEL 8
REMARK VINA RESULT:      -6.5      7.058     10.832
REMARK  Name = 
REMARK                            x       y       z     vdW  Elec       q    Type
REMARK                         _______ _______ _______ _____ _____    ______ ____
ROOT
ATOM      1  C   LIG    1       34.196  -3.188  17.729  0.00  0.00    +0.100 C 
ENDROOT
BRANCH   1   6
ATOM      2 CL   LIG    1       28.450  -2.544  19.682  0.00  0.00    -0.084 Cl
ATOM      3  C   LIG    1       30.082  -2.697  19.165  0.00  0.00    +0.041 A 
ATOM      4  C   LIG    1       31.033  -3.255  20.007  0.00  0.00    +0.020 A 
ATOM      5  C   LIG    1       32.365  -3.391  19.586  0.00  0.00    +0.006 A 
ATOM      6  C   LIG    1       32.768  -2.989  18.301  0.00  0.00    -0.036 A 
ATOM      7  C   LIG    1       31.772  -2.428  17.471  0.00  0.00    +0.006 A 
ATOM      8  C   LIG    1       30.448  -2.272  17.895  0.00  0.00    +0.020 A 
ENDBRANCH   1   6
BRANCH   1   9
ATOM      9  C   LIG    1       34.208  -4.105  16.479  0.00  0.00    -0.036 A 
ATOM     10  C   LIG    1       34.013  -3.648  15.167  0.00  0.00    +0.006 A 
ATOM     11  C   LIG    1       34.086  -4.526  14.076  0.00  0.00    +0.020 A 
ATOM     12  C   LIG    1       34.310  -5.882  14.279  0.00  0.00    +0.041 A 
ATOM     13 CL   LIG    1       34.379  -6.957  12.938  0.00  0.00    -0.084 Cl
ATOM     14  C   LIG    1       34.484  -6.369  15.566  0.00  0.00    +0.020 A 
ATOM     15  C   LIG    1       34.455  -5.486  16.649  0.00  0.00    +0.006 A 
ENDBRANCH   1   9
BRANCH   1  16
ATOM     16  C   LIG    1       35.183  -1.951  17.706  0.00  0.00    +0.201 C 
ATOM     17 CL   LIG    1       36.854  -2.470  17.223  0.00  0.00    -0.082 Cl
ATOM     18 CL   LIG    1       35.359  -1.242  19.369  0.00  0.00    -0.082 Cl
ATOM     19 CL   LIG    1       34.727  -0.597  16.608  0.00  0.00    -0.082 Cl
ENDBRANCH   1  16
TORSDOF 3
ENDMDL
MODEL 9
REMARK VINA RESULT:      -6.1      7.171     10.346
REMARK  Name = 
REMARK                            x       y       z     vdW  Elec       q    Type
REMARK                         _______ _______ _______ _____ _____    ______ ____
ROOT
ATOM      1  C   LIG    1       34.115  -2.763  16.282  0.00  0.00    +0.100 C 
ENDROOT
BRANCH   1   6
ATOM      2 CL   LIG    1       34.298  -8.050  13.239  0.00  0.00    -0.084 Cl
ATOM      3  C   LIG    1       34.284  -6.548  14.074  0.00  0.00    +0.041 A 
ATOM      4  C   LIG    1       34.142  -5.359  13.373  0.00  0.00    +0.020 A 
ATOM      5  C   LIG    1       34.122  -4.130  14.052  0.00  0.00    +0.006 A 
ATOM      6  C   LIG    1       34.221  -4.069  15.452  0.00  0.00    -0.036 A 
ATOM      7  C   LIG    1       34.360  -5.300  16.132  0.00  0.00    +0.006 A 
ATOM      8  C   LIG    1       34.402  -6.524  15.457  0.00  0.00    +0.020 A 
ENDBRANCH   1   6
BRANCH   1   9
ATOM      9  C   LIG    1       33.067  -2.869  17.419  0.00  0.00    -0.036 A 
ATOM     10  C   LIG    1       33.378  -3.214  18.744  0.00  0.00    +0.006 A 
ATOM     11  C   LIG    1       32.387  -3.244  19.736  0.00  0.00    +0.020 A 
ATOM     12  C   LIG    1       31.062  -2.974  19.414  0.00  0.00    +0.041 A 
ATOM     13 CL   LIG    1       29.849  -3.032  20.632  0.00  0.00    -0.084 Cl
ATOM     14  C   LIG    1       30.719  -2.653  18.109  0.00  0.00    +0.020 A 
ATOM     15  C   LIG    1       31.715  -2.581  17.130  0.00  0.00    +0.006 A 
ENDBRANCH   1   9
BRANCH   1  16
ATOM     16  C   LIG    1       35.441  -1.966  16.616  0.00  0.00    +0.201 C 
ATOM     17 CL   LIG    1       36.287  -1.458  15.093  0.00  0.00    -0.082 Cl
ATOM     18 CL   LIG    1       36.623  -3.031  17.493  0.00  0.00    -0.082 Cl
ATOM     19 CL   LIG    1       35.239  -0.480  17.614  0.00  0.00    -0.082 Cl
ENDBRANCH   1  16
TORSDOF 3
ENDMDL
