MODEL 1
REMARK VINA RESULT:      -7.8      0.000      0.000
REMARK  Name = 
REMARK                            x       y       z     vdW  Elec       q    Type
REMARK                         _______ _______ _______ _____ _____    ______ ____
ROOT
ATOM      1  C   LIG    1       68.624  46.836  97.093  0.00  0.00    +0.100 C 
ENDROOT
BRANCH   1   6
ATOM      2 CL   LIG    1       68.907  49.205  91.475  0.00  0.00    -0.084 Cl
ATOM      3  C   LIG    1       68.816  48.579  93.074  0.00  0.00    +0.041 A 
ATOM      4  C   LIG    1       67.615  48.605  93.768  0.00  0.00    +0.020 A 
ATOM      5  C   LIG    1       67.535  48.087  95.070  0.00  0.00    +0.006 A 
ATOM      6  C   LIG    1       68.653  47.511  95.696  0.00  0.00    -0.036 A 
ATOM      7  C   LIG    1       69.857  47.500  94.957  0.00  0.00    +0.006 A 
ATOM      8  C   LIG    1       69.945  48.034  93.668  0.00  0.00    +0.020 A 
ENDBRANCH   1   6
BRANCH   1   9
ATOM      9  C   LIG    1       68.590  47.870  98.247  0.00  0.00    -0.036 A 
ATOM     10  C   LIG    1       67.455  48.134  99.032  0.00  0.00    +0.006 A 
ATOM     11  C   LIG    1       67.507  49.048 100.094  0.00  0.00    +0.020 A 
ATOM     12  C   LIG    1       68.677  49.748 100.363  0.00  0.00    +0.041 A 
ATOM     13 CL   LIG    1       68.728  50.882 101.655  0.00  0.00    -0.084 Cl
ATOM     14  C   LIG    1       69.808  49.527  99.591  0.00  0.00    +0.020 A 
ATOM     15  C   LIG    1       69.768  48.583  98.560  0.00  0.00    +0.006 A 
ENDBRANCH   1   9
BRANCH   1  16
ATOM     16  C   LIG    1       67.750  45.531  97.288  0.00  0.00    +0.201 C 
ATOM     17 CL   LIG    1       67.977  44.391  95.894  0.00  0.00    -0.082 Cl
ATOM     18 CL   LIG    1       65.981  45.941  97.294  0.00  0.00    -0.082 Cl
ATOM     19 CL   LIG    1       68.071  44.583  98.786  0.00  0.00    -0.082 Cl
ENDBRANCH   1  16
TORSDOF 3
ENDMDL
MODEL 2
REMARK VINA RESULT:      -7.6      0.965      5.773
REMARK  Name = 
REMARK                            x       y       z     vdW  Elec       q    Type
REMARK                         _______ _______ _______ _____ _____    ______ ____
ROOT
ATOM      1  C   LIG    1       67.449  47.591  97.181  0.00  0.00    +0.100 C 
ENDROOT
BRANCH   1   6
ATOM      2 CL   LIG    1       70.052  50.365 101.954  0.00  0.00    -0.084 Cl
ATOM      3  C   LIG    1       69.326  49.622 100.585  0.00  0.00    +0.041 A 
ATOM      4  C   LIG    1       70.069  49.398  99.434  0.00  0.00    +0.020 A 
ATOM      5  C   LIG    1       69.482  48.783  98.317  0.00  0.00    +0.006 A 
ATOM      6  C   LIG    1       68.143  48.358  98.337  0.00  0.00    -0.036 A 
ATOM      7  C   LIG    1       67.420  48.599  99.527  0.00  0.00    +0.006 A 
ATOM      8  C   LIG    1       67.995  49.231 100.634  0.00  0.00    +0.020 A 
ENDBRANCH   1   6
BRANCH   1   9
ATOM      9  C   LIG    1       68.123  47.855  95.810  0.00  0.00    -0.036 A 
ATOM     10  C   LIG    1       69.316  47.246  95.391  0.00  0.00    +0.006 A 
ATOM     11  C   LIG    1       69.846  47.492  94.116  0.00  0.00    +0.020 A 
ATOM     12  C   LIG    1       69.218  48.384  93.255  0.00  0.00    +0.041 A 
ATOM     13 CL   LIG    1       69.883  48.697  91.700  0.00  0.00    -0.084 Cl
ATOM     14  C   LIG    1       68.049  49.020  93.648  0.00  0.00    +0.020 A 
ATOM     15  C   LIG    1       67.499  48.740  94.903  0.00  0.00    +0.006 A 
ENDBRANCH   1   9
BRANCH   1  16
ATOM     16  C   LIG    1       66.942  46.115  97.446  0.00  0.00    +0.201 C 
ATOM     17 CL   LIG    1       65.649  46.099  98.720  0.00  0.00    -0.082 Cl
ATOM     18 CL   LIG    1       68.285  45.087  98.107  0.00  0.00    -0.082 Cl
ATOM     19 CL   LIG    1       66.271  45.243  96.020  0.00  0.00    -0.082 Cl
ENDBRANCH   1  16
TORSDOF 3
ENDMDL
MODEL 3
REMARK VINA RESULT:      -7.5      0.980      5.588
REMARK  Name = 
REMARK                            x       y       z     vdW  Elec       q    Type
REMARK                         _______ _______ _______ _____ _____    ______ ____
ROOT
ATOM      1  C   LIG    1       67.344  47.509  97.190  0.00  0.00    +0.100 C 
ENDROOT
BRANCH   1   6
ATOM      2 CL   LIG    1       70.050  50.358 101.859  0.00  0.00    -0.084 Cl
ATOM      3  C   LIG    1       69.297  49.592 100.518  0.00  0.00    +0.041 A 
ATOM      4  C   LIG    1       70.029  49.302  99.376  0.00  0.00    +0.020 A 
ATOM      5  C   LIG    1       69.419  48.668  98.281  0.00  0.00    +0.006 A 
ATOM      6  C   LIG    1       68.066  48.291  98.317  0.00  0.00    -0.036 A 
ATOM      7  C   LIG    1       67.354  48.600  99.498  0.00  0.00    +0.006 A 
ATOM      8  C   LIG    1       67.953  49.250 100.582  0.00  0.00    +0.020 A 
ENDBRANCH   1   6
BRANCH   1   9
ATOM      9  C   LIG    1       67.930  47.818  95.788  0.00  0.00    -0.036 A 
ATOM     10  C   LIG    1       67.315  48.659  94.848  0.00  0.00    +0.006 A 
ATOM     11  C   LIG    1       67.925  48.935  93.615  0.00  0.00    +0.020 A 
ATOM     12  C   LIG    1       69.136  48.341  93.282  0.00  0.00    +0.041 A 
ATOM     13 CL   LIG    1       69.869  48.668  91.761  0.00  0.00    -0.084 Cl
ATOM     14  C   LIG    1       69.758  47.486  94.180  0.00  0.00    +0.020 A 
ATOM     15  C   LIG    1       69.171  47.246  95.426  0.00  0.00    +0.006 A 
ENDBRANCH   1   9
BRANCH   1  16
ATOM     16  C   LIG    1       66.916  46.009  97.461  0.00  0.00    +0.201 C 
ATOM     17 CL   LIG    1       68.360  44.994  97.884  0.00  0.00    -0.082 Cl
ATOM     18 CL   LIG    1       66.223  45.261  95.958  0.00  0.00    -0.082 Cl
ATOM     19 CL   LIG    1       65.707  45.758  98.774  0.00  0.00    -0.082 Cl
ENDBRANCH   1  16
TORSDOF 3
ENDMDL
MODEL 4
REMARK VINA RESULT:      -6.7      1.961      5.981
REMARK  Name = 
REMARK                            x       y       z     vdW  Elec       q    Type
REMARK                         _______ _______ _______ _____ _____    ______ ____
ROOT
ATOM      1  C   LIG    1       69.133  48.244  97.730  0.00  0.00    +0.100 C 
ENDROOT
BRANCH   1   6
ATOM      2 CL   LIG    1       65.619  43.761  99.921  0.00  0.00    -0.084 Cl
ATOM      3  C   LIG    1       66.600  45.008  99.261  0.00  0.00    +0.041 A 
ATOM      4  C   LIG    1       66.046  45.965  98.424  0.00  0.00    +0.020 A 
ATOM      5  C   LIG    1       66.842  46.991  97.890  0.00  0.00    +0.006 A 
ATOM      6  C   LIG    1       68.208  47.092  98.203  0.00  0.00    -0.036 A 
ATOM      7  C   LIG    1       68.736  46.102  99.062  0.00  0.00    +0.006 A 
ATOM      8  C   LIG    1       67.951  45.067  99.578  0.00  0.00    +0.020 A 
ENDBRANCH   1   6
BRANCH   1   9
ATOM      9  C   LIG    1       69.161  48.381  96.186  0.00  0.00    -0.036 A 
ATOM     10  C   LIG    1       68.276  49.187  95.453  0.00  0.00    +0.006 A 
ATOM     11  C   LIG    1       68.389  49.305  94.059  0.00  0.00    +0.020 A 
ATOM     12  C   LIG    1       69.357  48.585  93.370  0.00  0.00    +0.041 A 
ATOM     13 CL   LIG    1       69.477  48.718  91.659  0.00  0.00    -0.084 Cl
ATOM     14  C   LIG    1       70.232  47.761  94.063  0.00  0.00    +0.020 A 
ATOM     15  C   LIG    1       70.147  47.679  95.456  0.00  0.00    +0.006 A 
ENDBRANCH   1   9
BRANCH   1  16
ATOM     16  C   LIG    1       69.151  49.592  98.559  0.00  0.00    +0.201 C 
ATOM     17 CL   LIG    1       70.722  49.779  99.448  0.00  0.00    -0.082 Cl
ATOM     18 CL   LIG    1       67.868  49.571  99.843  0.00  0.00    -0.082 Cl
ATOM     19 CL   LIG    1       68.914  51.106  97.610  0.00  0.00    -0.082 Cl
ENDBRANCH   1  16
TORSDOF 3
ENDMDL
MODEL 5
REMARK VINA RESULT:      -6.1      1.872      4.057
REMARK  Name = 
REMARK                            x       y       z     vdW  Elec       q    Type
REMARK                         _______ _______ _______ _____ _____    ______ ____
ROOT
ATOM      1  C   LIG    1       67.846  48.937  97.790  0.00  0.00    +0.100 C 
ENDROOT
BRANCH   1   6
ATOM      2 CL   LIG    1       69.707  48.643  91.985  0.00  0.00    -0.084 Cl
ATOM      3  C   LIG    1       69.168  48.768  93.612  0.00  0.00    +0.041 A 
ATOM      4  C   LIG    1       67.820  48.938  93.891  0.00  0.00    +0.020 A 
ATOM      5  C   LIG    1       67.374  49.032  95.219  0.00  0.00    +0.006 A 
ATOM      6  C   LIG    1       68.269  48.935  96.298  0.00  0.00    -0.036 A 
ATOM      7  C   LIG    1       69.633  48.759  95.975  0.00  0.00    +0.006 A 
ATOM      8  C   LIG    1       70.083  48.686  94.653  0.00  0.00    +0.020 A 
ENDBRANCH   1   6
BRANCH   1   9
ATOM      9  C   LIG    1       67.343  47.549  98.263  0.00  0.00    -0.036 A 
ATOM     10  C   LIG    1       67.724  46.333  97.675  0.00  0.00    +0.006 A 
ATOM     11  C   LIG    1       67.269  45.109  98.185  0.00  0.00    +0.020 A 
ATOM     12  C   LIG    1       66.390  45.078  99.261  0.00  0.00    +0.041 A 
ATOM     13 CL   LIG    1       65.820  43.574  99.869  0.00  0.00    -0.084 Cl
ATOM     14  C   LIG    1       65.977  46.264  99.850  0.00  0.00    +0.020 A 
ATOM     15  C   LIG    1       66.466  47.483  99.369  0.00  0.00    +0.006 A 
ENDBRANCH   1   9
BRANCH   1  16
ATOM     16  C   LIG    1       68.716  49.763  98.824  0.00  0.00    +0.201 C 
ATOM     17 CL   LIG    1       69.116  51.404  98.161  0.00  0.00    -0.082 Cl
ATOM     18 CL   LIG    1       70.316  48.952  99.105  0.00  0.00    -0.082 Cl
ATOM     19 CL   LIG    1       67.974  50.029 100.444  0.00  0.00    -0.082 Cl
ENDBRANCH   1  16
TORSDOF 3
ENDMDL
