MODEL 1
REMARK VINA RESULT:      -8.3      0.000      0.000
REMARK  Name = 
REMARK                            x       y       z     vdW  Elec       q    Type
REMARK                         _______ _______ _______ _____ _____    ______ ____
ROOT
ATOM      1  C   LIG    1       38.118  30.403   9.546  0.00  0.00    +0.100 C 
ENDROOT
BRANCH   1   6
ATOM      2 CL   LIG    1       43.111  29.127  12.814  0.00  0.00    -0.084 Cl
ATOM      3  C   LIG    1       41.713  29.531  11.900  0.00  0.00    +0.041 A 
ATOM      4  C   LIG    1       41.832  30.251  10.720  0.00  0.00    +0.020 A 
ATOM      5  C   LIG    1       40.694  30.575   9.965  0.00  0.00    +0.006 A 
ATOM      6  C   LIG    1       39.411  30.165  10.367  0.00  0.00    -0.036 A 
ATOM      7  C   LIG    1       39.330  29.431  11.572  0.00  0.00    +0.006 A 
ATOM      8  C   LIG    1       40.460  29.124  12.336  0.00  0.00    +0.020 A 
ENDBRANCH   1   6
BRANCH   1   9
ATOM      9  C   LIG    1       38.119  31.776   8.827  0.00  0.00    -0.036 A 
ATOM     10  C   LIG    1       38.827  32.043   7.644  0.00  0.00    +0.006 A 
ATOM     11  C   LIG    1       38.745  33.296   7.019  0.00  0.00    +0.020 A 
ATOM     12  C   LIG    1       37.992  34.316   7.586  0.00  0.00    +0.041 A 
ATOM     13 CL   LIG    1       37.912  35.856   6.824  0.00  0.00    -0.084 Cl
ATOM     14  C   LIG    1       37.300  34.091   8.766  0.00  0.00    +0.020 A 
ATOM     15  C   LIG    1       37.347  32.829   9.366  0.00  0.00    +0.006 A 
ENDBRANCH   1   9
BRANCH   1  16
ATOM     16  C   LIG    1       37.492  29.188   8.746  0.00  0.00    +0.201 C 
ATOM     17 CL   LIG    1       37.169  27.787   9.853  0.00  0.00    -0.082 Cl
ATOM     18 CL   LIG    1       38.665  28.566   7.507  0.00  0.00    -0.082 Cl
ATOM     19 CL   LIG    1       35.949  29.526   7.879  0.00  0.00    -0.082 Cl
ENDBRANCH   1  16
TORSDOF 3
ENDMDL
MODEL 2
REMARK VINA RESULT:      -7.7      0.442      2.002
REMARK  Name = 
REMARK                            x       y       z     vdW  Elec       q    Type
REMARK                         _______ _______ _______ _____ _____    ______ ____
ROOT
ATOM      1  C   LIG    1       38.273  30.282   9.777  0.00  0.00    +0.100 C 
ENDROOT
BRANCH   1   6
ATOM      2 CL   LIG    1       43.740  29.769  12.441  0.00  0.00    -0.084 Cl
ATOM      3  C   LIG    1       42.201  29.868  11.683  0.00  0.00    +0.041 A 
ATOM      4  C   LIG    1       41.111  29.201  12.222  0.00  0.00    +0.020 A 
ATOM      5  C   LIG    1       39.850  29.286  11.611  0.00  0.00    +0.006 A 
ATOM      6  C   LIG    1       39.650  30.063  10.458  0.00  0.00    -0.036 A 
ATOM      7  C   LIG    1       40.781  30.731   9.939  0.00  0.00    +0.006 A 
ATOM      8  C   LIG    1       42.043  30.631  10.533  0.00  0.00    +0.020 A 
ENDBRANCH   1   6
BRANCH   1   9
ATOM      9  C   LIG    1       38.170  31.667   9.087  0.00  0.00    -0.036 A 
ATOM     10  C   LIG    1       37.468  32.759   9.621  0.00  0.00    +0.006 A 
ATOM     11  C   LIG    1       37.456  34.000   8.968  0.00  0.00    +0.020 A 
ATOM     12  C   LIG    1       38.105  34.159   7.749  0.00  0.00    +0.041 A 
ATOM     13 CL   LIG    1       38.069  35.678   6.944  0.00  0.00    -0.084 Cl
ATOM     14  C   LIG    1       38.787  33.092   7.184  0.00  0.00    +0.020 A 
ATOM     15  C   LIG    1       38.835  31.868   7.858  0.00  0.00    +0.006 A 
ENDBRANCH   1   9
BRANCH   1  16
ATOM     16  C   LIG    1       37.597  29.065   9.023  0.00  0.00    +0.201 C 
ATOM     17 CL   LIG    1       36.156  29.621   8.069  0.00  0.00    -0.082 Cl
ATOM     18 CL   LIG    1       36.951  27.855  10.214  0.00  0.00    -0.082 Cl
ATOM     19 CL   LIG    1       38.654  28.159   7.880  0.00  0.00    -0.082 Cl
ENDBRANCH   1  16
TORSDOF 3
ENDMDL
MODEL 3
REMARK VINA RESULT:      -7.7      0.880      5.681
REMARK  Name = 
REMARK                            x       y       z     vdW  Elec       q    Type
REMARK                         _______ _______ _______ _____ _____    ______ ____
ROOT
ATOM      1  C   LIG    1       38.925  29.783   9.229  0.00  0.00    +0.100 C 
ENDROOT
BRANCH   1   6
ATOM      2 CL   LIG    1       37.794  35.425   7.198  0.00  0.00    -0.084 Cl
ATOM      3  C   LIG    1       38.132  33.854   7.807  0.00  0.00    +0.041 A 
ATOM      4  C   LIG    1       37.559  33.427   8.996  0.00  0.00    +0.020 A 
ATOM      5  C   LIG    1       37.825  32.141   9.493  0.00  0.00    +0.006 A 
ATOM      6  C   LIG    1       38.655  31.247   8.796  0.00  0.00    -0.036 A 
ATOM      7  C   LIG    1       39.218  31.716   7.588  0.00  0.00    +0.006 A 
ATOM      8  C   LIG    1       38.971  33.004   7.101  0.00  0.00    +0.020 A 
ENDBRANCH   1   6
BRANCH   1   9
ATOM      9  C   LIG    1       39.964  29.689  10.376  0.00  0.00    -0.036 A 
ATOM     10  C   LIG    1       39.677  29.192  11.657  0.00  0.00    +0.006 A 
ATOM     11  C   LIG    1       40.678  29.089  12.634  0.00  0.00    +0.020 A 
ATOM     12  C   LIG    1       41.971  29.520  12.364  0.00  0.00    +0.041 A 
ATOM     13 CL   LIG    1       43.189  29.409  13.573  0.00  0.00    -0.084 Cl
ATOM     14  C   LIG    1       42.281  30.037  11.115  0.00  0.00    +0.020 A 
ATOM     15  C   LIG    1       41.293  30.099  10.128  0.00  0.00    +0.006 A 
ENDBRANCH   1   9
BRANCH   1  16
ATOM     16  C   LIG    1       37.707  28.774   9.296  0.00  0.00    +0.201 C 
ATOM     17 CL   LIG    1       38.283  27.059   9.146  0.00  0.00    -0.082 Cl
ATOM     18 CL   LIG    1       36.586  29.031   7.891  0.00  0.00    -0.082 Cl
ATOM     19 CL   LIG    1       36.699  28.850  10.788  0.00  0.00    -0.082 Cl
ENDBRANCH   1  16
TORSDOF 3
ENDMDL
MODEL 4
REMARK VINA RESULT:      -7.4      2.101      2.620
REMARK  Name = 
REMARK                            x       y       z     vdW  Elec       q    Type
REMARK                         _______ _______ _______ _____ _____    ______ ____
ROOT
ATOM      1  C   LIG    1       39.169  29.237   9.680  0.00  0.00    +0.100 C 
ENDROOT
BRANCH   1   6
ATOM      2 CL   LIG    1       44.594  26.444   9.806  0.00  0.00    -0.084 Cl
ATOM      3  C   LIG    1       43.082  27.258   9.738  0.00  0.00    +0.041 A 
ATOM      4  C   LIG    1       42.331  27.244   8.572  0.00  0.00    +0.020 A 
ATOM      5  C   LIG    1       41.092  27.900   8.514  0.00  0.00    +0.006 A 
ATOM      6  C   LIG    1       40.567  28.568   9.634  0.00  0.00    -0.036 A 
ATOM      7  C   LIG    1       41.358  28.558  10.805  0.00  0.00    +0.006 A 
ATOM      8  C   LIG    1       42.603  27.923  10.858  0.00  0.00    +0.020 A 
ENDBRANCH   1   6
BRANCH   1   9
ATOM      9  C   LIG    1       39.120  30.557   8.869  0.00  0.00    -0.036 A 
ATOM     10  C   LIG    1       39.904  30.810   7.732  0.00  0.00    +0.006 A 
ATOM     11  C   LIG    1       39.774  32.009   7.015  0.00  0.00    +0.020 A 
ATOM     12  C   LIG    1       38.892  32.993   7.445  0.00  0.00    +0.041 A 
ATOM     13 CL   LIG    1       38.751  34.468   6.573  0.00  0.00    -0.084 Cl
ATOM     14  C   LIG    1       38.120  32.782   8.578  0.00  0.00    +0.020 A 
ATOM     15  C   LIG    1       38.219  31.569   9.267  0.00  0.00    +0.006 A 
ENDBRANCH   1   9
BRANCH   1  16
ATOM     16  C   LIG    1       37.884  28.316   9.608  0.00  0.00    +0.201 C 
ATOM     17 CL   LIG    1       36.988  28.583   8.053  0.00  0.00    -0.082 Cl
ATOM     18 CL   LIG    1       36.710  28.752  10.924  0.00  0.00    -0.082 Cl
ATOM     19 CL   LIG    1       38.176  26.542   9.737  0.00  0.00    -0.082 Cl
ENDBRANCH   1  16
TORSDOF 3
ENDMDL
MODEL 5
REMARK VINA RESULT:      -7.3      1.915      5.914
REMARK  Name = 
REMARK                            x       y       z     vdW  Elec       q    Type
REMARK                         _______ _______ _______ _____ _____    ______ ____
ROOT
ATOM      1  C   LIG    1       38.827  29.009   8.673  0.00  0.00    +0.100 C 
ENDROOT
BRANCH   1   6
ATOM      2 CL   LIG    1       38.785  34.756   6.618  0.00  0.00    -0.084 Cl
ATOM      3  C   LIG    1       38.807  33.153   7.239  0.00  0.00    +0.041 A 
ATOM      4  C   LIG    1       37.891  32.765   8.206  0.00  0.00    +0.020 A 
ATOM      5  C   LIG    1       37.899  31.455   8.709  0.00  0.00    +0.006 A 
ATOM      6  C   LIG    1       38.812  30.497   8.236  0.00  0.00    -0.036 A 
ATOM      7  C   LIG    1       39.727  30.928   7.249  0.00  0.00    +0.006 A 
ATOM      8  C   LIG    1       39.735  32.238   6.761  0.00  0.00    +0.020 A 
ENDBRANCH   1   6
BRANCH   1   9
ATOM      9  C   LIG    1       40.212  28.565   9.211  0.00  0.00    -0.036 A 
ATOM     10  C   LIG    1       40.700  28.892  10.486  0.00  0.00    +0.006 A 
ATOM     11  C   LIG    1       41.943  28.415  10.928  0.00  0.00    +0.020 A 
ATOM     12  C   LIG    1       42.738  27.643  10.090  0.00  0.00    +0.041 A 
ATOM     13 CL   LIG    1       44.270  27.079  10.632  0.00  0.00    -0.084 Cl
ATOM     14  C   LIG    1       42.294  27.323   8.816  0.00  0.00    +0.020 A 
ATOM     15  C   LIG    1       41.036  27.762   8.392  0.00  0.00    +0.006 A 
ENDBRANCH   1   9
BRANCH   1  16
ATOM     16  C   LIG    1       37.559  28.425   9.419  0.00  0.00    +0.201 C 
ATOM     17 CL   LIG    1       37.759  26.648   9.731  0.00  0.00    -0.082 Cl
ATOM     18 CL   LIG    1       36.080  28.569   8.376  0.00  0.00    -0.082 Cl
ATOM     19 CL   LIG    1       37.156  29.184  11.003  0.00  0.00    -0.082 Cl
ENDBRANCH   1  16
TORSDOF 3
ENDMDL
MODEL 6
REMARK VINA RESULT:      -7.3      1.324      5.481
REMARK  Name = 
REMARK                            x       y       z     vdW  Elec       q    Type
REMARK                         _______ _______ _______ _____ _____    ______ ____
ROOT
ATOM      1  C   LIG    1       39.083  29.521   8.701  0.00  0.00    +0.100 C 
ENDROOT
BRANCH   1   6
ATOM      2 CL   LIG    1       38.373  35.168   6.500  0.00  0.00    -0.084 Cl
ATOM      3  C   LIG    1       38.563  33.561   7.078  0.00  0.00    +0.041 A 
ATOM      4  C   LIG    1       39.552  32.741   6.554  0.00  0.00    +0.020 A 
ATOM      5  C   LIG    1       39.716  31.430   7.030  0.00  0.00    +0.006 A 
ATOM      6  C   LIG    1       38.906  30.921   8.059  0.00  0.00    -0.036 A 
ATOM      7  C   LIG    1       37.913  31.786   8.570  0.00  0.00    +0.006 A 
ATOM      8  C   LIG    1       37.733  33.085   8.084  0.00  0.00    +0.020 A 
ENDBRANCH   1   6
BRANCH   1   9
ATOM      9  C   LIG    1       40.320  29.450   9.632  0.00  0.00    -0.036 A 
ATOM     10  C   LIG    1       41.087  28.291   9.833  0.00  0.00    +0.006 A 
ATOM     11  C   LIG    1       42.225  28.310  10.653  0.00  0.00    +0.020 A 
ATOM     12  C   LIG    1       42.591  29.472  11.321  0.00  0.00    +0.041 A 
ATOM     13 CL   LIG    1       43.976  29.482  12.340  0.00  0.00    -0.084 Cl
ATOM     14  C   LIG    1       41.840  30.627  11.161  0.00  0.00    +0.020 A 
ATOM     15  C   LIG    1       40.731  30.619  10.310  0.00  0.00    +0.006 A 
ENDBRANCH   1   9
BRANCH   1  16
ATOM     16  C   LIG    1       37.793  28.737   9.179  0.00  0.00    +0.201 C 
ATOM     17 CL   LIG    1       37.338  29.218  10.869  0.00  0.00    -0.082 Cl
ATOM     18 CL   LIG    1       38.122  26.952   9.257  0.00  0.00    -0.082 Cl
ATOM     19 CL   LIG    1       36.318  28.952   8.167  0.00  0.00    -0.082 Cl
ENDBRANCH   1  16
TORSDOF 3
ENDMDL
MODEL 7
REMARK VINA RESULT:      -7.0      1.941      3.159
REMARK  Name = 
REMARK                            x       y       z     vdW  Elec       q    Type
REMARK                         _______ _______ _______ _____ _____    ______ ____
ROOT
ATOM      1  C   LIG    1       40.070  28.681  10.690  0.00  0.00    +0.100 C 
ENDROOT
BRANCH   1   6
ATOM      2 CL   LIG    1       44.828  30.196  14.198  0.00  0.00    -0.084 Cl
ATOM      3  C   LIG    1       43.496  29.726  13.220  0.00  0.00    +0.041 A 
ATOM      4  C   LIG    1       42.401  29.090  13.788  0.00  0.00    +0.020 A 
ATOM      5  C   LIG    1       41.307  28.711  12.994  0.00  0.00    +0.006 A 
ATOM      6  C   LIG    1       41.276  28.983  11.616  0.00  0.00    -0.036 A 
ATOM      7  C   LIG    1       42.407  29.635  11.074  0.00  0.00    +0.006 A 
ATOM      8  C   LIG    1       43.508  29.994  11.858  0.00  0.00    +0.020 A 
ENDBRANCH   1   6
BRANCH   1   9
ATOM      9  C   LIG    1       39.697  29.890   9.793  0.00  0.00    -0.036 A 
ATOM     10  C   LIG    1       40.102  30.030   8.456  0.00  0.00    +0.006 A 
ATOM     11  C   LIG    1       39.688  31.126   7.685  0.00  0.00    +0.020 A 
ATOM     12  C   LIG    1       38.900  32.123   8.248  0.00  0.00    +0.041 A 
ATOM     13 CL   LIG    1       38.412  33.474   7.303  0.00  0.00    -0.084 Cl
ATOM     14  C   LIG    1       38.503  32.025   9.573  0.00  0.00    +0.020 A 
ATOM     15  C   LIG    1       38.880  30.910  10.328  0.00  0.00    +0.006 A 
ENDBRANCH   1   9
BRANCH   1  16
ATOM     16  C   LIG    1       39.964  27.249  10.025  0.00  0.00    +0.201 C 
ATOM     17 CL   LIG    1       41.351  26.962   8.890  0.00  0.00    -0.082 Cl
ATOM     18 CL   LIG    1       38.469  27.129   9.001  0.00  0.00    -0.082 Cl
ATOM     19 CL   LIG    1       39.931  25.851  11.161  0.00  0.00    -0.082 Cl
ENDBRANCH   1  16
TORSDOF 3
ENDMDL
MODEL 8
REMARK VINA RESULT:      -6.8      2.808      6.091
REMARK  Name = 
REMARK                            x       y       z     vdW  Elec       q    Type
REMARK                         _______ _______ _______ _____ _____    ______ ____
ROOT
ATOM      1  C   LIG    1       38.949  28.714   8.900  0.00  0.00    +0.100 C 
ENDROOT
BRANCH   1   6
ATOM      2 CL   LIG    1       42.727  31.282   4.853  0.00  0.00    -0.084 Cl
ATOM      3  C   LIG    1       41.667  30.596   6.020  0.00  0.00    +0.041 A 
ATOM      4  C   LIG    1       40.462  31.214   6.320  0.00  0.00    +0.020 A 
ATOM      5  C   LIG    1       39.590  30.653   7.265  0.00  0.00    +0.006 A 
ATOM      6  C   LIG    1       39.897  29.445   7.914  0.00  0.00    -0.036 A 
ATOM      7  C   LIG    1       41.131  28.843   7.581  0.00  0.00    +0.006 A 
ATOM      8  C   LIG    1       42.012  29.411   6.655  0.00  0.00    +0.020 A 
ENDBRANCH   1   6
BRANCH   1   9
ATOM      9  C   LIG    1       39.721  27.954  10.008  0.00  0.00    -0.036 A 
ATOM     10  C   LIG    1       40.431  28.582  11.044  0.00  0.00    +0.006 A 
ATOM     11  C   LIG    1       41.067  27.833  12.044  0.00  0.00    +0.020 A 
ATOM     12  C   LIG    1       41.046  26.444  12.002  0.00  0.00    +0.041 A 
ATOM     13 CL   LIG    1       41.846  25.531  13.220  0.00  0.00    -0.084 Cl
ATOM     14  C   LIG    1       40.373  25.793  10.978  0.00  0.00    +0.020 A 
ATOM     15  C   LIG    1       39.702  26.541  10.007  0.00  0.00    +0.006 A 
ENDBRANCH   1   9
BRANCH   1  16
ATOM     16  C   LIG    1       37.610  29.435   9.341  0.00  0.00    +0.201 C 
ATOM     17 CL   LIG    1       36.875  28.603  10.777  0.00  0.00    -0.082 Cl
ATOM     18 CL   LIG    1       36.362  29.324   8.026  0.00  0.00    -0.082 Cl
ATOM     19 CL   LIG    1       37.757  31.177   9.774  0.00  0.00    -0.082 Cl
ENDBRANCH   1  16
TORSDOF 3
ENDMDL
MODEL 9
REMARK VINA RESULT:      -6.7      2.649      5.943
REMARK  Name = 
REMARK                            x       y       z     vdW  Elec       q    Type
REMARK                         _______ _______ _______ _____ _____    ______ ____
ROOT
ATOM      1  C   LIG    1       38.972  28.613   9.081  0.00  0.00    +0.100 C 
ENDROOT
BRANCH   1   6
ATOM      2 CL   LIG    1       42.624  31.223   4.946  0.00  0.00    -0.084 Cl
ATOM      3  C   LIG    1       41.596  30.450   6.086  0.00  0.00    +0.041 A 
ATOM      4  C   LIG    1       42.041  29.338   6.788  0.00  0.00    +0.020 A 
ATOM      5  C   LIG    1       41.207  28.709   7.726  0.00  0.00    +0.006 A 
ATOM      6  C   LIG    1       39.917  29.194   7.997  0.00  0.00    -0.036 A 
ATOM      7  C   LIG    1       39.501  30.329   7.266  0.00  0.00    +0.006 A 
ATOM      8  C   LIG    1       40.320  30.946   6.316  0.00  0.00    +0.020 A 
ENDBRANCH   1   6
BRANCH   1   9
ATOM      9  C   LIG    1       39.744  28.103  10.325  0.00  0.00    -0.036 A 
ATOM     10  C   LIG    1       40.008  26.749  10.585  0.00  0.00    +0.006 A 
ATOM     11  C   LIG    1       40.755  26.359  11.706  0.00  0.00    +0.020 A 
ATOM     12  C   LIG    1       41.212  27.310  12.610  0.00  0.00    +0.041 A 
ATOM     13 CL   LIG    1       42.111  26.824  13.993  0.00  0.00    -0.084 Cl
ATOM     14  C   LIG    1       40.948  28.654  12.394  0.00  0.00    +0.020 A 
ATOM     15  C   LIG    1       40.240  29.045  11.253  0.00  0.00    +0.006 A 
ENDBRANCH   1   9
BRANCH   1  16
ATOM     16  C   LIG    1       37.593  29.340   9.354  0.00  0.00    +0.201 C 
ATOM     17 CL   LIG    1       37.855  31.096   9.730  0.00  0.00    -0.082 Cl
ATOM     18 CL   LIG    1       36.785  28.646  10.826  0.00  0.00    -0.082 Cl
ATOM     19 CL   LIG    1       36.387  29.274   8.017  0.00  0.00    -0.082 Cl
ENDBRANCH   1  16
TORSDOF 3
ENDMDL
