MODEL 1
REMARK VINA RESULT:      -7.9      0.000      0.000
REMARK  Name = 
REMARK                            x       y       z     vdW  Elec       q    Type
REMARK                         _______ _______ _______ _____ _____    ______ ____
ROOT
ATOM      1  C   LIG    1        2.222   0.047  21.704  0.00  0.00    +0.100 C 
ENDROOT
BRANCH   1   6
ATOM      2 CL   LIG    1        6.883  -2.343  18.572  0.00  0.00    -0.084 Cl
ATOM      3  C   LIG    1        5.565  -1.638  19.422  0.00  0.00    +0.041 A 
ATOM      4  C   LIG    1        4.299  -1.619  18.856  0.00  0.00    +0.020 A 
ATOM      5  C   LIG    1        3.218  -1.052  19.550  0.00  0.00    +0.006 A 
ATOM      6  C   LIG    1        3.379  -0.513  20.837  0.00  0.00    -0.036 A 
ATOM      7  C   LIG    1        4.682  -0.554  21.382  0.00  0.00    +0.006 A 
ATOM      8  C   LIG    1        5.765  -1.098  20.685  0.00  0.00    +0.020 A 
ENDBRANCH   1   6
BRANCH   1   9
ATOM      9  C   LIG    1        1.689  -0.995  22.721  0.00  0.00    -0.036 A 
ATOM     10  C   LIG    1        1.102  -0.662  23.952  0.00  0.00    +0.006 A 
ATOM     11  C   LIG    1        0.595  -1.654  24.804  0.00  0.00    +0.020 A 
ATOM     12  C   LIG    1        0.707  -2.997  24.464  0.00  0.00    +0.041 A 
ATOM     13 CL   LIG    1        0.102  -4.209  25.523  0.00  0.00    -0.084 Cl
ATOM     14  C   LIG    1        1.304  -3.359  23.266  0.00  0.00    +0.020 A 
ATOM     15  C   LIG    1        1.768  -2.368  22.397  0.00  0.00    +0.006 A 
ENDBRANCH   1   9
BRANCH   1  16
ATOM     16  C   LIG    1        2.306   1.545  22.207  0.00  0.00    +0.201 C 
ATOM     17 CL   LIG    1        0.646   2.241  22.438  0.00  0.00    -0.082 Cl
ATOM     18 CL   LIG    1        3.101   2.595  20.957  0.00  0.00    -0.082 Cl
ATOM     19 CL   LIG    1        3.195   1.810  23.752  0.00  0.00    -0.082 Cl
ENDBRANCH   1  16
TORSDOF 3
ENDMDL
MODEL 2
REMARK VINA RESULT:      -7.5      2.122      4.340
REMARK  Name = 
REMARK                            x       y       z     vdW  Elec       q    Type
REMARK                         _______ _______ _______ _____ _____    ______ ____
ROOT
ATOM      1  C   LIG    1        2.621  -0.773  22.081  0.00  0.00    +0.100 C 
ENDROOT
BRANCH   1   6
ATOM      2 CL   LIG    1        2.287   5.300  22.582  0.00  0.00    -0.084 Cl
ATOM      3  C   LIG    1        2.360   3.586  22.481  0.00  0.00    +0.041 A 
ATOM      4  C   LIG    1        1.193   2.839  22.423  0.00  0.00    +0.020 A 
ATOM      5  C   LIG    1        1.247   1.439  22.332  0.00  0.00    +0.006 A 
ATOM      6  C   LIG    1        2.475   0.759  22.273  0.00  0.00    -0.036 A 
ATOM      7  C   LIG    1        3.642   1.554  22.331  0.00  0.00    +0.006 A 
ATOM      8  C   LIG    1        3.591   2.947  22.443  0.00  0.00    +0.020 A 
ENDBRANCH   1   6
BRANCH   1   9
ATOM      9  C   LIG    1        1.793  -1.579  23.114  0.00  0.00    -0.036 A 
ATOM     10  C   LIG    1        1.623  -2.972  23.069  0.00  0.00    +0.006 A 
ATOM     11  C   LIG    1        0.901  -3.645  24.066  0.00  0.00    +0.020 A 
ATOM     12  C   LIG    1        0.298  -2.936  25.097  0.00  0.00    +0.041 A 
ATOM     13 CL   LIG    1       -0.603  -3.766  26.305  0.00  0.00    -0.084 Cl
ATOM     14  C   LIG    1        0.428  -1.556  25.156  0.00  0.00    +0.020 A 
ATOM     15  C   LIG    1        1.185  -0.891  24.187  0.00  0.00    +0.006 A 
ENDBRANCH   1   9
BRANCH   1  16
ATOM     16  C   LIG    1        2.668  -1.351  20.608  0.00  0.00    +0.201 C 
ATOM     17 CL   LIG    1        4.034  -2.532  20.424  0.00  0.00    -0.082 Cl
ATOM     18 CL   LIG    1        3.008  -0.028  19.412  0.00  0.00    -0.082 Cl
ATOM     19 CL   LIG    1        1.179  -2.195  20.043  0.00  0.00    -0.082 Cl
ENDBRANCH   1  16
TORSDOF 3
ENDMDL
MODEL 3
REMARK VINA RESULT:      -7.0      4.967      7.363
REMARK  Name = 
REMARK                            x       y       z     vdW  Elec       q    Type
REMARK                         _______ _______ _______ _____ _____    ______ ____
ROOT
ATOM      1  C   LIG    1        8.820  -3.605  22.311  0.00  0.00    +0.100 C 
ENDROOT
BRANCH   1   6
ATOM      2 CL   LIG    1        4.049  -1.207  19.355  0.00  0.00    -0.084 Cl
ATOM      3  C   LIG    1        5.364  -1.898  20.220  0.00  0.00    +0.041 A 
ATOM      4  C   LIG    1        5.441  -3.272  20.395  0.00  0.00    +0.020 A 
ATOM      5  C   LIG    1        6.517  -3.842  21.093  0.00  0.00    +0.006 A 
ATOM      6  C   LIG    1        7.554  -3.047  21.610  0.00  0.00    -0.036 A 
ATOM      7  C   LIG    1        7.443  -1.653  21.409  0.00  0.00    +0.006 A 
ATOM      8  C   LIG    1        6.361  -1.080  20.733  0.00  0.00    +0.020 A 
ENDBRANCH   1   6
BRANCH   1   9
ATOM      9  C   LIG    1        8.573  -3.925  23.808  0.00  0.00    -0.036 A 
ATOM     10  C   LIG    1        7.499  -4.696  24.279  0.00  0.00    +0.006 A 
ATOM     11  C   LIG    1        7.363  -4.990  25.644  0.00  0.00    +0.020 A 
ATOM     12  C   LIG    1        8.270  -4.481  26.566  0.00  0.00    +0.041 A 
ATOM     13 CL   LIG    1        8.086  -4.828  28.240  0.00  0.00    -0.084 Cl
ATOM     14  C   LIG    1        9.330  -3.696  26.134  0.00  0.00    +0.020 A 
ATOM     15  C   LIG    1        9.489  -3.441  24.768  0.00  0.00    +0.006 A 
ENDBRANCH   1   9
BRANCH   1  16
ATOM     16  C   LIG    1        9.745  -4.614  21.516  0.00  0.00    +0.201 C 
ATOM     17 CL   LIG    1       10.011  -4.039  19.815  0.00  0.00    -0.082 Cl
ATOM     18 CL   LIG    1        8.937  -6.233  21.358  0.00  0.00    -0.082 Cl
ATOM     19 CL   LIG    1       11.376  -4.912  22.221  0.00  0.00    -0.082 Cl
ENDBRANCH   1  16
TORSDOF 3
ENDMDL
MODEL 4
REMARK VINA RESULT:      -6.7      9.791     11.409
REMARK  Name = 
REMARK                            x       y       z     vdW  Elec       q    Type
REMARK                         _______ _______ _______ _____ _____    ______ ____
ROOT
ATOM      1  C   LIG    1       10.310  -3.713  29.224  0.00  0.00    +0.100 C 
ENDROOT
BRANCH   1   6
ATOM      2 CL   LIG    1        8.891  -3.960  23.294  0.00  0.00    -0.084 Cl
ATOM      3  C   LIG    1        9.261  -3.856  24.969  0.00  0.00    +0.041 A 
ATOM      4  C   LIG    1        8.281  -4.107  25.918  0.00  0.00    +0.020 A 
ATOM      5  C   LIG    1        8.580  -4.031  27.288  0.00  0.00    +0.006 A 
ATOM      6  C   LIG    1        9.877  -3.726  27.735  0.00  0.00    -0.036 A 
ATOM      7  C   LIG    1       10.849  -3.481  26.740  0.00  0.00    +0.006 A 
ATOM      8  C   LIG    1       10.548  -3.534  25.375  0.00  0.00    +0.020 A 
ENDBRANCH   1   6
BRANCH   1   9
ATOM      9  C   LIG    1       11.206  -2.495  29.568  0.00  0.00    -0.036 A 
ATOM     10  C   LIG    1       10.733  -1.177  29.673  0.00  0.00    +0.006 A 
ATOM     11  C   LIG    1       11.590  -0.128  30.036  0.00  0.00    +0.020 A 
ATOM     12  C   LIG    1       12.941  -0.369  30.257  0.00  0.00    +0.041 A 
ATOM     13 CL   LIG    1       13.990   0.926  30.683  0.00  0.00    -0.084 Cl
ATOM     14  C   LIG    1       13.443  -1.656  30.139  0.00  0.00    +0.020 A 
ATOM     15  C   LIG    1       12.579  -2.708  29.819  0.00  0.00    +0.006 A 
ENDBRANCH   1   9
BRANCH   1  16
ATOM     16  C   LIG    1        9.258  -4.149  30.324  0.00  0.00    +0.201 C 
ATOM     17 CL   LIG    1       10.042  -4.254  31.958  0.00  0.00    -0.082 Cl
ATOM     18 CL   LIG    1        8.629  -5.817  29.982  0.00  0.00    -0.082 Cl
ATOM     19 CL   LIG    1        7.821  -3.077  30.511  0.00  0.00    -0.082 Cl
ENDBRANCH   1  16
TORSDOF 3
ENDMDL
MODEL 5
REMARK VINA RESULT:      -6.6     11.123     13.271
REMARK  Name = 
REMARK                            x       y       z     vdW  Elec       q    Type
REMARK                         _______ _______ _______ _____ _____    ______ ____
ROOT
ATOM      1  C   LIG    1       11.327  -1.398  29.435  0.00  0.00    +0.100 C 
ENDROOT
BRANCH   1   6
ATOM      2 CL   LIG    1       12.120   3.871  32.411  0.00  0.00    -0.084 Cl
ATOM      3  C   LIG    1       11.922   2.403  31.539  0.00  0.00    +0.041 A 
ATOM      4  C   LIG    1       13.021   1.603  31.257  0.00  0.00    +0.020 A 
ATOM      5  C   LIG    1       12.863   0.399  30.553  0.00  0.00    +0.006 A 
ATOM      6  C   LIG    1       11.596  -0.041  30.135  0.00  0.00    -0.036 A 
ATOM      7  C   LIG    1       10.501   0.797  30.443  0.00  0.00    +0.006 A 
ATOM      8  C   LIG    1       10.658   2.008  31.126  0.00  0.00    +0.020 A 
ENDBRANCH   1   6
BRANCH   1   9
ATOM      9  C   LIG    1       12.304  -1.661  28.261  0.00  0.00    -0.036 A 
ATOM     10  C   LIG    1       13.674  -1.920  28.422  0.00  0.00    +0.006 A 
ATOM     11  C   LIG    1       14.493  -2.198  27.318  0.00  0.00    +0.020 A 
ATOM     12  C   LIG    1       13.969  -2.179  26.032  0.00  0.00    +0.041 A 
ATOM     13 CL   LIG    1       14.983  -2.502  24.680  0.00  0.00    -0.084 Cl
ATOM     14  C   LIG    1       12.623  -1.903  25.837  0.00  0.00    +0.020 A 
ATOM     15  C   LIG    1       11.799  -1.669  26.942  0.00  0.00    +0.006 A 
ENDBRANCH   1   9
BRANCH   1  16
ATOM     16  C   LIG    1       10.942  -2.649  30.326  0.00  0.00    +0.201 C 
ATOM     17 CL   LIG    1        9.231  -2.515  30.917  0.00  0.00    -0.082 Cl
ATOM     18 CL   LIG    1       11.968  -2.707  31.824  0.00  0.00    -0.082 Cl
ATOM     19 CL   LIG    1       11.088  -4.259  29.531  0.00  0.00    -0.082 Cl
ENDBRANCH   1  16
TORSDOF 3
ENDMDL
MODEL 6
REMARK VINA RESULT:      -6.5      4.169      6.983
REMARK  Name = 
REMARK                            x       y       z     vdW  Elec       q    Type
REMARK                         _______ _______ _______ _____ _____    ______ ____
ROOT
ATOM      1  C   LIG    1        8.280  -2.661  20.588  0.00  0.00    +0.100 C 
ENDROOT
BRANCH   1   6
ATOM      2 CL   LIG    1       12.282  -2.725  15.981  0.00  0.00    -0.084 Cl
ATOM      3  C   LIG    1       11.125  -2.729  17.252  0.00  0.00    +0.041 A 
ATOM      4  C   LIG    1       10.698  -3.928  17.805  0.00  0.00    +0.020 A 
ATOM      5  C   LIG    1        9.760  -3.936  18.849  0.00  0.00    +0.006 A 
ATOM      6  C   LIG    1        9.247  -2.740  19.378  0.00  0.00    -0.036 A 
ATOM      7  C   LIG    1        9.708  -1.540  18.793  0.00  0.00    +0.006 A 
ATOM      8  C   LIG    1       10.626  -1.529  17.738  0.00  0.00    +0.020 A 
ENDBRANCH   1   6
BRANCH   1   9
ATOM      9  C   LIG    1        6.897  -2.076  20.202  0.00  0.00    -0.036 A 
ATOM     10  C   LIG    1        6.113  -1.284  21.056  0.00  0.00    +0.006 A 
ATOM     11  C   LIG    1        4.892  -0.745  20.625  0.00  0.00    +0.020 A 
ATOM     12  C   LIG    1        4.412  -1.024  19.352  0.00  0.00    +0.041 A 
ATOM     13 CL   LIG    1        2.904  -0.376  18.836  0.00  0.00    -0.084 Cl
ATOM     14  C   LIG    1        5.152  -1.822  18.492  0.00  0.00    +0.020 A 
ATOM     15  C   LIG    1        6.390  -2.323  18.907  0.00  0.00    +0.006 A 
ENDBRANCH   1   9
BRANCH   1  16
ATOM     16  C   LIG    1        8.277  -3.847  21.637  0.00  0.00    +0.201 C 
ATOM     17 CL   LIG    1        6.798  -4.879  21.435  0.00  0.00    -0.082 Cl
ATOM     18 CL   LIG    1        8.189  -3.202  23.332  0.00  0.00    -0.082 Cl
ATOM     19 CL   LIG    1        9.694  -4.959  21.575  0.00  0.00    -0.082 Cl
ENDBRANCH   1  16
TORSDOF 3
ENDMDL
MODEL 7
REMARK VINA RESULT:      -6.5      0.683      5.520
REMARK  Name = 
REMARK                            x       y       z     vdW  Elec       q    Type
REMARK                         _______ _______ _______ _____ _____    ______ ____
ROOT
ATOM      1  C   LIG    1        2.820   0.036  22.470  0.00  0.00    +0.100 C 
ENDROOT
BRANCH   1   6
ATOM      2 CL   LIG    1       -0.285  -4.405  25.276  0.00  0.00    -0.084 Cl
ATOM      3  C   LIG    1        0.550  -3.130  24.482  0.00  0.00    +0.041 A 
ATOM      4  C   LIG    1        0.613  -1.869  25.057  0.00  0.00    +0.020 A 
ATOM      5  C   LIG    1        1.302  -0.827  24.416  0.00  0.00    +0.006 A 
ATOM      6  C   LIG    1        1.963  -1.034  23.194  0.00  0.00    -0.036 A 
ATOM      7  C   LIG    1        1.881  -2.332  22.641  0.00  0.00    +0.006 A 
ATOM      8  C   LIG    1        1.178  -3.366  23.266  0.00  0.00    +0.020 A 
ENDBRANCH   1   6
BRANCH   1   9
ATOM      9  C   LIG    1        3.430  -0.493  21.146  0.00  0.00    -0.036 A 
ATOM     10  C   LIG    1        2.681  -0.770  19.992  0.00  0.00    +0.006 A 
ATOM     11  C   LIG    1        3.303  -1.199  18.811  0.00  0.00    +0.020 A 
ATOM     12  C   LIG    1        4.677  -1.403  18.774  0.00  0.00    +0.041 A 
ATOM     13 CL   LIG    1        5.432  -1.949  17.329  0.00  0.00    -0.084 Cl
ATOM     14  C   LIG    1        5.443  -1.160  19.906  0.00  0.00    +0.020 A 
ATOM     15  C   LIG    1        4.827  -0.690  21.069  0.00  0.00    +0.006 A 
ENDBRANCH   1   9
BRANCH   1  16
ATOM     16  C   LIG    1        2.316   1.537  22.465  0.00  0.00    +0.201 C 
ATOM     17 CL   LIG    1        3.019   2.447  21.061  0.00  0.00    -0.082 Cl
ATOM     18 CL   LIG    1        2.895   2.411  23.947  0.00  0.00    -0.082 Cl
ATOM     19 CL   LIG    1        0.531   1.769  22.387  0.00  0.00    -0.082 Cl
ENDBRANCH   1  16
TORSDOF 3
ENDMDL
MODEL 8
REMARK VINA RESULT:      -6.3      2.310      5.856
REMARK  Name = 
REMARK                            x       y       z     vdW  Elec       q    Type
REMARK                         _______ _______ _______ _____ _____    ______ ____
ROOT
ATOM      1  C   LIG    1        4.577  -0.620  20.326  0.00  0.00    +0.100 C 
ENDROOT
BRANCH   1   6
ATOM      2 CL   LIG    1        0.158  -1.141  24.503  0.00  0.00    -0.084 Cl
ATOM      3  C   LIG    1        1.376  -0.965  23.303  0.00  0.00    +0.041 A 
ATOM      4  C   LIG    1        1.966   0.271  23.080  0.00  0.00    +0.020 A 
ATOM      5  C   LIG    1        2.967   0.417  22.107  0.00  0.00    +0.006 A 
ATOM      6  C   LIG    1        3.416  -0.679  21.352  0.00  0.00    -0.036 A 
ATOM      7  C   LIG    1        2.795  -1.922  21.608  0.00  0.00    +0.006 A 
ATOM      8  C   LIG    1        1.782  -2.067  22.562  0.00  0.00    +0.020 A 
ENDBRANCH   1   6
BRANCH   1   9
ATOM      9  C   LIG    1        5.703  -1.635  20.649  0.00  0.00    -0.036 A 
ATOM     10  C   LIG    1        5.475  -2.974  21.005  0.00  0.00    +0.006 A 
ATOM     11  C   LIG    1        6.542  -3.853  21.237  0.00  0.00    +0.020 A 
ATOM     12  C   LIG    1        7.854  -3.401  21.162  0.00  0.00    +0.041 A 
ATOM     13 CL   LIG    1        9.158  -4.480  21.467  0.00  0.00    -0.084 Cl
ATOM     14  C   LIG    1        8.112  -2.078  20.836  0.00  0.00    +0.020 A 
ATOM     15  C   LIG    1        7.048  -1.213  20.562  0.00  0.00    +0.006 A 
ENDBRANCH   1   9
BRANCH   1  16
ATOM     16  C   LIG    1        4.228  -0.416  18.795  0.00  0.00    +0.201 C 
ATOM     17 CL   LIG    1        2.431  -0.391  18.543  0.00  0.00    -0.082 Cl
ATOM     18 CL   LIG    1        4.835  -1.816  17.810  0.00  0.00    -0.082 Cl
ATOM     19 CL   LIG    1        4.877   1.080  18.030  0.00  0.00    -0.082 Cl
ENDBRANCH   1  16
TORSDOF 3
ENDMDL
MODEL 9
REMARK VINA RESULT:      -6.3     11.165     13.198
REMARK  Name = 
REMARK                            x       y       z     vdW  Elec       q    Type
REMARK                         _______ _______ _______ _____ _____    ______ ____
ROOT
ATOM      1  C   LIG    1       12.152  -1.202  30.874  0.00  0.00    +0.100 C 
ENDROOT
BRANCH   1   6
ATOM      2 CL   LIG    1        7.117  -4.087  32.763  0.00  0.00    -0.084 Cl
ATOM      3  C   LIG    1        8.513  -3.262  32.193  0.00  0.00    +0.041 A 
ATOM      4  C   LIG    1        8.480  -1.890  31.988  0.00  0.00    +0.020 A 
ATOM      5  C   LIG    1        9.620  -1.211  31.530  0.00  0.00    +0.006 A 
ATOM      6  C   LIG    1       10.827  -1.890  31.291  0.00  0.00    -0.036 A 
ATOM      7  C   LIG    1       10.823  -3.286  31.514  0.00  0.00    +0.006 A 
ATOM      8  C   LIG    1        9.683  -3.968  31.949  0.00  0.00    +0.020 A 
ENDBRANCH   1   6
BRANCH   1   9
ATOM      9  C   LIG    1       12.523  -1.482  29.395  0.00  0.00    -0.036 A 
ATOM     10  C   LIG    1       13.810  -1.840  28.962  0.00  0.00    +0.006 A 
ATOM     11  C   LIG    1       14.066  -2.129  27.614  0.00  0.00    +0.020 A 
ATOM     12  C   LIG    1       13.054  -2.020  26.668  0.00  0.00    +0.041 A 
ATOM     13 CL   LIG    1       13.380  -2.355  25.013  0.00  0.00    -0.084 Cl
ATOM     14  C   LIG    1       11.777  -1.645  27.060  0.00  0.00    +0.020 A 
ATOM     15  C   LIG    1       11.513  -1.401  28.411  0.00  0.00    +0.006 A 
ENDBRANCH   1   9
BRANCH   1  16
ATOM     16  C   LIG    1       12.453   0.256  31.413  0.00  0.00    +0.201 C 
ATOM     17 CL   LIG    1       11.280   1.453  30.717  0.00  0.00    -0.082 Cl
ATOM     18 CL   LIG    1       14.093   0.814  30.868  0.00  0.00    -0.082 Cl
ATOM     19 CL   LIG    1       12.399   0.462  33.202  0.00  0.00    -0.082 Cl
ENDBRANCH   1  16
TORSDOF 3
ENDMDL
