MODEL 1
REMARK VINA RESULT:      -7.5      0.000      0.000
REMARK  Name = 
REMARK                            x       y       z     vdW  Elec       q    Type
REMARK                         _______ _______ _______ _____ _____    ______ ____
ROOT
ATOM      1  C   LIG    1        9.440   1.349  27.838  0.00  0.00    +0.100 C 
ENDROOT
BRANCH   1   6
ATOM      2 CL   LIG    1        7.161   6.648  25.843  0.00  0.00    -0.084 Cl
ATOM      3  C   LIG    1        7.844   5.166  26.386  0.00  0.00    +0.041 A 
ATOM      4  C   LIG    1        8.892   5.171  27.295  0.00  0.00    +0.020 A 
ATOM      5  C   LIG    1        9.446   3.963  27.748  0.00  0.00    +0.006 A 
ATOM      6  C   LIG    1        8.945   2.723  27.316  0.00  0.00    -0.036 A 
ATOM      7  C   LIG    1        7.876   2.759  26.394  0.00  0.00    +0.006 A 
ATOM      8  C   LIG    1        7.336   3.960  25.924  0.00  0.00    +0.020 A 
ENDBRANCH   1   6
BRANCH   1   9
ATOM      9  C   LIG    1        9.711   1.359  29.364  0.00  0.00    -0.036 A 
ATOM     10  C   LIG    1       10.984   1.514  29.935  0.00  0.00    +0.006 A 
ATOM     11  C   LIG    1       11.152   1.563  31.326  0.00  0.00    +0.020 A 
ATOM     12  C   LIG    1       10.059   1.414  32.172  0.00  0.00    +0.041 A 
ATOM     13 CL   LIG    1       10.275   1.455  33.878  0.00  0.00    -0.084 Cl
ATOM     14  C   LIG    1        8.791   1.236  31.639  0.00  0.00    +0.020 A 
ATOM     15  C   LIG    1        8.619   1.230  30.251  0.00  0.00    +0.006 A 
ENDBRANCH   1   9
BRANCH   1  16
ATOM     16  C   LIG    1        8.790   0.033  27.245  0.00  0.00    +0.201 C 
ATOM     17 CL   LIG    1        6.998   0.237  27.041  0.00  0.00    -0.082 Cl
ATOM     18 CL   LIG    1        8.990  -1.355  28.398  0.00  0.00    -0.082 Cl
ATOM     19 CL   LIG    1        9.430  -0.515  25.652  0.00  0.00    -0.082 Cl
ENDBRANCH   1  16
TORSDOF 3
ENDMDL
MODEL 2
REMARK VINA RESULT:      -7.5      3.421      5.095
REMARK  Name = 
REMARK                            x       y       z     vdW  Elec       q    Type
REMARK                         _______ _______ _______ _____ _____    ______ ____
ROOT
ATOM      1  C   LIG    1       11.352   1.658  29.853  0.00  0.00    +0.100 C 
ENDROOT
BRANCH   1   6
ATOM      2 CL   LIG    1       17.074   3.121  28.317  0.00  0.00    -0.084 Cl
ATOM      3  C   LIG    1       15.449   2.722  28.708  0.00  0.00    +0.041 A 
ATOM      4  C   LIG    1       14.778   1.740  27.994  0.00  0.00    +0.020 A 
ATOM      5  C   LIG    1       13.453   1.405  28.316  0.00  0.00    +0.006 A 
ATOM      6  C   LIG    1       12.779   2.033  29.377  0.00  0.00    -0.036 A 
ATOM      7  C   LIG    1       13.495   3.026  30.083  0.00  0.00    +0.006 A 
ATOM      8  C   LIG    1       14.808   3.377  29.751  0.00  0.00    +0.020 A 
ENDBRANCH   1   6
BRANCH   1   9
ATOM      9  C   LIG    1       11.116   2.009  31.344  0.00  0.00    -0.036 A 
ATOM     10  C   LIG    1       11.159   3.313  31.861  0.00  0.00    +0.006 A 
ATOM     11  C   LIG    1       10.886   3.565  33.213  0.00  0.00    +0.020 A 
ATOM     12  C   LIG    1       10.612   2.516  34.082  0.00  0.00    +0.041 A 
ATOM     13 CL   LIG    1       10.298   2.831  35.744  0.00  0.00    -0.084 Cl
ATOM     14  C   LIG    1       10.585   1.213  33.607  0.00  0.00    +0.020 A 
ATOM     15  C   LIG    1       10.813   0.968  32.250  0.00  0.00    +0.006 A 
ENDBRANCH   1   9
BRANCH   1  16
ATOM     16  C   LIG    1       10.135   1.901  28.869  0.00  0.00    +0.201 C 
ATOM     17 CL   LIG    1       10.067   3.638  28.348  0.00  0.00    -0.082 Cl
ATOM     18 CL   LIG    1        8.558   1.587  29.714  0.00  0.00    -0.082 Cl
ATOM     19 CL   LIG    1       10.127   0.911  27.364  0.00  0.00    -0.082 Cl
ENDBRANCH   1  16
TORSDOF 3
ENDMDL
MODEL 3
REMARK VINA RESULT:      -7.3      2.300      2.745
REMARK  Name = 
REMARK                            x       y       z     vdW  Elec       q    Type
REMARK                         _______ _______ _______ _____ _____    ______ ____
ROOT
ATOM      1  C   LIG    1        8.808   2.547  27.181  0.00  0.00    +0.100 C 
ENDROOT
BRANCH   1   6
ATOM      2 CL   LIG    1        6.686   8.055  25.631  0.00  0.00    -0.084 Cl
ATOM      3  C   LIG    1        7.268   6.487  26.028  0.00  0.00    +0.041 A 
ATOM      4  C   LIG    1        8.250   5.888  25.251  0.00  0.00    +0.020 A 
ATOM      5  C   LIG    1        8.734   4.611  25.576  0.00  0.00    +0.006 A 
ATOM      6  C   LIG    1        8.261   3.917  26.702  0.00  0.00    -0.036 A 
ATOM      7  C   LIG    1        7.265   4.560  27.471  0.00  0.00    +0.006 A 
ATOM      8  C   LIG    1        6.765   5.822  27.137  0.00  0.00    +0.020 A 
ENDBRANCH   1   6
BRANCH   1   9
ATOM      9  C   LIG    1       10.056   2.694  28.089  0.00  0.00    -0.036 A 
ATOM     10  C   LIG    1       11.057   1.717  28.213  0.00  0.00    +0.006 A 
ATOM     11  C   LIG    1       12.186   1.936  29.015  0.00  0.00    +0.020 A 
ATOM     12  C   LIG    1       12.314   3.113  29.742  0.00  0.00    +0.041 A 
ATOM     13 CL   LIG    1       13.692   3.367  30.740  0.00  0.00    -0.084 Cl
ATOM     14  C   LIG    1       11.331   4.088  29.659  0.00  0.00    +0.020 A 
ATOM     15  C   LIG    1       10.227   3.888  28.825  0.00  0.00    +0.006 A 
ENDBRANCH   1   9
BRANCH   1  16
ATOM     16  C   LIG    1        7.777   1.414  27.577  0.00  0.00    +0.201 C 
ATOM     17 CL   LIG    1        7.644   1.268  29.382  0.00  0.00    -0.082 Cl
ATOM     18 CL   LIG    1        8.356  -0.208  27.002  0.00  0.00    -0.082 Cl
ATOM     19 CL   LIG    1        6.099   1.620  26.953  0.00  0.00    -0.082 Cl
ENDBRANCH   1  16
TORSDOF 3
ENDMDL
MODEL 4
REMARK VINA RESULT:      -7.3      2.468      3.419
REMARK  Name = 
REMARK                            x       y       z     vdW  Elec       q    Type
REMARK                         _______ _______ _______ _____ _____    ______ ____
ROOT
ATOM      1  C   LIG    1       10.021   1.315  28.969  0.00  0.00    +0.100 C 
ENDROOT
BRANCH   1   6
ATOM      2 CL   LIG    1        6.278   4.631  25.470  0.00  0.00    -0.084 Cl
ATOM      3  C   LIG    1        7.367   3.709  26.429  0.00  0.00    +0.041 A 
ATOM      4  C   LIG    1        8.406   4.334  27.103  0.00  0.00    +0.020 A 
ATOM      5  C   LIG    1        9.293   3.586  27.894  0.00  0.00    +0.006 A 
ATOM      6  C   LIG    1        9.142   2.197  28.044  0.00  0.00    -0.036 A 
ATOM      7  C   LIG    1        8.071   1.597  27.346  0.00  0.00    +0.006 A 
ATOM      8  C   LIG    1        7.199   2.336  26.540  0.00  0.00    +0.020 A 
ENDBRANCH   1   6
BRANCH   1   9
ATOM      9  C   LIG    1       11.384   1.977  29.295  0.00  0.00    -0.036 A 
ATOM     10  C   LIG    1       11.602   2.829  30.389  0.00  0.00    +0.006 A 
ATOM     11  C   LIG    1       12.875   3.356  30.654  0.00  0.00    +0.020 A 
ATOM     12  C   LIG    1       13.941   3.078  29.807  0.00  0.00    +0.041 A 
ATOM     13 CL   LIG    1       15.494   3.743  30.127  0.00  0.00    -0.084 Cl
ATOM     14  C   LIG    1       13.752   2.258  28.704  0.00  0.00    +0.020 A 
ATOM     15  C   LIG    1       12.493   1.699  28.466  0.00  0.00    +0.006 A 
ENDBRANCH   1   9
BRANCH   1  16
ATOM     16  C   LIG    1        9.323   0.520  30.147  0.00  0.00    +0.201 C 
ATOM     17 CL   LIG    1        8.707  -1.084  29.564  0.00  0.00    -0.082 Cl
ATOM     18 CL   LIG    1        7.858   1.414  30.741  0.00  0.00    -0.082 Cl
ATOM     19 CL   LIG    1       10.349   0.185  31.589  0.00  0.00    -0.082 Cl
ENDBRANCH   1  16
TORSDOF 3
ENDMDL
MODEL 5
REMARK VINA RESULT:      -7.1      2.073      5.488
REMARK  Name = 
REMARK                            x       y       z     vdW  Elec       q    Type
REMARK                         _______ _______ _______ _____ _____    ______ ____
ROOT
ATOM      1  C   LIG    1        8.939   2.317  28.304  0.00  0.00    +0.100 C 
ENDROOT
BRANCH   1   6
ATOM      2 CL   LIG    1       14.689   3.241  30.127  0.00  0.00    -0.084 Cl
ATOM      3  C   LIG    1       13.059   2.966  29.656  0.00  0.00    +0.041 A 
ATOM      4  C   LIG    1       12.029   3.677  30.254  0.00  0.00    +0.020 A 
ATOM      5  C   LIG    1       10.697   3.462  29.866  0.00  0.00    +0.006 A 
ATOM      6  C   LIG    1       10.372   2.545  28.853  0.00  0.00    -0.036 A 
ATOM      7  C   LIG    1       11.447   1.843  28.264  0.00  0.00    +0.006 A 
ATOM      8  C   LIG    1       12.773   2.039  28.664  0.00  0.00    +0.020 A 
ENDBRANCH   1   6
BRANCH   1   9
ATOM      9  C   LIG    1        8.432   3.514  27.460  0.00  0.00    -0.036 A 
ATOM     10  C   LIG    1        7.161   4.092  27.600  0.00  0.00    +0.006 A 
ATOM     11  C   LIG    1        6.784   5.207  26.837  0.00  0.00    +0.020 A 
ATOM     12  C   LIG    1        7.652   5.735  25.889  0.00  0.00    +0.041 A 
ATOM     13 CL   LIG    1        7.176   7.090  24.942  0.00  0.00    -0.084 Cl
ATOM     14  C   LIG    1        8.907   5.172  25.710  0.00  0.00    +0.020 A 
ATOM     15  C   LIG    1        9.298   4.089  26.503  0.00  0.00    +0.006 A 
ENDBRANCH   1   9
BRANCH   1  16
ATOM     16  C   LIG    1        8.544   0.873  27.790  0.00  0.00    +0.201 C 
ATOM     17 CL   LIG    1        6.818   0.840  27.230  0.00  0.00    -0.082 Cl
ATOM     18 CL   LIG    1        8.637  -0.335  29.142  0.00  0.00    -0.082 Cl
ATOM     19 CL   LIG    1        9.537   0.218  26.436  0.00  0.00    -0.082 Cl
ENDBRANCH   1  16
TORSDOF 3
ENDMDL
MODEL 6
REMARK VINA RESULT:      -7.0      2.996      4.472
REMARK  Name = 
REMARK                            x       y       z     vdW  Elec       q    Type
REMARK                         _______ _______ _______ _____ _____    ______ ____
ROOT
ATOM      1  C   LIG    1        7.126   4.448  26.721  0.00  0.00    +0.100 C 
ENDROOT
BRANCH   1   6
ATOM      2 CL   LIG    1        6.385  10.407  25.629  0.00  0.00    -0.084 Cl
ATOM      3  C   LIG    1        6.626   8.739  25.967  0.00  0.00    +0.041 A 
ATOM      4  C   LIG    1        6.366   8.238  27.235  0.00  0.00    +0.020 A 
ATOM      5  C   LIG    1        6.553   6.874  27.513  0.00  0.00    +0.006 A 
ATOM      6  C   LIG    1        6.983   5.979  26.519  0.00  0.00    -0.036 A 
ATOM      7  C   LIG    1        7.234   6.525  25.241  0.00  0.00    +0.006 A 
ATOM      8  C   LIG    1        7.069   7.886  24.966  0.00  0.00    +0.020 A 
ENDBRANCH   1   6
BRANCH   1   9
ATOM      9  C   LIG    1        8.527   4.051  27.252  0.00  0.00    -0.036 A 
ATOM     10  C   LIG    1        9.525   4.974  27.604  0.00  0.00    +0.006 A 
ATOM     11  C   LIG    1       10.755   4.547  28.125  0.00  0.00    +0.020 A 
ATOM     12  C   LIG    1       11.028   3.191  28.260  0.00  0.00    +0.041 A 
ATOM     13 CL   LIG    1       12.546   2.674  28.881  0.00  0.00    -0.084 Cl
ATOM     14  C   LIG    1       10.072   2.253  27.899  0.00  0.00    +0.020 A 
ATOM     15  C   LIG    1        8.830   2.681  27.421  0.00  0.00    +0.006 A 
ENDBRANCH   1   9
BRANCH   1  16
ATOM     16  C   LIG    1        5.895   3.642  27.305  0.00  0.00    +0.201 C 
ATOM     17 CL   LIG    1        5.944   1.911  26.761  0.00  0.00    -0.082 Cl
ATOM     18 CL   LIG    1        4.332   4.307  26.663  0.00  0.00    -0.082 Cl
ATOM     19 CL   LIG    1        5.751   3.613  29.101  0.00  0.00    -0.082 Cl
ENDBRANCH   1  16
TORSDOF 3
ENDMDL
MODEL 7
REMARK VINA RESULT:      -7.0      2.125      2.901
REMARK  Name = 
REMARK                            x       y       z     vdW  Elec       q    Type
REMARK                         _______ _______ _______ _____ _____    ______ ____
ROOT
ATOM      1  C   LIG    1        9.363   2.488  27.632  0.00  0.00    +0.100 C 
ENDROOT
BRANCH   1   6
ATOM      2 CL   LIG    1        6.988   7.395  24.890  0.00  0.00    -0.084 Cl
ATOM      3  C   LIG    1        7.659   6.036  25.701  0.00  0.00    +0.041 A 
ATOM      4  C   LIG    1        6.971   5.435  26.746  0.00  0.00    +0.020 A 
ATOM      5  C   LIG    1        7.511   4.320  27.406  0.00  0.00    +0.006 A 
ATOM      6  C   LIG    1        8.744   3.769  27.017  0.00  0.00    -0.036 A 
ATOM      7  C   LIG    1        9.413   4.405  25.948  0.00  0.00    +0.006 A 
ATOM      8  C   LIG    1        8.888   5.529  25.302  0.00  0.00    +0.020 A 
ENDBRANCH   1   6
BRANCH   1   9
ATOM      9  C   LIG    1       10.542   2.803  28.589  0.00  0.00    -0.036 A 
ATOM     10  C   LIG    1       10.475   3.733  29.638  0.00  0.00    +0.006 A 
ATOM     11  C   LIG    1       11.564   3.934  30.498  0.00  0.00    +0.020 A 
ATOM     12  C   LIG    1       12.753   3.243  30.299  0.00  0.00    +0.041 A 
ATOM     13 CL   LIG    1       14.092   3.509  31.346  0.00  0.00    -0.084 Cl
ATOM     14  C   LIG    1       12.859   2.334  29.257  0.00  0.00    +0.020 A 
ATOM     15  C   LIG    1       11.758   2.102  28.427  0.00  0.00    +0.006 A 
ENDBRANCH   1   9
BRANCH   1  16
ATOM     16  C   LIG    1        8.398   1.310  28.065  0.00  0.00    +0.201 C 
ATOM     17 CL   LIG    1        9.158  -0.303  27.724  0.00  0.00    -0.082 Cl
ATOM     18 CL   LIG    1        6.871   1.342  27.083  0.00  0.00    -0.082 Cl
ATOM     19 CL   LIG    1        7.904   1.290  29.798  0.00  0.00    -0.082 Cl
ENDBRANCH   1  16
TORSDOF 3
ENDMDL
MODEL 8
REMARK VINA RESULT:      -7.0      3.034      4.468
REMARK  Name = 
REMARK                            x       y       z     vdW  Elec       q    Type
REMARK                         _______ _______ _______ _____ _____    ______ ____
ROOT
ATOM      1  C   LIG    1       10.921   1.971  29.551  0.00  0.00    +0.100 C 
ENDROOT
BRANCH   1   6
ATOM      2 CL   LIG    1        7.661   5.457  25.748  0.00  0.00    -0.084 Cl
ATOM      3  C   LIG    1        8.542   4.470  26.845  0.00  0.00    +0.041 A 
ATOM      4  C   LIG    1        8.180   3.145  27.040  0.00  0.00    +0.020 A 
ATOM      5  C   LIG    1        8.902   2.332  27.929  0.00  0.00    +0.006 A 
ATOM      6  C   LIG    1       10.018   2.826  28.625  0.00  0.00    -0.036 A 
ATOM      7  C   LIG    1       10.359   4.178  28.398  0.00  0.00    +0.006 A 
ATOM      8  C   LIG    1        9.629   4.996  27.530  0.00  0.00    +0.020 A 
ENDBRANCH   1   6
BRANCH   1   9
ATOM      9  C   LIG    1       12.430   2.245  29.322  0.00  0.00    -0.036 A 
ATOM     10  C   LIG    1       13.188   3.151  30.081  0.00  0.00    +0.006 A 
ATOM     11  C   LIG    1       14.562   3.315  29.853  0.00  0.00    +0.020 A 
ATOM     12  C   LIG    1       15.193   2.612  28.834  0.00  0.00    +0.041 A 
ATOM     13 CL   LIG    1       16.875   2.832  28.547  0.00  0.00    -0.084 Cl
ATOM     14  C   LIG    1       14.467   1.726  28.051  0.00  0.00    +0.020 A 
ATOM     15  C   LIG    1       13.107   1.531  28.309  0.00  0.00    +0.006 A 
ENDBRANCH   1   9
BRANCH   1  16
ATOM     16  C   LIG    1       10.466   1.737  31.049  0.00  0.00    +0.201 C 
ATOM     17 CL   LIG    1       10.705   3.240  32.037  0.00  0.00    -0.082 Cl
ATOM     18 CL   LIG    1       11.498   0.469  31.840  0.00  0.00    -0.082 Cl
ATOM     19 CL   LIG    1        8.752   1.233  31.283  0.00  0.00    -0.082 Cl
ENDBRANCH   1  16
TORSDOF 3
ENDMDL
MODEL 9
REMARK VINA RESULT:      -6.9      2.311      3.057
REMARK  Name = 
REMARK                            x       y       z     vdW  Elec       q    Type
REMARK                         _______ _______ _______ _____ _____    ______ ____
ROOT
ATOM      1  C   LIG    1       10.013   1.650  28.517  0.00  0.00    +0.100 C 
ENDROOT
BRANCH   1   6
ATOM      2 CL   LIG    1        7.183   6.141  25.507  0.00  0.00    -0.084 Cl
ATOM      3  C   LIG    1        7.942   4.869  26.378  0.00  0.00    +0.041 A 
ATOM      4  C   LIG    1        7.477   3.567  26.261  0.00  0.00    +0.020 A 
ATOM      5  C   LIG    1        8.098   2.523  26.964  0.00  0.00    +0.006 A 
ATOM      6  C   LIG    1        9.216   2.758  27.782  0.00  0.00    -0.036 A 
ATOM      7  C   LIG    1        9.663   4.096  27.874  0.00  0.00    +0.006 A 
ATOM      8  C   LIG    1        9.032   5.141  27.192  0.00  0.00    +0.020 A 
ENDBRANCH   1   6
BRANCH   1   9
ATOM      9  C   LIG    1       11.382   2.156  29.041  0.00  0.00    -0.036 A 
ATOM     10  C   LIG    1       12.611   1.879  28.421  0.00  0.00    +0.006 A 
ATOM     11  C   LIG    1       13.809   2.410  28.921  0.00  0.00    +0.020 A 
ATOM     12  C   LIG    1       13.807   3.187  30.072  0.00  0.00    +0.041 A 
ATOM     13 CL   LIG    1       15.282   3.819  30.691  0.00  0.00    -0.084 Cl
ATOM     14  C   LIG    1       12.611   3.460  30.721  0.00  0.00    +0.020 A 
ATOM     15  C   LIG    1       11.413   2.966  30.197  0.00  0.00    +0.006 A 
ENDBRANCH   1   9
BRANCH   1  16
ATOM     16  C   LIG    1        9.227   0.643  29.453  0.00  0.00    +0.201 C 
ATOM     17 CL   LIG    1        7.722   1.417  30.110  0.00  0.00    -0.082 Cl
ATOM     18 CL   LIG    1       10.224   0.213  30.909  0.00  0.00    -0.082 Cl
ATOM     19 CL   LIG    1        8.719  -0.909  28.692  0.00  0.00    -0.082 Cl
ENDBRANCH   1  16
TORSDOF 3
ENDMDL
