MODEL 1
REMARK VINA RESULT:      -2.4      0.000      0.000
REMARK  Name = 
REMARK                            x       y       z     vdW  Elec       q    Type
REMARK                         _______ _______ _______ _____ _____    ______ ____
ROOT
ATOM      1  C   LIG    1       17.728   4.154  52.461  0.00  0.00    +0.100 C 
ENDROOT
BRANCH   1   6
ATOM      2 CL   LIG    1       15.505   9.339  50.133  0.00  0.00    -0.084 Cl
ATOM      3  C   LIG    1       16.117   7.856  50.751  0.00  0.00    +0.041 A 
ATOM      4  C   LIG    1       17.118   7.175  50.074  0.00  0.00    +0.020 A 
ATOM      5  C   LIG    1       17.626   5.969  50.580  0.00  0.00    +0.006 A 
ATOM      6  C   LIG    1       17.157   5.430  51.790  0.00  0.00    -0.036 A 
ATOM      7  C   LIG    1       16.140   6.153  52.453  0.00  0.00    +0.006 A 
ATOM      8  C   LIG    1       15.617   7.344  51.941  0.00  0.00    +0.020 A 
ENDBRANCH   1   6
BRANCH   1   9
ATOM      9  C   LIG    1       16.617   3.155  52.872  0.00  0.00    -0.036 A 
ATOM     10  C   LIG    1       15.880   2.381  51.962  0.00  0.00    +0.006 A 
ATOM     11  C   LIG    1       14.921   1.459  52.405  0.00  0.00    +0.020 A 
ATOM     12  C   LIG    1       14.649   1.326  53.762  0.00  0.00    +0.041 A 
ATOM     13 CL   LIG    1       13.458   0.207  54.298  0.00  0.00    -0.084 Cl
ATOM     14  C   LIG    1       15.344   2.093  54.685  0.00  0.00    +0.020 A 
ATOM     15  C   LIG    1       16.330   2.980  54.245  0.00  0.00    +0.006 A 
ENDBRANCH   1   9
BRANCH   1  16
ATOM     16  C   LIG    1       19.064   3.527  51.886  0.00  0.00    +0.201 C 
ATOM     17 CL   LIG    1       19.531   2.043  52.820  0.00  0.00    -0.082 Cl
ATOM     18 CL   LIG    1       20.450   4.682  52.087  0.00  0.00    -0.082 Cl
ATOM     19 CL   LIG    1       19.028   3.052  50.149  0.00  0.00    -0.082 Cl
ENDBRANCH   1  16
TORSDOF 3
ENDMDL
MODEL 2
REMARK VINA RESULT:      -2.4      2.603      6.052
REMARK  Name = 
REMARK                            x       y       z     vdW  Elec       q    Type
REMARK                         _______ _______ _______ _____ _____    ______ ____
ROOT
ATOM      1  C   LIG    1       16.268   3.222  53.519  0.00  0.00    +0.100 C 
ENDROOT
BRANCH   1   6
ATOM      2 CL   LIG    1       13.438  -1.062  50.220  0.00  0.00    -0.084 Cl
ATOM      3  C   LIG    1       14.223   0.122  51.187  0.00  0.00    +0.041 A 
ATOM      4  C   LIG    1       15.305  -0.229  51.982  0.00  0.00    +0.020 A 
ATOM      5  C   LIG    1       15.955   0.736  52.767  0.00  0.00    +0.006 A 
ATOM      6  C   LIG    1       15.548   2.081  52.754  0.00  0.00    -0.036 A 
ATOM      7  C   LIG    1       14.446   2.401  51.930  0.00  0.00    +0.006 A 
ATOM      8  C   LIG    1       13.783   1.438  51.163  0.00  0.00    +0.020 A 
ENDBRANCH   1   6
BRANCH   1   9
ATOM      9  C   LIG    1       17.520   3.739  52.765  0.00  0.00    -0.036 A 
ATOM     10  C   LIG    1       17.509   4.178  51.431  0.00  0.00    +0.006 A 
ATOM     11  C   LIG    1       18.669   4.681  50.825  0.00  0.00    +0.020 A 
ATOM     12  C   LIG    1       19.870   4.712  51.523  0.00  0.00    +0.041 A 
ATOM     13 CL   LIG    1       21.293   5.312  50.767  0.00  0.00    -0.084 Cl
ATOM     14  C   LIG    1       19.919   4.264  52.835  0.00  0.00    +0.020 A 
ATOM     15  C   LIG    1       18.752   3.804  53.453  0.00  0.00    +0.006 A 
ENDBRANCH   1   9
BRANCH   1  16
ATOM     16  C   LIG    1       15.391   4.311  54.260  0.00  0.00    +0.201 C 
ATOM     17 CL   LIG    1       14.999   5.689  53.146  0.00  0.00    -0.082 Cl
ATOM     18 CL   LIG    1       16.317   5.049  55.636  0.00  0.00    -0.082 Cl
ATOM     19 CL   LIG    1       13.823   3.734  54.937  0.00  0.00    -0.082 Cl
ENDBRANCH   1  16
TORSDOF 3
ENDMDL
MODEL 3
REMARK VINA RESULT:      -2.4      2.392      4.269
REMARK  Name = 
REMARK                            x       y       z     vdW  Elec       q    Type
REMARK                         _______ _______ _______ _____ _____    ______ ____
ROOT
ATOM      1  C   LIG    1       16.043   1.126  52.524  0.00  0.00    +0.100 C 
ENDROOT
BRANCH   1   6
ATOM      2 CL   LIG    1       18.305   6.595  51.034  0.00  0.00    -0.084 Cl
ATOM      3  C   LIG    1       17.677   5.063  51.497  0.00  0.00    +0.041 A 
ATOM      4  C   LIG    1       16.567   4.984  52.325  0.00  0.00    +0.020 A 
ATOM      5  C   LIG    1       16.046   3.736  52.700  0.00  0.00    +0.006 A 
ATOM      6  C   LIG    1       16.613   2.538  52.232  0.00  0.00    -0.036 A 
ATOM      7  C   LIG    1       17.740   2.659  51.388  0.00  0.00    +0.006 A 
ATOM      8  C   LIG    1       18.275   3.901  51.030  0.00  0.00    +0.020 A 
ENDBRANCH   1   6
BRANCH   1   9
ATOM      9  C   LIG    1       15.933   0.836  54.043  0.00  0.00    -0.036 A 
ATOM     10  C   LIG    1       16.874   0.090  54.770  0.00  0.00    +0.006 A 
ATOM     11  C   LIG    1       16.739  -0.093  56.154  0.00  0.00    +0.020 A 
ATOM     12  C   LIG    1       15.640   0.426  56.827  0.00  0.00    +0.041 A 
ATOM     13 CL   LIG    1       15.470   0.181  58.521  0.00  0.00    -0.084 Cl
ATOM     14  C   LIG    1       14.680   1.148  56.132  0.00  0.00    +0.020 A 
ATOM     15  C   LIG    1       14.839   1.367  54.761  0.00  0.00    +0.006 A 
ENDBRANCH   1   9
BRANCH   1  16
ATOM     16  C   LIG    1       14.870   0.578  51.613  0.00  0.00    +0.201 C 
ATOM     17 CL   LIG    1       13.557   1.820  51.440  0.00  0.00    -0.082 Cl
ATOM     18 CL   LIG    1       14.076  -0.859  52.390  0.00  0.00    -0.082 Cl
ATOM     19 CL   LIG    1       15.332   0.080  49.945  0.00  0.00    -0.082 Cl
ENDBRANCH   1  16
TORSDOF 3
ENDMDL
MODEL 4
REMARK VINA RESULT:      -2.3      2.562      3.858
REMARK  Name = 
REMARK                            x       y       z     vdW  Elec       q    Type
REMARK                         _______ _______ _______ _____ _____    ______ ____
ROOT
ATOM      1  C   LIG    1       16.222   4.248  53.005  0.00  0.00    +0.100 C 
ENDROOT
BRANCH   1   6
ATOM      2 CL   LIG    1       21.443   5.005  49.938  0.00  0.00    -0.084 Cl
ATOM      3  C   LIG    1       19.974   4.747  50.791  0.00  0.00    +0.041 A 
ATOM      4  C   LIG    1       19.950   3.927  51.910  0.00  0.00    +0.020 A 
ATOM      5  C   LIG    1       18.754   3.720  52.616  0.00  0.00    +0.006 A 
ATOM      6  C   LIG    1       17.560   4.351  52.228  0.00  0.00    -0.036 A 
ATOM      7  C   LIG    1       17.624   5.181  51.086  0.00  0.00    +0.006 A 
ATOM      8  C   LIG    1       18.809   5.372  50.369  0.00  0.00    +0.020 A 
ENDBRANCH   1   6
BRANCH   1   9
ATOM      9  C   LIG    1       15.470   2.924  52.712  0.00  0.00    -0.036 A 
ATOM     10  C   LIG    1       14.081   2.833  52.530  0.00  0.00    +0.006 A 
ATOM     11  C   LIG    1       13.470   1.610  52.219  0.00  0.00    +0.020 A 
ATOM     12  C   LIG    1       14.228   0.449  52.129  0.00  0.00    +0.041 A 
ATOM     13 CL   LIG    1       13.470  -1.052  51.766  0.00  0.00    -0.084 Cl
ATOM     14  C   LIG    1       15.600   0.501  52.326  0.00  0.00    +0.020 A 
ATOM     15  C   LIG    1       16.213   1.729  52.593  0.00  0.00    +0.006 A 
ENDBRANCH   1   9
BRANCH   1  16
ATOM     16  C   LIG    1       16.167   4.776  54.496  0.00  0.00    +0.201 C 
ATOM     17 CL   LIG    1       16.496   3.429  55.667  0.00  0.00    -0.082 Cl
ATOM     18 CL   LIG    1       14.501   5.374  54.902  0.00  0.00    -0.082 Cl
ATOM     19 CL   LIG    1       17.312   6.105  54.905  0.00  0.00    -0.082 Cl
ENDBRANCH   1  16
TORSDOF 3
ENDMDL
MODEL 5
REMARK VINA RESULT:      -2.3      2.335      4.113
REMARK  Name = 
REMARK                            x       y       z     vdW  Elec       q    Type
REMARK                         _______ _______ _______ _____ _____    ______ ____
ROOT
ATOM      1  C   LIG    1       16.169   1.757  52.881  0.00  0.00    +0.100 C 
ENDROOT
BRANCH   1   6
ATOM      2 CL   LIG    1       19.016   6.414  50.151  0.00  0.00    -0.084 Cl
ATOM      3  C   LIG    1       18.202   5.086  50.879  0.00  0.00    +0.041 A 
ATOM      4  C   LIG    1       18.632   3.788  50.643  0.00  0.00    +0.020 A 
ATOM      5  C   LIG    1       17.976   2.701  51.243  0.00  0.00    +0.006 A 
ATOM      6  C   LIG    1       16.887   2.895  52.110  0.00  0.00    -0.036 A 
ATOM      7  C   LIG    1       16.481   4.230  52.328  0.00  0.00    +0.006 A 
ATOM      8  C   LIG    1       17.119   5.313  51.716  0.00  0.00    +0.020 A 
ENDBRANCH   1   6
BRANCH   1   9
ATOM      9  C   LIG    1       16.103   2.027  54.406  0.00  0.00    -0.036 A 
ATOM     10  C   LIG    1       14.992   2.584  55.058  0.00  0.00    +0.006 A 
ATOM     11  C   LIG    1       14.981   2.756  56.450  0.00  0.00    +0.020 A 
ATOM     12  C   LIG    1       16.095   2.418  57.209  0.00  0.00    +0.041 A 
ATOM     13 CL   LIG    1       16.082   2.650  58.913  0.00  0.00    -0.084 Cl
ATOM     14  C   LIG    1       17.217   1.886  56.591  0.00  0.00    +0.020 A 
ATOM     15  C   LIG    1       17.211   1.675  55.209  0.00  0.00    +0.006 A 
ENDBRANCH   1   9
BRANCH   1  16
ATOM     16  C   LIG    1       14.892   1.086  52.228  0.00  0.00    +0.201 C 
ATOM     17 CL   LIG    1       15.284   0.423  50.584  0.00  0.00    -0.082 Cl
ATOM     18 CL   LIG    1       13.590   2.322  51.953  0.00  0.00    -0.082 Cl
ATOM     19 CL   LIG    1       14.144  -0.261  53.161  0.00  0.00    -0.082 Cl
ENDBRANCH   1  16
TORSDOF 3
ENDMDL
MODEL 6
REMARK VINA RESULT:      -2.2      2.564      4.097
REMARK  Name = 
REMARK                            x       y       z     vdW  Elec       q    Type
REMARK                         _______ _______ _______ _____ _____    ______ ____
ROOT
ATOM      1  C   LIG    1       16.807   1.799  52.582  0.00  0.00    +0.100 C 
ENDROOT
BRANCH   1   6
ATOM      2 CL   LIG    1       18.780   6.933  49.938  0.00  0.00    -0.084 Cl
ATOM      3  C   LIG    1       18.211   5.472  50.641  0.00  0.00    +0.041 A 
ATOM      4  C   LIG    1       18.772   4.256  50.280  0.00  0.00    +0.020 A 
ATOM      5  C   LIG    1       18.317   3.061  50.858  0.00  0.00    +0.006 A 
ATOM      6  C   LIG    1       17.302   3.062  51.830  0.00  0.00    -0.036 A 
ATOM      7  C   LIG    1       16.757   4.319  52.176  0.00  0.00    +0.006 A 
ATOM      8  C   LIG    1       17.194   5.509  51.586  0.00  0.00    +0.020 A 
ENDBRANCH   1   6
BRANCH   1   9
ATOM      9  C   LIG    1       17.290   1.761  54.055  0.00  0.00    -0.036 A 
ATOM     10  C   LIG    1       16.654   2.439  55.107  0.00  0.00    +0.006 A 
ATOM     11  C   LIG    1       17.115   2.322  56.426  0.00  0.00    +0.020 A 
ATOM     12  C   LIG    1       18.245   1.564  56.711  0.00  0.00    +0.041 A 
ATOM     13 CL   LIG    1       18.817   1.441  58.328  0.00  0.00    -0.084 Cl
ATOM     14  C   LIG    1       18.909   0.901  55.690  0.00  0.00    +0.020 A 
ATOM     15  C   LIG    1       18.423   0.983  54.381  0.00  0.00    +0.006 A 
ENDBRANCH   1   9
BRANCH   1  16
ATOM     16  C   LIG    1       15.337   1.280  52.307  0.00  0.00    +0.201 C 
ATOM     17 CL   LIG    1       14.943  -0.131  53.380  0.00  0.00    -0.082 Cl
ATOM     18 CL   LIG    1       15.188   0.653  50.609  0.00  0.00    -0.082 Cl
ATOM     19 CL   LIG    1       14.018   2.486  52.536  0.00  0.00    -0.082 Cl
ENDBRANCH   1  16
TORSDOF 3
ENDMDL
MODEL 7
REMARK VINA RESULT:      -2.2      2.664      6.104
REMARK  Name = 
REMARK                            x       y       z     vdW  Elec       q    Type
REMARK                         _______ _______ _______ _____ _____    ______ ____
ROOT
ATOM      1  C   LIG    1       17.036   3.393  53.687  0.00  0.00    +0.100 C 
ENDROOT
BRANCH   1   6
ATOM      2 CL   LIG    1       13.438  -0.890  51.247  0.00  0.00    -0.084 Cl
ATOM      3  C   LIG    1       14.462   0.330  51.892  0.00  0.00    +0.041 A 
ATOM      4  C   LIG    1       14.185   1.670  51.661  0.00  0.00    +0.020 A 
ATOM      5  C   LIG    1       15.014   2.670  52.194  0.00  0.00    +0.006 A 
ATOM      6  C   LIG    1       16.127   2.349  52.989  0.00  0.00    -0.036 A 
ATOM      7  C   LIG    1       16.375   0.975  53.205  0.00  0.00    +0.006 A 
ATOM      8  C   LIG    1       15.563  -0.025  52.659  0.00  0.00    +0.020 A 
ENDBRANCH   1   6
BRANCH   1   9
ATOM      9  C   LIG    1       18.207   3.855  52.783  0.00  0.00    -0.036 A 
ATOM     10  C   LIG    1       19.561   3.618  53.068  0.00  0.00    +0.006 A 
ATOM     11  C   LIG    1       20.569   4.021  52.180  0.00  0.00    +0.020 A 
ATOM     12  C   LIG    1       20.247   4.707  51.016  0.00  0.00    +0.041 A 
ATOM     13 CL   LIG    1       21.489   5.216  49.941  0.00  0.00    -0.084 Cl
ATOM     14  C   LIG    1       18.919   4.978  50.717  0.00  0.00    +0.020 A 
ATOM     15  C   LIG    1       17.913   4.537  51.581  0.00  0.00    +0.006 A 
ENDBRANCH   1   9
BRANCH   1  16
ATOM     16  C   LIG    1       16.360   4.504  54.590  0.00  0.00    +0.201 C 
ATOM     17 CL   LIG    1       17.593   5.302  55.657  0.00  0.00    -0.082 Cl
ATOM     18 CL   LIG    1       15.151   3.760  55.722  0.00  0.00    -0.082 Cl
ATOM     19 CL   LIG    1       15.508   5.825  53.711  0.00  0.00    -0.082 Cl
ENDBRANCH   1  16
TORSDOF 3
ENDMDL
MODEL 8
REMARK VINA RESULT:      -2.2      3.092      5.098
REMARK  Name = 
REMARK                            x       y       z     vdW  Elec       q    Type
REMARK                         _______ _______ _______ _____ _____    ______ ____
ROOT
ATOM      1  C   LIG    1       15.668   1.002  53.280  0.00  0.00    +0.100 C 
ENDROOT
BRANCH   1   6
ATOM      2 CL   LIG    1       20.919   3.631  51.619  0.00  0.00    -0.084 Cl
ATOM      3  C   LIG    1       19.424   2.932  52.098  0.00  0.00    +0.041 A 
ATOM      4  C   LIG    1       18.254   3.255  51.426  0.00  0.00    +0.020 A 
ATOM      5  C   LIG    1       17.031   2.680  51.808  0.00  0.00    +0.006 A 
ATOM      6  C   LIG    1       16.960   1.749  52.858  0.00  0.00    -0.036 A 
ATOM      7  C   LIG    1       18.172   1.442  53.516  0.00  0.00    +0.006 A 
ATOM      8  C   LIG    1       19.388   2.030  53.152  0.00  0.00    +0.020 A 
ENDBRANCH   1   6
BRANCH   1   9
ATOM      9  C   LIG    1       15.145   1.464  54.665  0.00  0.00    -0.036 A 
ATOM     10  C   LIG    1       14.850   0.590  55.724  0.00  0.00    +0.006 A 
ATOM     11  C   LIG    1       14.427   1.079  56.968  0.00  0.00    +0.020 A 
ATOM     12  C   LIG    1       14.247   2.443  57.163  0.00  0.00    +0.041 A 
ATOM     13 CL   LIG    1       13.708   3.034  58.686  0.00  0.00    -0.084 Cl
ATOM     14  C   LIG    1       14.507   3.330  56.129  0.00  0.00    +0.020 A 
ATOM     15  C   LIG    1       14.971   2.845  54.903  0.00  0.00    +0.006 A 
ENDBRANCH   1   9
BRANCH   1  16
ATOM     16  C   LIG    1       14.574   0.696  52.178  0.00  0.00    +0.201 C 
ATOM     17 CL   LIG    1       13.532   2.153  51.884  0.00  0.00    -0.082 Cl
ATOM     18 CL   LIG    1       13.439  -0.602  52.748  0.00  0.00    -0.082 Cl
ATOM     19 CL   LIG    1       15.197   0.175  50.570  0.00  0.00    -0.082 Cl
ENDBRANCH   1  16
TORSDOF 3
ENDMDL
MODEL 9
REMARK VINA RESULT:      -2.2      2.180      5.985
REMARK  Name = 
REMARK                            x       y       z     vdW  Elec       q    Type
REMARK                         _______ _______ _______ _____ _____    ______ ____
ROOT
ATOM      1  C   LIG    1       16.653   4.157  53.073  0.00  0.00    +0.100 C 
ENDROOT
BRANCH   1   6
ATOM      2 CL   LIG    1       13.518  -0.626  50.940  0.00  0.00    -0.084 Cl
ATOM      3  C   LIG    1       14.376   0.749  51.514  0.00  0.00    +0.041 A 
ATOM      4  C   LIG    1       13.711   1.749  52.208  0.00  0.00    +0.020 A 
ATOM      5  C   LIG    1       14.409   2.869  52.686  0.00  0.00    +0.006 A 
ATOM      6  C   LIG    1       15.795   2.999  52.498  0.00  0.00    -0.036 A 
ATOM      7  C   LIG    1       16.439   1.959  51.790  0.00  0.00    +0.006 A 
ATOM      8  C   LIG    1       15.743   0.853  51.294  0.00  0.00    +0.020 A 
ENDBRANCH   1   6
BRANCH   1   9
ATOM      9  C   LIG    1       16.367   5.508  52.369  0.00  0.00    -0.036 A 
ATOM     10  C   LIG    1       15.236   6.302  52.622  0.00  0.00    +0.006 A 
ATOM     11  C   LIG    1       15.064   7.539  51.986  0.00  0.00    +0.020 A 
ATOM     12  C   LIG    1       15.992   7.986  51.054  0.00  0.00    +0.041 A 
ATOM     13 CL   LIG    1       15.764   9.496  50.262  0.00  0.00    -0.084 Cl
ATOM     14  C   LIG    1       17.108   7.214  50.764  0.00  0.00    +0.020 A 
ATOM     15  C   LIG    1       17.302   6.001  51.432  0.00  0.00    +0.006 A 
ENDBRANCH   1   9
BRANCH   1  16
ATOM     16  C   LIG    1       16.904   4.213  54.635  0.00  0.00    +0.201 C 
ATOM     17 CL   LIG    1       18.116   5.499  55.045  0.00  0.00    -0.082 Cl
ATOM     18 CL   LIG    1       17.633   2.656  55.221  0.00  0.00    -0.082 Cl
ATOM     19 CL   LIG    1       15.453   4.527  55.656  0.00  0.00    -0.082 Cl
ENDBRANCH   1  16
TORSDOF 3
ENDMDL
