MODEL 1
REMARK VINA RESULT:      -6.4      0.000      0.000
REMARK  Name = 
REMARK                            x       y       z     vdW  Elec       q    Type
REMARK                         _______ _______ _______ _____ _____    ______ ____
ROOT
ATOM      1  C   LIG    1       27.963   0.572  19.857  0.00  0.00    +0.100 C 
ENDROOT
BRANCH   1   6
ATOM      2 CL   LIG    1       24.974   5.873  20.313  0.00  0.00    -0.084 Cl
ATOM      3  C   LIG    1       25.832   4.386  20.227  0.00  0.00    +0.041 A 
ATOM      4  C   LIG    1       25.521   3.348  21.093  0.00  0.00    +0.020 A 
ATOM      5  C   LIG    1       26.213   2.129  21.021  0.00  0.00    +0.006 A 
ATOM      6  C   LIG    1       27.217   1.916  20.061  0.00  0.00    -0.036 A 
ATOM      7  C   LIG    1       27.503   2.994  19.194  0.00  0.00    +0.006 A 
ATOM      8  C   LIG    1       26.831   4.217  19.278  0.00  0.00    +0.020 A 
ENDBRANCH   1   6
BRANCH   1   9
ATOM      9  C   LIG    1       28.693   0.100  21.140  0.00  0.00    -0.036 A 
ATOM     10  C   LIG    1       28.059  -0.548  22.212  0.00  0.00    +0.006 A 
ATOM     11  C   LIG    1       28.789  -0.992  23.324  0.00  0.00    +0.020 A 
ATOM     12  C   LIG    1       30.156  -0.758  23.406  0.00  0.00    +0.041 A 
ATOM     13 CL   LIG    1       31.043  -1.289  24.781  0.00  0.00    -0.084 Cl
ATOM     14  C   LIG    1       30.808  -0.100  22.373  0.00  0.00    +0.020 A 
ATOM     15  C   LIG    1       30.087   0.304  21.246  0.00  0.00    +0.006 A 
ENDBRANCH   1   9
BRANCH   1  16
ATOM     16  C   LIG    1       27.272  -0.554  18.984  0.00  0.00    +0.201 C 
ATOM     17 CL   LIG    1       25.740  -1.128  19.769  0.00  0.00    -0.082 Cl
ATOM     18 CL   LIG    1       28.338  -2.020  18.873  0.00  0.00    -0.082 Cl
ATOM     19 CL   LIG    1       26.845  -0.092  17.295  0.00  0.00    -0.082 Cl
ENDBRANCH   1  16
TORSDOF 3
ENDMDL
MODEL 2
REMARK VINA RESULT:      -6.1      0.615      5.642
REMARK  Name = 
REMARK                            x       y       z     vdW  Elec       q    Type
REMARK                         _______ _______ _______ _____ _____    ______ ____
ROOT
ATOM      1  C   LIG    1       27.145   0.049  20.642  0.00  0.00    +0.100 C 
ENDROOT
BRANCH   1   6
ATOM      2 CL   LIG    1       31.453  -1.191  24.784  0.00  0.00    -0.084 Cl
ATOM      3  C   LIG    1       30.249  -0.797  23.622  0.00  0.00    +0.041 A 
ATOM      4  C   LIG    1       30.601  -0.175  22.433  0.00  0.00    +0.020 A 
ATOM      5  C   LIG    1       29.622   0.141  21.477  0.00  0.00    +0.006 A 
ATOM      6  C   LIG    1       28.270  -0.182  21.684  0.00  0.00    -0.036 A 
ATOM      7  C   LIG    1       27.950  -0.819  22.904  0.00  0.00    +0.006 A 
ATOM      8  C   LIG    1       28.920  -1.115  23.867  0.00  0.00    +0.020 A 
ENDBRANCH   1   6
BRANCH   1   9
ATOM      9  C   LIG    1       26.785   1.548  20.485  0.00  0.00    -0.036 A 
ATOM     10  C   LIG    1       27.459   2.432  19.627  0.00  0.00    +0.006 A 
ATOM     11  C   LIG    1       27.049   3.767  19.496  0.00  0.00    +0.020 A 
ATOM     12  C   LIG    1       25.990   4.254  20.251  0.00  0.00    +0.041 A 
ATOM     13 CL   LIG    1       25.505   5.897  20.101  0.00  0.00    -0.084 Cl
ATOM     14  C   LIG    1       25.318   3.412  21.125  0.00  0.00    +0.020 A 
ATOM     15  C   LIG    1       25.699   2.070  21.223  0.00  0.00    +0.006 A 
ENDBRANCH   1   9
BRANCH   1  16
ATOM     16  C   LIG    1       27.146  -0.820  19.319  0.00  0.00    +0.201 C 
ATOM     17 CL   LIG    1       25.709  -1.927  19.275  0.00  0.00    -0.082 Cl
ATOM     18 CL   LIG    1       28.598  -1.910  19.270  0.00  0.00    -0.082 Cl
ATOM     19 CL   LIG    1       27.134   0.102  17.770  0.00  0.00    -0.082 Cl
ENDBRANCH   1  16
TORSDOF 3
ENDMDL
MODEL 3
REMARK VINA RESULT:      -5.7      2.988      5.030
REMARK  Name = 
REMARK                            x       y       z     vdW  Elec       q    Type
REMARK                         _______ _______ _______ _____ _____    ______ ____
ROOT
ATOM      1  C   LIG    1       25.544   2.793  18.863  0.00  0.00    +0.100 C 
ENDROOT
BRANCH   1   6
ATOM      2 CL   LIG    1       24.451   4.001  12.981  0.00  0.00    -0.084 Cl
ATOM      3  C   LIG    1       24.770   3.618  14.626  0.00  0.00    +0.041 A 
ATOM      4  C   LIG    1       26.042   3.232  15.021  0.00  0.00    +0.020 A 
ATOM      5  C   LIG    1       26.309   2.926  16.365  0.00  0.00    +0.006 A 
ATOM      6  C   LIG    1       25.309   3.024  17.347  0.00  0.00    -0.036 A 
ATOM      7  C   LIG    1       24.027   3.423  16.908  0.00  0.00    +0.006 A 
ATOM      8  C   LIG    1       23.753   3.707  15.567  0.00  0.00    +0.020 A 
ENDBRANCH   1   6
BRANCH   1   9
ATOM      9  C   LIG    1       26.403   1.534  19.142  0.00  0.00    -0.036 A 
ATOM     10  C   LIG    1       26.260   0.317  18.456  0.00  0.00    +0.006 A 
ATOM     11  C   LIG    1       27.105  -0.769  18.725  0.00  0.00    +0.020 A 
ATOM     12  C   LIG    1       28.077  -0.676  19.714  0.00  0.00    +0.041 A 
ATOM     13 CL   LIG    1       29.097  -2.018  20.053  0.00  0.00    -0.084 Cl
ATOM     14  C   LIG    1       28.227   0.505  20.427  0.00  0.00    +0.020 A 
ATOM     15  C   LIG    1       27.414   1.602  20.127  0.00  0.00    +0.006 A 
ENDBRANCH   1   9
BRANCH   1  16
ATOM     16  C   LIG    1       25.810   4.049  19.789  0.00  0.00    +0.201 C 
ATOM     17 CL   LIG    1       27.437   4.773  19.440  0.00  0.00    -0.082 Cl
ATOM     18 CL   LIG    1       25.865   3.554  21.536  0.00  0.00    -0.082 Cl
ATOM     19 CL   LIG    1       24.612   5.389  19.665  0.00  0.00    -0.082 Cl
ENDBRANCH   1  16
TORSDOF 3
ENDMDL
MODEL 4
REMARK VINA RESULT:      -5.5      0.782      5.531
REMARK  Name = 
REMARK                            x       y       z     vdW  Elec       q    Type
REMARK                         _______ _______ _______ _____ _____    ______ ____
ROOT
ATOM      1  C   LIG    1       26.920   0.150  20.468  0.00  0.00    +0.100 C 
ENDROOT
BRANCH   1   6
ATOM      2 CL   LIG    1       32.062  -0.744  23.632  0.00  0.00    -0.084 Cl
ATOM      3  C   LIG    1       30.613  -0.449  22.755  0.00  0.00    +0.041 A 
ATOM      4  C   LIG    1       30.597   0.477  21.722  0.00  0.00    +0.020 A 
ATOM      5  C   LIG    1       29.418   0.715  20.998  0.00  0.00    +0.006 A 
ATOM      6  C   LIG    1       28.235   0.012  21.279  0.00  0.00    -0.036 A 
ATOM      7  C   LIG    1       28.291  -0.926  22.334  0.00  0.00    +0.006 A 
ATOM      8  C   LIG    1       29.458  -1.150  23.072  0.00  0.00    +0.020 A 
ENDBRANCH   1   6
BRANCH   1   9
ATOM      9  C   LIG    1       26.438   1.620  20.371  0.00  0.00    -0.036 A 
ATOM     10  C   LIG    1       25.669   2.261  21.356  0.00  0.00    +0.006 A 
ATOM     11  C   LIG    1       25.308   3.610  21.228  0.00  0.00    +0.020 A 
ATOM     12  C   LIG    1       25.668   4.329  20.094  0.00  0.00    +0.041 A 
ATOM     13 CL   LIG    1       25.204   5.977  19.934  0.00  0.00    -0.084 Cl
ATOM     14  C   LIG    1       26.407   3.717  19.093  0.00  0.00    +0.020 A 
ATOM     15  C   LIG    1       26.804   2.385  19.242  0.00  0.00    +0.006 A 
ENDBRANCH   1   9
BRANCH   1  16
ATOM     16  C   LIG    1       26.729  -0.743  19.175  0.00  0.00    +0.201 C 
ATOM     17 CL   LIG    1       25.414  -1.968  19.428  0.00  0.00    -0.082 Cl
ATOM     18 CL   LIG    1       28.230  -1.707  18.836  0.00  0.00    -0.082 Cl
ATOM     19 CL   LIG    1       26.323   0.142  17.659  0.00  0.00    -0.082 Cl
ENDBRANCH   1  16
TORSDOF 3
ENDMDL
MODEL 5
REMARK VINA RESULT:      -5.4      2.452      4.317
REMARK  Name = 
REMARK                            x       y       z     vdW  Elec       q    Type
REMARK                         _______ _______ _______ _____ _____    ______ ____
ROOT
ATOM      1  C   LIG    1       25.981   2.365  20.004  0.00  0.00    +0.100 C 
ENDROOT
BRANCH   1   6
ATOM      2 CL   LIG    1       25.461   2.804  13.939  0.00  0.00    -0.084 Cl
ATOM      3  C   LIG    1       25.579   2.645  15.646  0.00  0.00    +0.041 A 
ATOM      4  C   LIG    1       26.097   1.487  16.207  0.00  0.00    +0.020 A 
ATOM      5  C   LIG    1       26.203   1.356  17.601  0.00  0.00    +0.006 A 
ATOM      6  C   LIG    1       25.812   2.395  18.462  0.00  0.00    -0.036 A 
ATOM      7  C   LIG    1       25.292   3.560  17.855  0.00  0.00    +0.006 A 
ATOM      8  C   LIG    1       25.165   3.685  16.468  0.00  0.00    +0.020 A 
ENDBRANCH   1   6
BRANCH   1   9
ATOM      9  C   LIG    1       27.148   1.449  20.452  0.00  0.00    -0.036 A 
ATOM     10  C   LIG    1       28.500   1.827  20.420  0.00  0.00    +0.006 A 
ATOM     11  C   LIG    1       29.503   0.966  20.887  0.00  0.00    +0.020 A 
ATOM     12  C   LIG    1       29.180  -0.303  21.352  0.00  0.00    +0.041 A 
ATOM     13 CL   LIG    1       30.417  -1.362  21.905  0.00  0.00    -0.084 Cl
ATOM     14  C   LIG    1       27.855  -0.715  21.375  0.00  0.00    +0.020 A 
ATOM     15  C   LIG    1       26.852   0.161  20.950  0.00  0.00    +0.006 A 
ENDBRANCH   1   9
BRANCH   1  16
ATOM     16  C   LIG    1       25.788   3.711  20.814  0.00  0.00    +0.201 C 
ATOM     17 CL   LIG    1       26.720   5.065  20.044  0.00  0.00    -0.082 Cl
ATOM     18 CL   LIG    1       26.467   3.550  22.491  0.00  0.00    -0.082 Cl
ATOM     19 CL   LIG    1       24.091   4.290  20.992  0.00  0.00    -0.082 Cl
ENDBRANCH   1  16
TORSDOF 3
ENDMDL
MODEL 6
REMARK VINA RESULT:      -3.7      2.795      7.089
REMARK  Name = 
REMARK                            x       y       z     vdW  Elec       q    Type
REMARK                         _______ _______ _______ _____ _____    ______ ____
ROOT
ATOM      1  C   LIG    1       26.558   3.328  18.938  0.00  0.00    +0.100 C 
ENDROOT
BRANCH   1   6
ATOM      2 CL   LIG    1       28.988  -2.061  20.454  0.00  0.00    -0.084 Cl
ATOM      3  C   LIG    1       28.312  -0.553  19.983  0.00  0.00    +0.041 A 
ATOM      4  C   LIG    1       27.173  -0.514  19.191  0.00  0.00    +0.020 A 
ATOM      5  C   LIG    1       26.612   0.716  18.811  0.00  0.00    +0.006 A 
ATOM      6  C   LIG    1       27.168   1.934  19.237  0.00  0.00    -0.036 A 
ATOM      7  C   LIG    1       28.325   1.854  20.045  0.00  0.00    +0.006 A 
ATOM      8  C   LIG    1       28.898   0.631  20.407  0.00  0.00    +0.020 A 
ENDBRANCH   1   6
BRANCH   1   9
ATOM      9  C   LIG    1       25.779   3.356  17.599  0.00  0.00    -0.036 A 
ATOM     10  C   LIG    1       24.380   3.430  17.505  0.00  0.00    +0.006 A 
ATOM     11  C   LIG    1       23.741   3.502  16.259  0.00  0.00    +0.020 A 
ATOM     12  C   LIG    1       24.482   3.456  15.085  0.00  0.00    +0.041 A 
ATOM     13 CL   LIG    1       23.691   3.524  13.560  0.00  0.00    -0.084 Cl
ATOM     14  C   LIG    1       25.865   3.359  15.144  0.00  0.00    +0.020 A 
ATOM     15  C   LIG    1       26.504   3.332  16.387  0.00  0.00    +0.006 A 
ENDBRANCH   1   9
BRANCH   1  16
ATOM     16  C   LIG    1       25.936   4.156  20.135  0.00  0.00    +0.201 C 
ATOM     17 CL   LIG    1       27.237   4.753  21.250  0.00  0.00    -0.082 Cl
ATOM     18 CL   LIG    1       24.869   3.100  21.157  0.00  0.00    -0.082 Cl
ATOM     19 CL   LIG    1       24.955   5.595  19.672  0.00  0.00    -0.082 Cl
ENDBRANCH   1  16
TORSDOF 3
ENDMDL
