MODEL 1
REMARK VINA RESULT:      -7.2      0.000      0.000
REMARK  Name = 
REMARK                            x       y       z     vdW  Elec       q    Type
REMARK                         _______ _______ _______ _____ _____    ______ ____
ROOT
ATOM      1  C   LIG    1        4.970  18.372  27.730  0.00  0.00    +0.100 C 
ENDROOT
BRANCH   1   6
ATOM      2 CL   LIG    1        8.570  23.052  26.186  0.00  0.00    -0.084 Cl
ATOM      3  C   LIG    1        7.576  21.733  26.662  0.00  0.00    +0.041 A 
ATOM      4  C   LIG    1        6.681  21.875  27.713  0.00  0.00    +0.020 A 
ATOM      5  C   LIG    1        5.861  20.803  28.100  0.00  0.00    +0.006 A 
ATOM      6  C   LIG    1        5.904  19.571  27.425  0.00  0.00    -0.036 A 
ATOM      7  C   LIG    1        6.825  19.466  26.358  0.00  0.00    +0.006 A 
ATOM      8  C   LIG    1        7.658  20.525  25.984  0.00  0.00    +0.020 A 
ENDBRANCH   1   6
BRANCH   1   9
ATOM      9  C   LIG    1        4.460  18.378  29.194  0.00  0.00    -0.036 A 
ATOM     10  C   LIG    1        3.327  19.083  29.628  0.00  0.00    +0.006 A 
ATOM     11  C   LIG    1        2.892  19.006  30.959  0.00  0.00    +0.020 A 
ATOM     12  C   LIG    1        3.606  18.260  31.889  0.00  0.00    +0.041 A 
ATOM     13 CL   LIG    1        3.078  18.185  33.524  0.00  0.00    -0.084 Cl
ATOM     14  C   LIG    1        4.743  17.570  31.497  0.00  0.00    +0.020 A 
ATOM     15  C   LIG    1        5.151  17.613  30.160  0.00  0.00    +0.006 A 
ENDBRANCH   1   9
BRANCH   1  16
ATOM     16  C   LIG    1        3.933  17.916  26.623  0.00  0.00    +0.201 C 
ATOM     17 CL   LIG    1        3.309  19.348  25.699  0.00  0.00    -0.082 Cl
ATOM     18 CL   LIG    1        2.471  17.160  27.390  0.00  0.00    -0.082 Cl
ATOM     19 CL   LIG    1        4.548  16.742  25.402  0.00  0.00    -0.082 Cl
ENDBRANCH   1  16
TORSDOF 3
ENDMDL
MODEL 2
REMARK VINA RESULT:      -7.1      1.950      5.689
REMARK  Name = 
REMARK                            x       y       z     vdW  Elec       q    Type
REMARK                         _______ _______ _______ _____ _____    ______ ____
ROOT
ATOM      1  C   LIG    1        3.579  18.935  28.895  0.00  0.00    +0.100 C 
ENDROOT
BRANCH   1   6
ATOM      2 CL   LIG    1        1.317  16.360  33.944  0.00  0.00    -0.084 Cl
ATOM      3  C   LIG    1        1.912  17.086  32.504  0.00  0.00    +0.041 A 
ATOM      4  C   LIG    1        1.481  18.350  32.128  0.00  0.00    +0.020 A 
ATOM      5  C   LIG    1        1.971  18.950  30.958  0.00  0.00    +0.006 A 
ATOM      6  C   LIG    1        2.922  18.304  30.150  0.00  0.00    -0.036 A 
ATOM      7  C   LIG    1        3.339  17.020  30.566  0.00  0.00    +0.006 A 
ATOM      8  C   LIG    1        2.837  16.411  31.720  0.00  0.00    +0.020 A 
ENDBRANCH   1   6
BRANCH   1   9
ATOM      9  C   LIG    1        5.042  19.378  29.154  0.00  0.00    -0.036 A 
ATOM     10  C   LIG    1        5.856  20.001  28.194  0.00  0.00    +0.006 A 
ATOM     11  C   LIG    1        7.156  20.421  28.511  0.00  0.00    +0.020 A 
ATOM     12  C   LIG    1        7.682  20.187  29.775  0.00  0.00    +0.041 A 
ATOM     13 CL   LIG    1        9.284  20.688  30.151  0.00  0.00    -0.084 Cl
ATOM     14  C   LIG    1        6.911  19.554  30.739  0.00  0.00    +0.020 A 
ATOM     15  C   LIG    1        5.600  19.174  30.436  0.00  0.00    +0.006 A 
ENDBRANCH   1   9
BRANCH   1  16
ATOM     16  C   LIG    1        3.275  18.299  27.478  0.00  0.00    +0.201 C 
ATOM     17 CL   LIG    1        1.635  17.522  27.460  0.00  0.00    -0.082 Cl
ATOM     18 CL   LIG    1        4.448  16.961  27.113  0.00  0.00    -0.082 Cl
ATOM     19 CL   LIG    1        3.324  19.431  26.077  0.00  0.00    -0.082 Cl
ENDBRANCH   1  16
TORSDOF 3
ENDMDL
MODEL 3
REMARK VINA RESULT:      -7.1      1.942      5.598
REMARK  Name = 
REMARK                            x       y       z     vdW  Elec       q    Type
REMARK                         _______ _______ _______ _____ _____    ______ ____
ROOT
ATOM      1  C   LIG    1        3.589  18.911  28.876  0.00  0.00    +0.100 C 
ENDROOT
BRANCH   1   6
ATOM      2 CL   LIG    1        1.291  16.407  33.945  0.00  0.00    -0.084 Cl
ATOM      3  C   LIG    1        1.896  17.112  32.499  0.00  0.00    +0.041 A 
ATOM      4  C   LIG    1        1.474  18.374  32.107  0.00  0.00    +0.020 A 
ATOM      5  C   LIG    1        1.972  18.958  30.932  0.00  0.00    +0.006 A 
ATOM      6  C   LIG    1        2.923  18.298  30.136  0.00  0.00    -0.036 A 
ATOM      7  C   LIG    1        3.331  17.016  30.569  0.00  0.00    +0.006 A 
ATOM      8  C   LIG    1        2.821  16.423  31.727  0.00  0.00    +0.020 A 
ENDBRANCH   1   6
BRANCH   1   9
ATOM      9  C   LIG    1        5.050  19.357  29.139  0.00  0.00    -0.036 A 
ATOM     10  C   LIG    1        5.874  19.955  28.173  0.00  0.00    +0.006 A 
ATOM     11  C   LIG    1        7.172  20.381  28.492  0.00  0.00    +0.020 A 
ATOM     12  C   LIG    1        7.686  20.174  29.766  0.00  0.00    +0.041 A 
ATOM     13 CL   LIG    1        9.285  20.680  30.145  0.00  0.00    -0.084 Cl
ATOM     14  C   LIG    1        6.904  19.564  30.737  0.00  0.00    +0.020 A 
ATOM     15  C   LIG    1        5.596  19.181  30.430  0.00  0.00    +0.006 A 
ENDBRANCH   1   9
BRANCH   1  16
ATOM     16  C   LIG    1        3.294  18.254  27.466  0.00  0.00    +0.201 C 
ATOM     17 CL   LIG    1        3.290  19.513  26.159  0.00  0.00    -0.082 Cl
ATOM     18 CL   LIG    1        1.632  17.522  27.437  0.00  0.00    -0.082 Cl
ATOM     19 CL   LIG    1        4.440  16.967  26.939  0.00  0.00    -0.082 Cl
ENDBRANCH   1  16
TORSDOF 3
ENDMDL
MODEL 4
REMARK VINA RESULT:      -7.0      1.922      2.954
REMARK  Name = 
REMARK                            x       y       z     vdW  Elec       q    Type
REMARK                         _______ _______ _______ _____ _____    ______ ____
ROOT
ATOM      1  C   LIG    1        4.076  18.057  28.885  0.00  0.00    +0.100 C 
ENDROOT
BRANCH   1   6
ATOM      2 CL   LIG    1        9.308  20.933  30.149  0.00  0.00    -0.084 Cl
ATOM      3  C   LIG    1        7.816  20.163  29.781  0.00  0.00    +0.041 A 
ATOM      4  C   LIG    1        7.311  20.197  28.490  0.00  0.00    +0.020 A 
ATOM      5  C   LIG    1        6.097  19.562  28.183  0.00  0.00    +0.006 A 
ATOM      6  C   LIG    1        5.374  18.860  29.162  0.00  0.00    -0.036 A 
ATOM      7  C   LIG    1        5.921  18.844  30.465  0.00  0.00    +0.006 A 
ATOM      8  C   LIG    1        7.119  19.494  30.778  0.00  0.00    +0.020 A 
ENDBRANCH   1   6
BRANCH   1   9
ATOM      9  C   LIG    1        3.127  18.028  30.111  0.00  0.00    -0.036 A 
ATOM     10  C   LIG    1        2.994  16.930  30.975  0.00  0.00    +0.006 A 
ATOM     11  C   LIG    1        2.152  16.989  32.095  0.00  0.00    +0.020 A 
ATOM     12  C   LIG    1        1.395  18.127  32.347  0.00  0.00    +0.041 A 
ATOM     13 CL   LIG    1        0.350  18.185  33.711  0.00  0.00    -0.084 Cl
ATOM     14  C   LIG    1        1.487  19.220  31.498  0.00  0.00    +0.020 A 
ATOM     15  C   LIG    1        2.360  19.177  30.407  0.00  0.00    +0.006 A 
ENDBRANCH   1   9
BRANCH   1  16
ATOM     16  C   LIG    1        3.390  18.190  27.464  0.00  0.00    +0.201 C 
ATOM     17 CL   LIG    1        1.678  17.590  27.518  0.00  0.00    -0.082 Cl
ATOM     18 CL   LIG    1        4.233  17.137  26.247  0.00  0.00    -0.082 Cl
ATOM     19 CL   LIG    1        3.333  19.850  26.767  0.00  0.00    -0.082 Cl
ENDBRANCH   1  16
TORSDOF 3
ENDMDL
MODEL 5
REMARK VINA RESULT:      -6.8      2.412      4.377
REMARK  Name = 
REMARK                            x       y       z     vdW  Elec       q    Type
REMARK                         _______ _______ _______ _____ _____    ______ ____
ROOT
ATOM      1  C   LIG    1        4.622  19.739  29.476  0.00  0.00    +0.100 C 
ENDROOT
BRANCH   1   6
ATOM      2 CL   LIG    1        3.914  16.238  24.527  0.00  0.00    -0.084 Cl
ATOM      3  C   LIG    1        4.147  17.246  25.900  0.00  0.00    +0.041 A 
ATOM      4  C   LIG    1        3.945  18.616  25.804  0.00  0.00    +0.020 A 
ATOM      5  C   LIG    1        4.126  19.442  26.925  0.00  0.00    +0.006 A 
ATOM      6  C   LIG    1        4.491  18.909  28.172  0.00  0.00    -0.036 A 
ATOM      7  C   LIG    1        4.685  17.510  28.232  0.00  0.00    +0.006 A 
ATOM      8  C   LIG    1        4.526  16.687  27.112  0.00  0.00    +0.020 A 
ENDBRANCH   1   6
BRANCH   1   9
ATOM      9  C   LIG    1        3.621  19.283  30.569  0.00  0.00    -0.036 A 
ATOM     10  C   LIG    1        3.892  18.278  31.512  0.00  0.00    +0.006 A 
ATOM     11  C   LIG    1        2.960  17.949  32.506  0.00  0.00    +0.020 A 
ATOM     12  C   LIG    1        1.724  18.583  32.548  0.00  0.00    +0.041 A 
ATOM     13 CL   LIG    1        0.577  18.159  33.758  0.00  0.00    -0.084 Cl
ATOM     14  C   LIG    1        1.417  19.563  31.616  0.00  0.00    +0.020 A 
ATOM     15  C   LIG    1        2.364  19.922  30.653  0.00  0.00    +0.006 A 
ENDBRANCH   1   9
BRANCH   1  16
ATOM     16  C   LIG    1        6.067  20.153  29.971  0.00  0.00    +0.201 C 
ATOM     17 CL   LIG    1        6.104  21.902  30.455  0.00  0.00    -0.082 Cl
ATOM     18 CL   LIG    1        7.273  20.000  28.622  0.00  0.00    -0.082 Cl
ATOM     19 CL   LIG    1        6.722  19.218  31.365  0.00  0.00    -0.082 Cl
ENDBRANCH   1  16
TORSDOF 3
ENDMDL
MODEL 6
REMARK VINA RESULT:      -6.7      2.436      6.363
REMARK  Name = 
REMARK                            x       y       z     vdW  Elec       q    Type
REMARK                         _______ _______ _______ _____ _____    ______ ____
ROOT
ATOM      1  C   LIG    1        5.047  18.755  29.803  0.00  0.00    +0.100 C 
ENDROOT
BRANCH   1   6
ATOM      2 CL   LIG    1        0.129  18.313  33.390  0.00  0.00    -0.084 Cl
ATOM      3  C   LIG    1        1.539  18.451  32.416  0.00  0.00    +0.041 A 
ATOM      4  C   LIG    1        2.644  17.652  32.668  0.00  0.00    +0.020 A 
ATOM      5  C   LIG    1        3.794  17.755  31.870  0.00  0.00    +0.006 A 
ATOM      6  C   LIG    1        3.852  18.647  30.785  0.00  0.00    -0.036 A 
ATOM      7  C   LIG    1        2.706  19.441  30.557  0.00  0.00    +0.006 A 
ATOM      8  C   LIG    1        1.567  19.356  31.364  0.00  0.00    +0.020 A 
ENDBRANCH   1   6
BRANCH   1   9
ATOM      9  C   LIG    1        4.608  18.613  28.322  0.00  0.00    -0.036 A 
ATOM     10  C   LIG    1        4.269  19.696  27.496  0.00  0.00    +0.006 A 
ATOM     11  C   LIG    1        3.929  19.500  26.150  0.00  0.00    +0.020 A 
ATOM     12  C   LIG    1        3.876  18.217  25.618  0.00  0.00    +0.041 A 
ATOM     13 CL   LIG    1        3.438  17.982  23.971  0.00  0.00    -0.084 Cl
ATOM     14  C   LIG    1        4.183  17.124  26.415  0.00  0.00    +0.020 A 
ATOM     15  C   LIG    1        4.565  17.324  27.745  0.00  0.00    +0.006 A 
ENDBRANCH   1   9
BRANCH   1  16
ATOM     16  C   LIG    1        6.183  19.816  30.103  0.00  0.00    +0.201 C 
ATOM     17 CL   LIG    1        7.487  19.735  28.844  0.00  0.00    -0.082 Cl
ATOM     18 CL   LIG    1        7.007  19.440  31.677  0.00  0.00    -0.082 Cl
ATOM     19 CL   LIG    1        5.654  21.536  30.189  0.00  0.00    -0.082 Cl
ENDBRANCH   1  16
TORSDOF 3
ENDMDL
MODEL 7
REMARK VINA RESULT:      -6.6      2.458      4.260
REMARK  Name = 
REMARK                            x       y       z     vdW  Elec       q    Type
REMARK                         _______ _______ _______ _____ _____    ______ ____
ROOT
ATOM      1  C   LIG    1        4.471  19.708  29.444  0.00  0.00    +0.100 C 
ENDROOT
BRANCH   1   6
ATOM      2 CL   LIG    1        4.081  16.247  24.432  0.00  0.00    -0.084 Cl
ATOM      3  C   LIG    1        4.157  17.197  25.863  0.00  0.00    +0.041 A 
ATOM      4  C   LIG    1        4.507  16.614  27.072  0.00  0.00    +0.020 A 
ATOM      5  C   LIG    1        4.579  17.388  28.241  0.00  0.00    +0.006 A 
ATOM      6  C   LIG    1        4.324  18.769  28.218  0.00  0.00    -0.036 A 
ATOM      7  C   LIG    1        3.974  19.328  26.969  0.00  0.00    +0.006 A 
ATOM      8  C   LIG    1        3.881  18.556  25.806  0.00  0.00    +0.020 A 
ENDBRANCH   1   6
BRANCH   1   9
ATOM      9  C   LIG    1        3.475  19.358  30.579  0.00  0.00    -0.036 A 
ATOM     10  C   LIG    1        2.242  20.002  30.768  0.00  0.00    +0.006 A 
ATOM     11  C   LIG    1        1.365  19.601  31.786  0.00  0.00    +0.020 A 
ATOM     12  C   LIG    1        1.722  18.583  32.661  0.00  0.00    +0.041 A 
ATOM     13 CL   LIG    1        0.651  18.110  33.921  0.00  0.00    -0.084 Cl
ATOM     14  C   LIG    1        2.944  17.942  32.515  0.00  0.00    +0.020 A 
ATOM     15  C   LIG    1        3.798  18.313  31.473  0.00  0.00    +0.006 A 
ENDBRANCH   1   9
BRANCH   1  16
ATOM     16  C   LIG    1        5.924  20.150  29.892  0.00  0.00    +0.201 C 
ATOM     17 CL   LIG    1        7.103  19.960  28.525  0.00  0.00    -0.082 Cl
ATOM     18 CL   LIG    1        6.541  19.071  31.216  0.00  0.00    -0.082 Cl
ATOM     19 CL   LIG    1        6.087  21.845  30.482  0.00  0.00    -0.082 Cl
ENDBRANCH   1  16
TORSDOF 3
ENDMDL
MODEL 8
REMARK VINA RESULT:      -6.6      2.072      2.898
REMARK  Name = 
REMARK                            x       y       z     vdW  Elec       q    Type
REMARK                         _______ _______ _______ _____ _____    ______ ____
ROOT
ATOM      1  C   LIG    1        3.967  17.939  29.366  0.00  0.00    +0.100 C 
ENDROOT
BRANCH   1   6
ATOM      2 CL   LIG    1        9.216  20.976  30.051  0.00  0.00    -0.084 Cl
ATOM      3  C   LIG    1        7.759  20.082  29.870  0.00  0.00    +0.041 A 
ATOM      4  C   LIG    1        7.198  19.430  30.958  0.00  0.00    +0.020 A 
ATOM      5  C   LIG    1        6.004  18.706  30.817  0.00  0.00    +0.006 A 
ATOM      6  C   LIG    1        5.334  18.639  29.584  0.00  0.00    -0.036 A 
ATOM      7  C   LIG    1        5.933  19.318  28.499  0.00  0.00    +0.006 A 
ATOM      8  C   LIG    1        7.134  20.022  28.632  0.00  0.00    +0.020 A 
ENDBRANCH   1   6
BRANCH   1   9
ATOM      9  C   LIG    1        3.146  17.826  30.676  0.00  0.00    -0.036 A 
ATOM     10  C   LIG    1        2.454  18.897  31.264  0.00  0.00    +0.006 A 
ATOM     11  C   LIG    1        1.689  18.714  32.425  0.00  0.00    +0.020 A 
ATOM     12  C   LIG    1        1.638  17.471  33.045  0.00  0.00    +0.041 A 
ATOM     13 CL   LIG    1        0.714  17.259  34.480  0.00  0.00    -0.084 Cl
ATOM     14  C   LIG    1        2.330  16.399  32.501  0.00  0.00    +0.020 A 
ATOM     15  C   LIG    1        3.056  16.572  31.319  0.00  0.00    +0.006 A 
ENDBRANCH   1   9
BRANCH   1  16
ATOM     16  C   LIG    1        3.152  18.259  28.047  0.00  0.00    +0.201 C 
ATOM     17 CL   LIG    1        3.776  17.281  26.652  0.00  0.00    -0.082 Cl
ATOM     18 CL   LIG    1        3.378  19.994  27.561  0.00  0.00    -0.082 Cl
ATOM     19 CL   LIG    1        1.375  17.967  28.128  0.00  0.00    -0.082 Cl
ENDBRANCH   1  16
TORSDOF 3
ENDMDL
MODEL 9
REMARK VINA RESULT:      -6.0      2.454      4.278
REMARK  Name = 
REMARK                            x       y       z     vdW  Elec       q    Type
REMARK                         _______ _______ _______ _____ _____    ______ ____
ROOT
ATOM      1  C   LIG    1        5.935  20.719  27.908  0.00  0.00    +0.100 C 
ENDROOT
BRANCH   1   6
ATOM      2 CL   LIG    1       10.205  22.453  23.908  0.00  0.00    -0.084 Cl
ATOM      3  C   LIG    1        9.028  21.982  25.068  0.00  0.00    +0.041 A 
ATOM      4  C   LIG    1        8.383  22.938  25.839  0.00  0.00    +0.020 A 
ATOM      5  C   LIG    1        7.415  22.558  26.782  0.00  0.00    +0.006 A 
ATOM      6  C   LIG    1        7.056  21.211  26.956  0.00  0.00    -0.036 A 
ATOM      7  C   LIG    1        7.731  20.266  26.151  0.00  0.00    +0.006 A 
ATOM      8  C   LIG    1        8.711  20.639  25.226  0.00  0.00    +0.020 A 
ENDBRANCH   1   6
BRANCH   1   9
ATOM      9  C   LIG    1        5.119  19.547  27.304  0.00  0.00    -0.036 A 
ATOM     10  C   LIG    1        4.205  19.689  26.247  0.00  0.00    +0.006 A 
ATOM     11  C   LIG    1        3.536  18.577  25.714  0.00  0.00    +0.020 A 
ATOM     12  C   LIG    1        3.733  17.313  26.256  0.00  0.00    +0.041 A 
ATOM     13 CL   LIG    1        2.894  15.957  25.612  0.00  0.00    -0.084 Cl
ATOM     14  C   LIG    1        4.612  17.143  27.316  0.00  0.00    +0.020 A 
ATOM     15  C   LIG    1        5.311  18.245  27.818  0.00  0.00    +0.006 A 
ENDBRANCH   1   9
BRANCH   1  16
ATOM     16  C   LIG    1        6.236  20.642  29.460  0.00  0.00    +0.201 C 
ATOM     17 CL   LIG    1        7.860  19.891  29.764  0.00  0.00    -0.082 Cl
ATOM     18 CL   LIG    1        5.039  19.558  30.291  0.00  0.00    -0.082 Cl
ATOM     19 CL   LIG    1        6.220  22.211  30.346  0.00  0.00    -0.082 Cl
ENDBRANCH   1  16
TORSDOF 3
ENDMDL
