MODEL 1
REMARK VINA RESULT:      -9.4      0.000      0.000
REMARK  Name = 
REMARK                            x       y       z     vdW  Elec       q    Type
REMARK                         _______ _______ _______ _____ _____    ______ ____
ROOT
ATOM      1  C   LIG    1       23.815 -15.860  17.504  0.00  0.00    +0.100 C 
ENDROOT
BRANCH   1   6
ATOM      2 CL   LIG    1       17.880 -14.794  18.447  0.00  0.00    -0.084 Cl
ATOM      3  C   LIG    1       19.562 -15.070  18.219  0.00  0.00    +0.041 A 
ATOM      4  C   LIG    1       20.293 -15.760  19.174  0.00  0.00    +0.020 A 
ATOM      5  C   LIG    1       21.665 -15.995  18.987  0.00  0.00    +0.006 A 
ATOM      6  C   LIG    1       22.328 -15.562  17.827  0.00  0.00    -0.036 A 
ATOM      7  C   LIG    1       21.549 -14.865  16.875  0.00  0.00    +0.006 A 
ATOM      8  C   LIG    1       20.188 -14.611  17.068  0.00  0.00    +0.020 A 
ENDBRANCH   1   6
BRANCH   1   9
ATOM      9  C   LIG    1       24.786 -15.147  18.480  0.00  0.00    -0.036 A 
ATOM     10  C   LIG    1       25.561 -15.813  19.443  0.00  0.00    +0.006 A 
ATOM     11  C   LIG    1       26.457 -15.111  20.262  0.00  0.00    +0.020 A 
ATOM     12  C   LIG    1       26.561 -13.729  20.167  0.00  0.00    +0.041 A 
ATOM     13 CL   LIG    1       27.647 -12.872  21.188  0.00  0.00    -0.084 Cl
ATOM     14  C   LIG    1       25.791 -13.039  19.242  0.00  0.00    +0.020 A 
ATOM     15  C   LIG    1       24.931 -13.745  18.395  0.00  0.00    +0.006 A 
ENDBRANCH   1   9
BRANCH   1  16
ATOM     16  C   LIG    1       24.215 -17.324  17.054  0.00  0.00    +0.201 C 
ATOM     17 CL   LIG    1       25.867 -17.337  16.301  0.00  0.00    -0.082 Cl
ATOM     18 CL   LIG    1       23.090 -17.926  15.762  0.00  0.00    -0.082 Cl
ATOM     19 CL   LIG    1       24.232 -18.572  18.354  0.00  0.00    -0.082 Cl
ENDBRANCH   1  16
TORSDOF 3
ENDMDL
MODEL 2
REMARK VINA RESULT:      -9.3      0.210      1.119
REMARK  Name = 
REMARK                            x       y       z     vdW  Elec       q    Type
REMARK                         _______ _______ _______ _____ _____    ______ ____
ROOT
ATOM      1  C   LIG    1       23.898 -16.021  17.443  0.00  0.00    +0.100 C 
ENDROOT
BRANCH   1   6
ATOM      2 CL   LIG    1       18.016 -14.806  18.526  0.00  0.00    -0.084 Cl
ATOM      3  C   LIG    1       19.661 -15.170  18.182  0.00  0.00    +0.041 A 
ATOM      4  C   LIG    1       20.269 -14.654  17.047  0.00  0.00    +0.020 A 
ATOM      5  C   LIG    1       21.614 -14.941  16.767  0.00  0.00    +0.006 A 
ATOM      6  C   LIG    1       22.386 -15.734  17.633  0.00  0.00    -0.036 A 
ATOM      7  C   LIG    1       21.734 -16.239  18.780  0.00  0.00    +0.006 A 
ATOM      8  C   LIG    1       20.388 -15.972  19.050  0.00  0.00    +0.020 A 
ENDBRANCH   1   6
BRANCH   1   9
ATOM      9  C   LIG    1       24.778 -15.247  18.458  0.00  0.00    -0.036 A 
ATOM     10  C   LIG    1       25.511 -15.857  19.487  0.00  0.00    +0.006 A 
ATOM     11  C   LIG    1       26.328 -15.101  20.341  0.00  0.00    +0.020 A 
ATOM     12  C   LIG    1       26.390 -13.719  20.211  0.00  0.00    +0.041 A 
ATOM     13 CL   LIG    1       27.377 -12.795  21.275  0.00  0.00    -0.084 Cl
ATOM     14  C   LIG    1       25.659 -13.084  19.219  0.00  0.00    +0.020 A 
ATOM     15  C   LIG    1       24.880 -13.843  18.340  0.00  0.00    +0.006 A 
ENDBRANCH   1   9
BRANCH   1  16
ATOM     16  C   LIG    1       24.353 -17.497  17.097  0.00  0.00    +0.201 C 
ATOM     17 CL   LIG    1       26.047 -17.513  16.447  0.00  0.00    -0.082 Cl
ATOM     18 CL   LIG    1       23.321 -18.190  15.773  0.00  0.00    -0.082 Cl
ATOM     19 CL   LIG    1       24.313 -18.676  18.460  0.00  0.00    -0.082 Cl
ENDBRANCH   1  16
TORSDOF 3
ENDMDL
MODEL 3
REMARK VINA RESULT:      -9.3      0.739      5.727
REMARK  Name = 
REMARK                            x       y       z     vdW  Elec       q    Type
REMARK                         _______ _______ _______ _____ _____    ______ ____
ROOT
ATOM      1  C   LIG    1       24.070 -16.670  18.227  0.00  0.00    +0.100 C 
ENDROOT
BRANCH   1   6
ATOM      2 CL   LIG    1       28.348 -12.782  20.182  0.00  0.00    -0.084 Cl
ATOM      3  C   LIG    1       27.111 -13.852  19.653  0.00  0.00    +0.041 A 
ATOM      4  C   LIG    1       26.100 -13.395  18.820  0.00  0.00    +0.020 A 
ATOM      5  C   LIG    1       25.093 -14.268  18.379  0.00  0.00    +0.006 A 
ATOM      6  C   LIG    1       25.091 -15.624  18.745  0.00  0.00    -0.036 A 
ATOM      7  C   LIG    1       26.138 -16.054  19.590  0.00  0.00    +0.006 A 
ATOM      8  C   LIG    1       27.131 -15.182  20.049  0.00  0.00    +0.020 A 
ENDBRANCH   1   6
BRANCH   1   9
ATOM      9  C   LIG    1       22.644 -16.079  18.077  0.00  0.00    -0.036 A 
ATOM     10  C   LIG    1       22.272 -15.169  17.075  0.00  0.00    +0.006 A 
ATOM     11  C   LIG    1       20.951 -14.711  16.967  0.00  0.00    +0.020 A 
ATOM     12  C   LIG    1       19.989 -15.118  17.884  0.00  0.00    +0.041 A 
ATOM     13 CL   LIG    1       18.375 -14.537  17.758  0.00  0.00    -0.084 Cl
ATOM     14  C   LIG    1       20.331 -15.998  18.901  0.00  0.00    +0.020 A 
ATOM     15  C   LIG    1       21.638 -16.488  18.981  0.00  0.00    +0.006 A 
ENDBRANCH   1   9
BRANCH   1  16
ATOM     16  C   LIG    1       24.530 -17.693  17.110  0.00  0.00    +0.201 C 
ATOM     17 CL   LIG    1       25.194 -19.207  17.859  0.00  0.00    -0.082 Cl
ATOM     18 CL   LIG    1       25.893 -16.999  16.131  0.00  0.00    -0.082 Cl
ATOM     19 CL   LIG    1       23.260 -18.211  15.942  0.00  0.00    -0.082 Cl
ENDBRANCH   1  16
TORSDOF 3
ENDMDL
MODEL 4
REMARK VINA RESULT:      -9.2      1.209      2.007
REMARK  Name = 
REMARK                            x       y       z     vdW  Elec       q    Type
REMARK                         _______ _______ _______ _____ _____    ______ ____
ROOT
ATOM      1  C   LIG    1       23.820 -16.858  17.093  0.00  0.00    +0.100 C 
ENDROOT
BRANCH   1   6
ATOM      2 CL   LIG    1       18.199 -14.638  17.942  0.00  0.00    -0.084 Cl
ATOM      3  C   LIG    1       19.775 -15.265  17.658  0.00  0.00    +0.041 A 
ATOM      4  C   LIG    1       20.690 -14.542  16.907  0.00  0.00    +0.020 A 
ATOM      5  C   LIG    1       21.981 -15.045  16.680  0.00  0.00    +0.006 A 
ATOM      6  C   LIG    1       22.389 -16.277  17.221  0.00  0.00    -0.036 A 
ATOM      7  C   LIG    1       21.430 -16.983  17.982  0.00  0.00    +0.006 A 
ATOM      8  C   LIG    1       20.137 -16.493  18.192  0.00  0.00    +0.020 A 
ENDBRANCH   1   6
BRANCH   1   9
ATOM      9  C   LIG    1       24.835 -16.138  18.018  0.00  0.00    -0.036 A 
ATOM     10  C   LIG    1       24.908 -16.332  19.406  0.00  0.00    +0.006 A 
ATOM     11  C   LIG    1       25.884 -15.685  20.177  0.00  0.00    +0.020 A 
ATOM     12  C   LIG    1       26.774 -14.797  19.584  0.00  0.00    +0.041 A 
ATOM     13 CL   LIG    1       27.955 -13.991  20.539  0.00  0.00    -0.084 Cl
ATOM     14  C   LIG    1       26.712 -14.565  18.218  0.00  0.00    +0.020 A 
ATOM     15  C   LIG    1       25.767 -15.245  17.443  0.00  0.00    +0.006 A 
ENDBRANCH   1   9
BRANCH   1  16
ATOM     16  C   LIG    1       23.993 -18.424  16.941  0.00  0.00    +0.201 C 
ATOM     17 CL   LIG    1       23.117 -19.300  18.268  0.00  0.00    -0.082 Cl
ATOM     18 CL   LIG    1       25.737 -18.896  17.120  0.00  0.00    -0.082 Cl
ATOM     19 CL   LIG    1       23.417 -19.135  15.388  0.00  0.00    -0.082 Cl
ENDBRANCH   1  16
TORSDOF 3
ENDMDL
MODEL 5
REMARK VINA RESULT:      -8.9      1.175      5.464
REMARK  Name = 
REMARK                            x       y       z     vdW  Elec       q    Type
REMARK                         _______ _______ _______ _____ _____    ______ ____
ROOT
ATOM      1  C   LIG    1       23.617 -17.201  18.412  0.00  0.00    +0.100 C 
ENDROOT
BRANCH   1   6
ATOM      2 CL   LIG    1       27.709 -12.752  19.254  0.00  0.00    -0.084 Cl
ATOM      3  C   LIG    1       26.583 -14.033  19.041  0.00  0.00    +0.041 A 
ATOM      4  C   LIG    1       25.939 -14.587  20.138  0.00  0.00    +0.020 A 
ATOM      5  C   LIG    1       25.012 -15.628  19.968  0.00  0.00    +0.006 A 
ATOM      6  C   LIG    1       24.693 -16.120  18.691  0.00  0.00    -0.036 A 
ATOM      7  C   LIG    1       25.367 -15.529  17.599  0.00  0.00    +0.006 A 
ATOM      8  C   LIG    1       26.306 -14.507  17.766  0.00  0.00    +0.020 A 
ENDBRANCH   1   6
BRANCH   1   9
ATOM      9  C   LIG    1       22.197 -16.596  18.267  0.00  0.00    -0.036 A 
ATOM     10  C   LIG    1       21.036 -17.181  18.799  0.00  0.00    +0.006 A 
ATOM     11  C   LIG    1       19.788 -16.554  18.673  0.00  0.00    +0.020 A 
ATOM     12  C   LIG    1       19.669 -15.357  17.978  0.00  0.00    +0.041 A 
ATOM     13 CL   LIG    1       18.132 -14.604  17.811  0.00  0.00    -0.084 Cl
ATOM     14  C   LIG    1       20.793 -14.766  17.421  0.00  0.00    +0.020 A 
ATOM     15  C   LIG    1       22.044 -15.369  17.584  0.00  0.00    +0.006 A 
ENDBRANCH   1   9
BRANCH   1  16
ATOM     16  C   LIG    1       23.977 -18.398  17.440  0.00  0.00    +0.201 C 
ATOM     17 CL   LIG    1       23.260 -18.128  15.795  0.00  0.00    -0.082 Cl
ATOM     18 CL   LIG    1       23.245 -19.948  18.038  0.00  0.00    -0.082 Cl
ATOM     19 CL   LIG    1       25.734 -18.712  17.192  0.00  0.00    -0.082 Cl
ENDBRANCH   1  16
TORSDOF 3
ENDMDL
MODEL 6
REMARK VINA RESULT:      -6.8      2.875      6.616
REMARK  Name = 
REMARK                            x       y       z     vdW  Elec       q    Type
REMARK                         _______ _______ _______ _____ _____    ______ ____
ROOT
ATOM      1  C   LIG    1       24.866 -15.661  17.758  0.00  0.00    +0.100 C 
ENDROOT
BRANCH   1   6
ATOM      2 CL   LIG    1       30.253 -15.336  20.608  0.00  0.00    -0.084 Cl
ATOM      3  C   LIG    1       28.726 -15.466  19.828  0.00  0.00    +0.041 A 
ATOM      4  C   LIG    1       27.555 -15.408  20.569  0.00  0.00    +0.020 A 
ATOM      5  C   LIG    1       26.306 -15.505  19.936  0.00  0.00    +0.006 A 
ATOM      6  C   LIG    1       26.204 -15.640  18.541  0.00  0.00    -0.036 A 
ATOM      7  C   LIG    1       27.418 -15.692  17.819  0.00  0.00    +0.006 A 
ATOM      8  C   LIG    1       28.664 -15.617  18.450  0.00  0.00    +0.020 A 
ENDBRANCH   1   6
BRANCH   1   9
ATOM      9  C   LIG    1       24.503 -17.079  17.248  0.00  0.00    -0.036 A 
ATOM     10  C   LIG    1       23.658 -17.328  16.155  0.00  0.00    +0.006 A 
ATOM     11  C   LIG    1       23.411 -18.637  15.714  0.00  0.00    +0.020 A 
ATOM     12  C   LIG    1       23.966 -19.720  16.384  0.00  0.00    +0.041 A 
ATOM     13 CL   LIG    1       23.642 -21.323  15.851  0.00  0.00    -0.084 Cl
ATOM     14  C   LIG    1       24.786 -19.508  17.483  0.00  0.00    +0.020 A 
ATOM     15  C   LIG    1       25.067 -18.202  17.893  0.00  0.00    +0.006 A 
ENDBRANCH   1   9
BRANCH   1  16
ATOM     16  C   LIG    1       23.666 -14.771  18.281  0.00  0.00    +0.201 C 
ATOM     17 CL   LIG    1       24.285 -13.310  19.161  0.00  0.00    -0.082 Cl
ATOM     18 CL   LIG    1       22.675 -15.685  19.498  0.00  0.00    -0.082 Cl
ATOM     19 CL   LIG    1       22.523 -14.169  17.025  0.00  0.00    -0.082 Cl
ENDBRANCH   1  16
TORSDOF 3
ENDMDL
MODEL 7
REMARK VINA RESULT:      -6.7      2.207      4.679
REMARK  Name = 
REMARK                            x       y       z     vdW  Elec       q    Type
REMARK                         _______ _______ _______ _____ _____    ______ ____
ROOT
ATOM      1  C   LIG    1       23.003 -16.387  18.607  0.00  0.00    +0.100 C 
ENDROOT
BRANCH   1   6
ATOM      2 CL   LIG    1       17.276 -14.312  18.236  0.00  0.00    -0.084 Cl
ATOM      3  C   LIG    1       18.881 -14.922  18.303  0.00  0.00    +0.041 A 
ATOM      4  C   LIG    1       19.771 -14.664  17.270  0.00  0.00    +0.020 A 
ATOM      5  C   LIG    1       21.086 -15.153  17.325  0.00  0.00    +0.006 A 
ATOM      6  C   LIG    1       21.544 -15.891  18.429  0.00  0.00    -0.036 A 
ATOM      7  C   LIG    1       20.611 -16.131  19.462  0.00  0.00    +0.006 A 
ATOM      8  C   LIG    1       19.295 -15.664  19.401  0.00  0.00    +0.020 A 
ENDBRANCH   1   6
BRANCH   1   9
ATOM      9  C   LIG    1       23.264 -17.729  17.877  0.00  0.00    -0.036 A 
ATOM     10  C   LIG    1       23.500 -18.947  18.534  0.00  0.00    +0.006 A 
ATOM     11  C   LIG    1       23.680 -20.136  17.811  0.00  0.00    +0.020 A 
ATOM     12  C   LIG    1       23.673 -20.122  16.422  0.00  0.00    +0.041 A 
ATOM     13 CL   LIG    1       23.915 -21.580  15.542  0.00  0.00    -0.084 Cl
ATOM     14  C   LIG    1       23.467 -18.930  15.743  0.00  0.00    +0.020 A 
ATOM     15  C   LIG    1       23.243 -17.753  16.465  0.00  0.00    +0.006 A 
ENDBRANCH   1   9
BRANCH   1  16
ATOM     16  C   LIG    1       24.176 -15.324  18.570  0.00  0.00    +0.201 C 
ATOM     17 CL   LIG    1       25.128 -15.363  20.114  0.00  0.00    -0.082 Cl
ATOM     18 CL   LIG    1       23.507 -13.639  18.457  0.00  0.00    -0.082 Cl
ATOM     19 CL   LIG    1       25.363 -15.505  17.227  0.00  0.00    -0.082 Cl
ENDBRANCH   1  16
TORSDOF 3
ENDMDL
MODEL 8
REMARK VINA RESULT:      -6.6      3.215      4.795
REMARK  Name = 
REMARK                            x       y       z     vdW  Elec       q    Type
REMARK                         _______ _______ _______ _____ _____    ______ ____
ROOT
ATOM      1  C   LIG    1       25.705 -15.145  19.356  0.00  0.00    +0.100 C 
ENDROOT
BRANCH   1   6
ATOM      2 CL   LIG    1       23.958 -19.986  16.077  0.00  0.00    -0.084 Cl
ATOM      3  C   LIG    1       24.492 -18.628  16.984  0.00  0.00    +0.041 A 
ATOM      4  C   LIG    1       24.991 -17.506  16.337  0.00  0.00    +0.020 A 
ATOM      5  C   LIG    1       25.421 -16.391  17.074  0.00  0.00    +0.006 A 
ATOM      6  C   LIG    1       25.338 -16.368  18.476  0.00  0.00    -0.036 A 
ATOM      7  C   LIG    1       24.822 -17.526  19.100  0.00  0.00    +0.006 A 
ATOM      8  C   LIG    1       24.413 -18.647  18.370  0.00  0.00    +0.020 A 
ENDBRANCH   1   6
BRANCH   1   9
ATOM      9  C   LIG    1       27.217 -15.093  19.695  0.00  0.00    -0.036 A 
ATOM     10  C   LIG    1       28.183 -15.922  19.103  0.00  0.00    +0.006 A 
ATOM     11  C   LIG    1       29.543 -15.789  19.420  0.00  0.00    +0.020 A 
ATOM     12  C   LIG    1       29.956 -14.859  20.365  0.00  0.00    +0.041 A 
ATOM     13 CL   LIG    1       31.623 -14.715  20.764  0.00  0.00    -0.084 Cl
ATOM     14  C   LIG    1       29.023 -14.041  20.985  0.00  0.00    +0.020 A 
ATOM     15  C   LIG    1       27.673 -14.144  20.636  0.00  0.00    +0.006 A 
ENDBRANCH   1   9
BRANCH   1  16
ATOM     16  C   LIG    1       25.001 -13.758  19.059  0.00  0.00    +0.201 C 
ATOM     17 CL   LIG    1       26.036 -12.729  17.981  0.00  0.00    -0.082 Cl
ATOM     18 CL   LIG    1       24.798 -12.803  20.591  0.00  0.00    -0.082 Cl
ATOM     19 CL   LIG    1       23.377 -13.848  18.282  0.00  0.00    -0.082 Cl
ENDBRANCH   1  16
TORSDOF 3
ENDMDL
MODEL 9
REMARK VINA RESULT:      -6.4      2.261      4.334
REMARK  Name = 
REMARK                            x       y       z     vdW  Elec       q    Type
REMARK                         _______ _______ _______ _____ _____    ______ ____
ROOT
ATOM      1  C   LIG    1       23.489 -16.119  18.492  0.00  0.00    +0.100 C 
ENDROOT
BRANCH   1   6
ATOM      2 CL   LIG    1       23.666 -21.563  15.739  0.00  0.00    -0.084 Cl
ATOM      3  C   LIG    1       23.658 -20.022  16.500  0.00  0.00    +0.041 A 
ATOM      4  C   LIG    1       23.786 -18.867  15.742  0.00  0.00    +0.020 A 
ATOM      5  C   LIG    1       23.772 -17.606  16.359  0.00  0.00    +0.006 A 
ATOM      6  C   LIG    1       23.606 -17.475  17.748  0.00  0.00    -0.036 A 
ATOM      7  C   LIG    1       23.476 -18.672  18.486  0.00  0.00    +0.006 A 
ATOM      8  C   LIG    1       23.511 -19.931  17.877  0.00  0.00    +0.020 A 
ENDBRANCH   1   6
BRANCH   1   9
ATOM      9  C   LIG    1       24.868 -15.452  18.725  0.00  0.00    -0.036 A 
ATOM     10  C   LIG    1       25.579 -14.754  17.736  0.00  0.00    +0.006 A 
ATOM     11  C   LIG    1       26.802 -14.130  18.028  0.00  0.00    +0.020 A 
ATOM     12  C   LIG    1       27.356 -14.231  19.298  0.00  0.00    +0.041 A 
ATOM     13 CL   LIG    1       28.865 -13.481  19.643  0.00  0.00    -0.084 Cl
ATOM     14  C   LIG    1       26.689 -14.934  20.290  0.00  0.00    +0.020 A 
ATOM     15  C   LIG    1       25.450 -15.518  20.010  0.00  0.00    +0.006 A 
ENDBRANCH   1   9
BRANCH   1  16
ATOM     16  C   LIG    1       22.290 -15.153  18.125  0.00  0.00    +0.201 C 
ATOM     17 CL   LIG    1       22.677 -13.442  18.590  0.00  0.00    -0.082 Cl
ATOM     18 CL   LIG    1       20.804 -15.588  19.075  0.00  0.00    -0.082 Cl
ATOM     19 CL   LIG    1       21.807 -15.119  16.389  0.00  0.00    -0.082 Cl
ENDBRANCH   1  16
TORSDOF 3
ENDMDL
