MODEL 1
REMARK VINA RESULT:      -7.6      0.000      0.000
REMARK  Name = 
REMARK                            x       y       z     vdW  Elec       q    Type
REMARK                         _______ _______ _______ _____ _____    ______ ____
ROOT
ATOM      1  C   LIG    1        4.200   8.252  -3.273  0.00  0.00    +0.100 C 
ENDROOT
BRANCH   1   6
ATOM      2 CL   LIG    1        4.983  13.779  -0.805  0.00  0.00    -0.084 Cl
ATOM      3  C   LIG    1        4.806  12.223  -1.514  0.00  0.00    +0.041 A 
ATOM      4  C   LIG    1        5.562  11.155  -1.055  0.00  0.00    +0.020 A 
ATOM      5  C   LIG    1        5.415   9.880  -1.625  0.00  0.00    +0.006 A 
ATOM      6  C   LIG    1        4.488   9.645  -2.654  0.00  0.00    -0.036 A 
ATOM      7  C   LIG    1        3.733  10.756  -3.093  0.00  0.00    +0.006 A 
ATOM      8  C   LIG    1        3.893  12.031  -2.542  0.00  0.00    +0.020 A 
ENDBRANCH   1   6
BRANCH   1   9
ATOM      9  C   LIG    1        3.077   7.493  -2.520  0.00  0.00    -0.036 A 
ATOM     10  C   LIG    1        2.415   6.364  -3.029  0.00  0.00    +0.006 A 
ATOM     11  C   LIG    1        1.441   5.695  -2.274  0.00  0.00    +0.020 A 
ATOM     12  C   LIG    1        1.080   6.166  -1.018  0.00  0.00    +0.041 A 
ATOM     13 CL   LIG    1       -0.129   5.352  -0.105  0.00  0.00    -0.084 Cl
ATOM     14  C   LIG    1        1.699   7.293  -0.497  0.00  0.00    +0.020 A 
ATOM     15  C   LIG    1        2.700   7.933  -1.232  0.00  0.00    +0.006 A 
ENDBRANCH   1   9
BRANCH   1  16
ATOM     16  C   LIG    1        4.220   8.103  -4.849  0.00  0.00    +0.201 C 
ATOM     17 CL   LIG    1        4.762   6.439  -5.330  0.00  0.00    -0.082 Cl
ATOM     18 CL   LIG    1        5.432   9.238  -5.583  0.00  0.00    -0.082 Cl
ATOM     19 CL   LIG    1        2.654   8.397  -5.689  0.00  0.00    -0.082 Cl
ENDBRANCH   1  16
TORSDOF 3
ENDMDL
MODEL 2
REMARK VINA RESULT:      -7.6      0.209      1.608
REMARK  Name = 
REMARK                            x       y       z     vdW  Elec       q    Type
REMARK                         _______ _______ _______ _____ _____    ______ ____
ROOT
ATOM      1  C   LIG    1        4.168   8.341  -3.062  0.00  0.00    +0.100 C 
ENDROOT
BRANCH   1   6
ATOM      2 CL   LIG    1        5.240  13.870  -0.710  0.00  0.00    -0.084 Cl
ATOM      3  C   LIG    1        4.895  12.316  -1.359  0.00  0.00    +0.041 A 
ATOM      4  C   LIG    1        3.976  12.177  -2.389  0.00  0.00    +0.020 A 
ATOM      5  C   LIG    1        3.697  10.911  -2.928  0.00  0.00    +0.006 A 
ATOM      6  C   LIG    1        4.351   9.759  -2.460  0.00  0.00    -0.036 A 
ATOM      7  C   LIG    1        5.283   9.940  -1.413  0.00  0.00    +0.006 A 
ATOM      8  C   LIG    1        5.547  11.197  -0.860  0.00  0.00    +0.020 A 
ENDBRANCH   1   6
BRANCH   1   9
ATOM      9  C   LIG    1        3.033   7.547  -2.365  0.00  0.00    -0.036 A 
ATOM     10  C   LIG    1        2.388   6.437  -2.934  0.00  0.00    +0.006 A 
ATOM     11  C   LIG    1        1.402   5.733  -2.228  0.00  0.00    +0.020 A 
ATOM     12  C   LIG    1        1.011   6.151  -0.961  0.00  0.00    +0.041 A 
ATOM     13 CL   LIG    1       -0.213   5.294  -0.109  0.00  0.00    -0.084 Cl
ATOM     14  C   LIG    1        1.613   7.258  -0.381  0.00  0.00    +0.020 A 
ATOM     15  C   LIG    1        2.627   7.932  -1.068  0.00  0.00    +0.006 A 
ENDBRANCH   1   9
BRANCH   1  16
ATOM     16  C   LIG    1        4.298   8.159  -4.629  0.00  0.00    +0.201 C 
ATOM     17 CL   LIG    1        5.467   9.363  -5.321  0.00  0.00    -0.082 Cl
ATOM     18 CL   LIG    1        2.712   8.500  -5.446  0.00  0.00    -0.082 Cl
ATOM     19 CL   LIG    1        4.837   6.535  -5.192  0.00  0.00    -0.082 Cl
ENDBRANCH   1  16
TORSDOF 3
ENDMDL
MODEL 3
REMARK VINA RESULT:      -7.4      1.643      5.488
REMARK  Name = 
REMARK                            x       y       z     vdW  Elec       q    Type
REMARK                         _______ _______ _______ _____ _____    ______ ____
ROOT
ATOM      1  C   LIG    1        3.485   8.887  -3.444  0.00  0.00    +0.100 C 
ENDROOT
BRANCH   1   6
ATOM      2 CL   LIG    1        4.374   4.138   0.285  0.00  0.00    -0.084 Cl
ATOM      3  C   LIG    1        4.088   5.453  -0.784  0.00  0.00    +0.041 A 
ATOM      4  C   LIG    1        2.892   6.153  -0.728  0.00  0.00    +0.020 A 
ATOM      5  C   LIG    1        2.658   7.234  -1.594  0.00  0.00    +0.006 A 
ATOM      6  C   LIG    1        3.629   7.650  -2.519  0.00  0.00    -0.036 A 
ATOM      7  C   LIG    1        4.836   6.916  -2.545  0.00  0.00    +0.006 A 
ATOM      8  C   LIG    1        5.064   5.826  -1.699  0.00  0.00    +0.020 A 
ENDBRANCH   1   6
BRANCH   1   9
ATOM      9  C   LIG    1        3.990  10.189  -2.772  0.00  0.00    -0.036 A 
ATOM     10  C   LIG    1        3.697  11.479  -3.240  0.00  0.00    +0.006 A 
ATOM     11  C   LIG    1        4.147  12.618  -2.555  0.00  0.00    +0.020 A 
ATOM     12  C   LIG    1        4.934  12.487  -1.417  0.00  0.00    +0.041 A 
ATOM     13 CL   LIG    1        5.498  13.887  -0.592  0.00  0.00    -0.084 Cl
ATOM     14  C   LIG    1        5.260  11.225  -0.942  0.00  0.00    +0.020 A 
ATOM     15  C   LIG    1        4.775  10.092  -1.601  0.00  0.00    +0.006 A 
ENDBRANCH   1   9
BRANCH   1  16
ATOM     16  C   LIG    1        3.798   8.721  -4.987  0.00  0.00    +0.201 C 
ATOM     17 CL   LIG    1        2.608   9.657  -5.988  0.00  0.00    -0.082 Cl
ATOM     18 CL   LIG    1        3.603   6.989  -5.497  0.00  0.00    -0.082 Cl
ATOM     19 CL   LIG    1        5.439   9.240  -5.519  0.00  0.00    -0.082 Cl
ENDBRANCH   1  16
TORSDOF 3
ENDMDL
MODEL 4
REMARK VINA RESULT:      -6.8      1.672      2.230
REMARK  Name = 
REMARK                            x       y       z     vdW  Elec       q    Type
REMARK                         _______ _______ _______ _____ _____    ______ ____
ROOT
ATOM      1  C   LIG    1        4.641   9.165  -3.474  0.00  0.00    +0.100 C 
ENDROOT
BRANCH   1   6
ATOM      2 CL   LIG    1        5.186  14.301  -0.222  0.00  0.00    -0.084 Cl
ATOM      3  C   LIG    1        4.987  12.858  -1.135  0.00  0.00    +0.041 A 
ATOM      4  C   LIG    1        4.352  12.892  -2.368  0.00  0.00    +0.020 A 
ATOM      5  C   LIG    1        4.195  11.718  -3.121  0.00  0.00    +0.006 A 
ATOM      6  C   LIG    1        4.692  10.486  -2.663  0.00  0.00    -0.036 A 
ATOM      7  C   LIG    1        5.335  10.491  -1.405  0.00  0.00    +0.006 A 
ATOM      8  C   LIG    1        5.474  11.655  -0.643  0.00  0.00    +0.020 A 
ENDBRANCH   1   6
BRANCH   1   9
ATOM      9  C   LIG    1        4.491   7.919  -2.563  0.00  0.00    -0.036 A 
ATOM     10  C   LIG    1        5.320   6.789  -2.635  0.00  0.00    +0.006 A 
ATOM     11  C   LIG    1        5.161   5.716  -1.747  0.00  0.00    +0.020 A 
ATOM     12  C   LIG    1        4.142   5.732  -0.801  0.00  0.00    +0.041 A 
ATOM     13 CL   LIG    1        3.939   4.404   0.273  0.00  0.00    -0.084 Cl
ATOM     14  C   LIG    1        3.291   6.825  -0.719  0.00  0.00    +0.020 A 
ATOM     15  C   LIG    1        3.479   7.913  -1.577  0.00  0.00    +0.006 A 
ENDBRANCH   1   9
BRANCH   1  16
ATOM     16  C   LIG    1        3.839   9.142  -4.838  0.00  0.00    +0.201 C 
ATOM     17 CL   LIG    1        3.030   7.536  -5.082  0.00  0.00    -0.082 Cl
ATOM     18 CL   LIG    1        4.968   9.334  -6.247  0.00  0.00    -0.082 Cl
ATOM     19 CL   LIG    1        2.558  10.396  -5.022  0.00  0.00    -0.082 Cl
ENDBRANCH   1  16
TORSDOF 3
ENDMDL
MODEL 5
REMARK VINA RESULT:      -6.7      1.946      4.282
REMARK  Name = 
REMARK                            x       y       z     vdW  Elec       q    Type
REMARK                         _______ _______ _______ _____ _____    ______ ____
ROOT
ATOM      1  C   LIG    1        3.453   8.435  -2.840  0.00  0.00    +0.100 C 
ENDROOT
BRANCH   1   6
ATOM      2 CL   LIG    1        5.317  13.811  -0.631  0.00  0.00    -0.084 Cl
ATOM      3  C   LIG    1        4.834  12.290  -1.271  0.00  0.00    +0.041 A 
ATOM      4  C   LIG    1        5.452  11.124  -0.845  0.00  0.00    +0.020 A 
ATOM      5  C   LIG    1        5.055   9.879  -1.359  0.00  0.00    +0.006 A 
ATOM      6  C   LIG    1        4.012   9.776  -2.294  0.00  0.00    -0.036 A 
ATOM      7  C   LIG    1        3.404  10.984  -2.702  0.00  0.00    +0.006 A 
ATOM      8  C   LIG    1        3.812  12.227  -2.208  0.00  0.00    +0.020 A 
ENDBRANCH   1   6
BRANCH   1   9
ATOM      9  C   LIG    1        4.304   7.873  -4.007  0.00  0.00    -0.036 A 
ATOM     10  C   LIG    1        4.510   6.504  -4.240  0.00  0.00    +0.006 A 
ATOM     11  C   LIG    1        5.251   6.062  -5.346  0.00  0.00    +0.020 A 
ATOM     12  C   LIG    1        5.836   6.978  -6.212  0.00  0.00    +0.041 A 
ATOM     13 CL   LIG    1        6.760   6.429  -7.554  0.00  0.00    -0.084 Cl
ATOM     14  C   LIG    1        5.670   8.338  -5.995  0.00  0.00    +0.020 A 
ATOM     15  C   LIG    1        4.895   8.777  -4.918  0.00  0.00    +0.006 A 
ENDBRANCH   1   9
BRANCH   1  16
ATOM     16  C   LIG    1        2.880   7.378  -1.811  0.00  0.00    +0.201 C 
ATOM     17 CL   LIG    1        2.076   8.211  -0.413  0.00  0.00    -0.082 Cl
ATOM     18 CL   LIG    1        4.225   6.399  -1.083  0.00  0.00    -0.082 Cl
ATOM     19 CL   LIG    1        1.680   6.206  -2.471  0.00  0.00    -0.082 Cl
ENDBRANCH   1  16
TORSDOF 3
ENDMDL
MODEL 6
REMARK VINA RESULT:      -6.6      1.540      2.657
REMARK  Name = 
REMARK                            x       y       z     vdW  Elec       q    Type
REMARK                         _______ _______ _______ _____ _____    ______ ____
ROOT
ATOM      1  C   LIG    1        4.797  10.044  -2.809  0.00  0.00    +0.100 C 
ENDROOT
BRANCH   1   6
ATOM      2 CL   LIG    1        5.378  15.313   0.216  0.00  0.00    -0.084 Cl
ATOM      3  C   LIG    1        5.169  13.832  -0.631  0.00  0.00    +0.041 A 
ATOM      4  C   LIG    1        4.468  13.803  -1.828  0.00  0.00    +0.020 A 
ATOM      5  C   LIG    1        4.302  12.597  -2.527  0.00  0.00    +0.006 A 
ATOM      6  C   LIG    1        4.857  11.397  -2.052  0.00  0.00    -0.036 A 
ATOM      7  C   LIG    1        5.567  11.466  -0.832  0.00  0.00    +0.006 A 
ATOM      8  C   LIG    1        5.715  12.661  -0.123  0.00  0.00    +0.020 A 
ENDBRANCH   1   6
BRANCH   1   9
ATOM      9  C   LIG    1        4.009   8.963  -2.025  0.00  0.00    -0.036 A 
ATOM     10  C   LIG    1        2.904   9.238  -1.204  0.00  0.00    +0.006 A 
ATOM     11  C   LIG    1        2.206   8.205  -0.561  0.00  0.00    +0.020 A 
ATOM     12  C   LIG    1        2.625   6.886  -0.690  0.00  0.00    +0.041 A 
ATOM     13 CL   LIG    1        1.776   5.627   0.116  0.00  0.00    -0.084 Cl
ATOM     14  C   LIG    1        3.728   6.585  -1.476  0.00  0.00    +0.020 A 
ATOM     15  C   LIG    1        4.397   7.611  -2.151  0.00  0.00    +0.006 A 
ENDBRANCH   1   9
BRANCH   1  16
ATOM     16  C   LIG    1        4.600  10.061  -4.379  0.00  0.00    +0.201 C 
ATOM     17 CL   LIG    1        5.754  11.225  -5.159  0.00  0.00    -0.082 Cl
ATOM     18 CL   LIG    1        2.942  10.663  -4.809  0.00  0.00    -0.082 Cl
ATOM     19 CL   LIG    1        4.815   8.481  -5.219  0.00  0.00    -0.082 Cl
ENDBRANCH   1  16
TORSDOF 3
ENDMDL
MODEL 7
REMARK VINA RESULT:      -6.2      3.059      5.120
REMARK  Name = 
REMARK                            x       y       z     vdW  Elec       q    Type
REMARK                         _______ _______ _______ _____ _____    ______ ____
ROOT
ATOM      1  C   LIG    1        4.175   7.607  -5.095  0.00  0.00    +0.100 C 
ENDROOT
BRANCH   1   6
ATOM      2 CL   LIG    1        9.202   6.250  -8.279  0.00  0.00    -0.084 Cl
ATOM      3  C   LIG    1        7.762   6.604  -7.408  0.00  0.00    +0.041 A 
ATOM      4  C   LIG    1        7.110   5.605  -6.701  0.00  0.00    +0.020 A 
ATOM      5  C   LIG    1        5.938   5.891  -5.981  0.00  0.00    +0.006 A 
ATOM      6  C   LIG    1        5.409   7.191  -5.938  0.00  0.00    -0.036 A 
ATOM      7  C   LIG    1        6.102   8.183  -6.668  0.00  0.00    +0.006 A 
ATOM      8  C   LIG    1        7.257   7.896  -7.402  0.00  0.00    +0.020 A 
ENDBRANCH   1   6
BRANCH   1   9
ATOM      9  C   LIG    1        4.062   6.800  -3.776  0.00  0.00    -0.036 A 
ATOM     10  C   LIG    1        2.950   6.017  -3.428  0.00  0.00    +0.006 A 
ATOM     11  C   LIG    1        2.934   5.272  -2.240  0.00  0.00    +0.020 A 
ATOM     12  C   LIG    1        4.006   5.331  -1.358  0.00  0.00    +0.041 A 
ATOM     13 CL   LIG    1        3.971   4.431   0.107  0.00  0.00    -0.084 Cl
ATOM     14  C   LIG    1        5.109   6.115  -1.663  0.00  0.00    +0.020 A 
ATOM     15  C   LIG    1        5.143   6.823  -2.868  0.00  0.00    +0.006 A 
ENDBRANCH   1   9
BRANCH   1  16
ATOM     16  C   LIG    1        3.789   9.141  -5.020  0.00  0.00    +0.201 C 
ATOM     17 CL   LIG    1        3.142   9.561  -3.377  0.00  0.00    -0.082 Cl
ATOM     18 CL   LIG    1        2.445   9.520  -6.181  0.00  0.00    -0.082 Cl
ATOM     19 CL   LIG    1        5.119  10.307  -5.363  0.00  0.00    -0.082 Cl
ENDBRANCH   1  16
TORSDOF 3
ENDMDL
MODEL 8
REMARK VINA RESULT:      -6.2      0.727      5.537
REMARK  Name = 
REMARK                            x       y       z     vdW  Elec       q    Type
REMARK                         _______ _______ _______ _____ _____    ______ ____
ROOT
ATOM      1  C   LIG    1        3.436   8.382  -3.307  0.00  0.00    +0.100 C 
ENDROOT
BRANCH   1   6
ATOM      2 CL   LIG    1       -0.257   5.189   0.355  0.00  0.00    -0.084 Cl
ATOM      3  C   LIG    1        0.810   6.052  -0.678  0.00  0.00    +0.041 A 
ATOM      4  C   LIG    1        1.036   5.613  -1.975  0.00  0.00    +0.020 A 
ATOM      5  C   LIG    1        1.901   6.320  -2.826  0.00  0.00    +0.006 A 
ATOM      6  C   LIG    1        2.541   7.496  -2.401  0.00  0.00    -0.036 A 
ATOM      7  C   LIG    1        2.284   7.915  -1.077  0.00  0.00    +0.006 A 
ATOM      8  C   LIG    1        1.440   7.201  -0.220  0.00  0.00    +0.020 A 
ENDBRANCH   1   6
BRANCH   1   9
ATOM      9  C   LIG    1        3.980   9.628  -2.561  0.00  0.00    -0.036 A 
ATOM     10  C   LIG    1        5.021   9.587  -1.620  0.00  0.00    +0.006 A 
ATOM     11  C   LIG    1        5.499  10.760  -1.018  0.00  0.00    +0.020 A 
ATOM     12  C   LIG    1        4.917  11.987  -1.310  0.00  0.00    +0.041 A 
ATOM     13 CL   LIG    1        5.494  13.419  -0.553  0.00  0.00    -0.084 Cl
ATOM     14  C   LIG    1        3.870  12.058  -2.218  0.00  0.00    +0.020 A 
ATOM     15  C   LIG    1        3.424  10.894  -2.850  0.00  0.00    +0.006 A 
ENDBRANCH   1   9
BRANCH   1  16
ATOM     16  C   LIG    1        4.427   7.676  -4.318  0.00  0.00    +0.201 C 
ATOM     17 CL   LIG    1        5.547   8.888  -5.073  0.00  0.00    -0.082 Cl
ATOM     18 CL   LIG    1        3.511   6.938  -5.701  0.00  0.00    -0.082 Cl
ATOM     19 CL   LIG    1        5.465   6.375  -3.627  0.00  0.00    -0.082 Cl
ENDBRANCH   1  16
TORSDOF 3
ENDMDL
MODEL 9
REMARK VINA RESULT:      -6.0      2.925      5.250
REMARK  Name = 
REMARK                            x       y       z     vdW  Elec       q    Type
REMARK                         _______ _______ _______ _____ _____    ______ ____
ROOT
ATOM      1  C   LIG    1        4.202   7.572  -5.498  0.00  0.00    +0.100 C 
ENDROOT
BRANCH   1   6
ATOM      2 CL   LIG    1        9.370   5.228  -7.743  0.00  0.00    -0.084 Cl
ATOM      3  C   LIG    1        7.939   5.922  -7.092  0.00  0.00    +0.041 A 
ATOM      4  C   LIG    1        7.541   7.195  -7.474  0.00  0.00    +0.020 A 
ATOM      5  C   LIG    1        6.368   7.762  -6.951  0.00  0.00    +0.006 A 
ATOM      6  C   LIG    1        5.556   7.054  -6.049  0.00  0.00    -0.036 A 
ATOM      7  C   LIG    1        5.991   5.760  -5.686  0.00  0.00    +0.006 A 
ATOM      8  C   LIG    1        7.170   5.201  -6.189  0.00  0.00    +0.020 A 
ENDBRANCH   1   6
BRANCH   1   9
ATOM      9  C   LIG    1        3.971   7.164  -4.020  0.00  0.00    -0.036 A 
ATOM     10  C   LIG    1        4.621   7.763  -2.930  0.00  0.00    +0.006 A 
ATOM     11  C   LIG    1        4.329   7.379  -1.613  0.00  0.00    +0.020 A 
ATOM     12  C   LIG    1        3.417   6.360  -1.364  0.00  0.00    +0.041 A 
ATOM     13 CL   LIG    1        3.078   5.880   0.252  0.00  0.00    -0.084 Cl
ATOM     14  C   LIG    1        2.776   5.732  -2.422  0.00  0.00    +0.020 A 
ATOM     15  C   LIG    1        3.035   6.146  -3.732  0.00  0.00    +0.006 A 
ENDBRANCH   1   9
BRANCH   1  16
ATOM     16  C   LIG    1        3.716   9.020  -5.915  0.00  0.00    +0.201 C 
ATOM     17 CL   LIG    1        2.923   8.987  -7.547  0.00  0.00    -0.082 Cl
ATOM     18 CL   LIG    1        5.132  10.144  -6.087  0.00  0.00    -0.082 Cl
ATOM     19 CL   LIG    1        2.552   9.815  -4.792  0.00  0.00    -0.082 Cl
ENDBRANCH   1  16
TORSDOF 3
ENDMDL
