MODEL 1
REMARK VINA RESULT:      -4.9      0.000      0.000
REMARK  Name = 
REMARK                            x       y       z     vdW  Elec       q    Type
REMARK                         _______ _______ _______ _____ _____    ______ ____
ROOT
ATOM      1  C   LIG    1        0.987  31.400   6.096  0.00  0.00    +0.100 C 
ENDROOT
BRANCH   1   6
ATOM      2 CL   LIG    1        6.637  29.428   4.901  0.00  0.00    -0.084 Cl
ATOM      3  C   LIG    1        5.064  30.019   5.260  0.00  0.00    +0.041 A 
ATOM      4  C   LIG    1        4.651  31.250   4.773  0.00  0.00    +0.020 A 
ATOM      5  C   LIG    1        3.363  31.733   5.056  0.00  0.00    +0.006 A 
ATOM      6  C   LIG    1        2.453  30.980   5.817  0.00  0.00    -0.036 A 
ATOM      7  C   LIG    1        2.908  29.730   6.293  0.00  0.00    +0.006 A 
ATOM      8  C   LIG    1        4.197  29.256   6.031  0.00  0.00    +0.020 A 
ENDBRANCH   1   6
BRANCH   1   9
ATOM      9  C   LIG    1        0.625  32.756   5.437  0.00  0.00    -0.036 A 
ATOM     10  C   LIG    1        0.306  32.908   4.079  0.00  0.00    +0.006 A 
ATOM     11  C   LIG    1       -0.061  34.157   3.557  0.00  0.00    +0.020 A 
ATOM     12  C   LIG    1       -0.071  35.283   4.372  0.00  0.00    +0.041 A 
ATOM     13 CL   LIG    1       -0.503  36.816   3.721  0.00  0.00    -0.084 Cl
ATOM     14  C   LIG    1        0.261  35.169   5.713  0.00  0.00    +0.020 A 
ATOM     15  C   LIG    1        0.584  33.916   6.242  0.00  0.00    +0.006 A 
ENDBRANCH   1   9
BRANCH   1  16
ATOM     16  C   LIG    1       -0.138  30.286   6.082  0.00  0.00    +0.201 C 
ATOM     17 CL   LIG    1       -1.747  31.002   5.647  0.00  0.00    -0.082 Cl
ATOM     18 CL   LIG    1       -0.357  29.577   7.740  0.00  0.00    -0.082 Cl
ATOM     19 CL   LIG    1        0.133  28.905   4.957  0.00  0.00    -0.082 Cl
ENDBRANCH   1  16
TORSDOF 3
ENDMDL
MODEL 2
REMARK VINA RESULT:      -4.8      0.817      5.703
REMARK  Name = 
REMARK                            x       y       z     vdW  Elec       q    Type
REMARK                         _______ _______ _______ _____ _____    ______ ____
ROOT
ATOM      1  C   LIG    1        1.197  30.972   4.780  0.00  0.00    +0.100 C 
ENDROOT
BRANCH   1   6
ATOM      2 CL   LIG    1        0.111  36.958   4.290  0.00  0.00    -0.084 Cl
ATOM      3  C   LIG    1        0.458  35.282   4.446  0.00  0.00    +0.041 A 
ATOM      4  C   LIG    1        0.647  34.721   5.701  0.00  0.00    +0.020 A 
ATOM      5  C   LIG    1        0.922  33.350   5.834  0.00  0.00    +0.006 A 
ATOM      6  C   LIG    1        0.990  32.508   4.712  0.00  0.00    -0.036 A 
ATOM      7  C   LIG    1        0.788  33.114   3.451  0.00  0.00    +0.006 A 
ATOM      8  C   LIG    1        0.535  34.482   3.314  0.00  0.00    +0.020 A 
ENDBRANCH   1   6
BRANCH   1   9
ATOM      9  C   LIG    1        2.696  30.581   4.845  0.00  0.00    -0.036 A 
ATOM     10  C   LIG    1        3.752  31.496   4.713  0.00  0.00    +0.006 A 
ATOM     11  C   LIG    1        5.087  31.081   4.832  0.00  0.00    +0.020 A 
ATOM     12  C   LIG    1        5.391  29.741   5.039  0.00  0.00    +0.041 A 
ATOM     13 CL   LIG    1        7.030  29.237   5.164  0.00  0.00    -0.084 Cl
ATOM     14  C   LIG    1        4.370  28.809   5.151  0.00  0.00    +0.020 A 
ATOM     15  C   LIG    1        3.039  29.230   5.076  0.00  0.00    +0.006 A 
ENDBRANCH   1   9
BRANCH   1  16
ATOM     16  C   LIG    1        0.203  30.111   5.661  0.00  0.00    +0.201 C 
ATOM     17 CL   LIG    1        0.061  28.424   5.007  0.00  0.00    -0.082 Cl
ATOM     18 CL   LIG    1       -1.476  30.800   5.590  0.00  0.00    -0.082 Cl
ATOM     19 CL   LIG    1        0.629  29.953   7.405  0.00  0.00    -0.082 Cl
ENDBRANCH   1  16
TORSDOF 3
ENDMDL
MODEL 3
REMARK VINA RESULT:      -4.8      0.964      5.605
REMARK  Name = 
REMARK                            x       y       z     vdW  Elec       q    Type
REMARK                         _______ _______ _______ _____ _____    ______ ____
ROOT
ATOM      1  C   LIG    1        1.235  30.982   4.702  0.00  0.00    +0.100 C 
ENDROOT
BRANCH   1   6
ATOM      2 CL   LIG    1        0.801  37.069   4.596  0.00  0.00    -0.084 Cl
ATOM      3  C   LIG    1        0.882  35.352   4.607  0.00  0.00    +0.041 A 
ATOM      4  C   LIG    1        0.860  34.643   3.414  0.00  0.00    +0.020 A 
ATOM      5  C   LIG    1        0.934  33.241   3.418  0.00  0.00    +0.006 A 
ATOM      6  C   LIG    1        1.056  32.520   4.618  0.00  0.00    -0.036 A 
ATOM      7  C   LIG    1        1.078  33.276   5.811  0.00  0.00    +0.006 A 
ATOM      8  C   LIG    1        0.983  34.671   5.812  0.00  0.00    +0.020 A 
ENDBRANCH   1   6
BRANCH   1   9
ATOM      9  C   LIG    1        2.725  30.566   4.796  0.00  0.00    -0.036 A 
ATOM     10  C   LIG    1        3.799  31.465   4.701  0.00  0.00    +0.006 A 
ATOM     11  C   LIG    1        5.124  31.027   4.844  0.00  0.00    +0.020 A 
ATOM     12  C   LIG    1        5.402  29.680   5.039  0.00  0.00    +0.041 A 
ATOM     13 CL   LIG    1        7.030  29.147   5.194  0.00  0.00    -0.084 Cl
ATOM     14  C   LIG    1        4.363  28.763   5.114  0.00  0.00    +0.020 A 
ATOM     15  C   LIG    1        3.041  29.206   5.014  0.00  0.00    +0.006 A 
ENDBRANCH   1   9
BRANCH   1  16
ATOM     16  C   LIG    1        0.212  30.145   5.572  0.00  0.00    +0.201 C 
ATOM     17 CL   LIG    1        0.037  28.462   4.917  0.00  0.00    -0.082 Cl
ATOM     18 CL   LIG    1       -1.449  30.874   5.484  0.00  0.00    -0.082 Cl
ATOM     19 CL   LIG    1        0.615  29.978   7.321  0.00  0.00    -0.082 Cl
ENDBRANCH   1  16
TORSDOF 3
ENDMDL
MODEL 4
REMARK VINA RESULT:      -4.7      2.734      3.846
REMARK  Name = 
REMARK                            x       y       z     vdW  Elec       q    Type
REMARK                         _______ _______ _______ _____ _____    ______ ____
ROOT
ATOM      1  C   LIG    1        1.368  31.968   3.881  0.00  0.00    +0.100 C 
ENDROOT
BRANCH   1   6
ATOM      2 CL   LIG    1        3.795  26.602   5.482  0.00  0.00    -0.084 Cl
ATOM      3  C   LIG    1        3.109  28.099   4.987  0.00  0.00    +0.041 A 
ATOM      4  C   LIG    1        1.836  28.138   4.438  0.00  0.00    +0.020 A 
ATOM      5  C   LIG    1        1.269  29.359   4.041  0.00  0.00    +0.006 A 
ATOM      6  C   LIG    1        1.959  30.572   4.208  0.00  0.00    -0.036 A 
ATOM      7  C   LIG    1        3.251  30.493   4.773  0.00  0.00    +0.006 A 
ATOM      8  C   LIG    1        3.827  29.276   5.150  0.00  0.00    +0.020 A 
ENDBRANCH   1   6
BRANCH   1   9
ATOM      9  C   LIG    1        0.465  32.508   5.019  0.00  0.00    -0.036 A 
ATOM     10  C   LIG    1        0.641  32.197   6.377  0.00  0.00    +0.006 A 
ATOM     11  C   LIG    1       -0.183  32.760   7.362  0.00  0.00    +0.020 A 
ATOM     12  C   LIG    1       -1.225  33.608   7.005  0.00  0.00    +0.041 A 
ATOM     13 CL   LIG    1       -2.245  34.279   8.216  0.00  0.00    -0.084 Cl
ATOM     14  C   LIG    1       -1.441  33.916   5.670  0.00  0.00    +0.020 A 
ATOM     15  C   LIG    1       -0.591  33.389   4.693  0.00  0.00    +0.006 A 
ENDBRANCH   1   9
BRANCH   1  16
ATOM     16  C   LIG    1        2.286  33.027   3.145  0.00  0.00    +0.201 C 
ATOM     17 CL   LIG    1        3.364  33.878   4.331  0.00  0.00    -0.082 Cl
ATOM     18 CL   LIG    1        1.275  34.332   2.388  0.00  0.00    -0.082 Cl
ATOM     19 CL   LIG    1        3.357  32.379   1.849  0.00  0.00    -0.082 Cl
ENDBRANCH   1  16
TORSDOF 3
ENDMDL
MODEL 5
REMARK VINA RESULT:      -4.5      2.231      6.348
REMARK  Name = 
REMARK                            x       y       z     vdW  Elec       q    Type
REMARK                         _______ _______ _______ _____ _____    ______ ____
ROOT
ATOM      1  C   LIG    1        2.401  32.442   4.923  0.00  0.00    +0.100 C 
ENDROOT
BRANCH   1   6
ATOM      2 CL   LIG    1       -1.870  36.676   3.887  0.00  0.00    -0.084 Cl
ATOM      3  C   LIG    1       -0.698  35.459   4.203  0.00  0.00    +0.041 A 
ATOM      4  C   LIG    1       -0.884  34.169   3.729  0.00  0.00    +0.020 A 
ATOM      5  C   LIG    1        0.075  33.174   3.977  0.00  0.00    +0.006 A 
ATOM      6  C   LIG    1        1.254  33.458   4.687  0.00  0.00    -0.036 A 
ATOM      7  C   LIG    1        1.410  34.784   5.150  0.00  0.00    +0.006 A 
ATOM      8  C   LIG    1        0.447  35.771   4.923  0.00  0.00    +0.020 A 
ENDBRANCH   1   6
BRANCH   1   9
ATOM      9  C   LIG    1        1.873  31.020   5.247  0.00  0.00    -0.036 A 
ATOM     10  C   LIG    1        1.418  30.622   6.514  0.00  0.00    +0.006 A 
ATOM     11  C   LIG    1        0.906  29.333   6.727  0.00  0.00    +0.020 A 
ATOM     12  C   LIG    1        0.882  28.407   5.691  0.00  0.00    +0.041 A 
ATOM     13 CL   LIG    1        0.272  26.822   5.964  0.00  0.00    -0.084 Cl
ATOM     14  C   LIG    1        1.347  28.763   4.433  0.00  0.00    +0.020 A 
ATOM     15  C   LIG    1        1.815  30.061   4.212  0.00  0.00    +0.006 A 
ENDBRANCH   1   9
BRANCH   1  16
ATOM     16  C   LIG    1        3.689  32.524   4.006  0.00  0.00    +0.201 C 
ATOM     17 CL   LIG    1        3.265  32.202   2.271  0.00  0.00    -0.082 Cl
ATOM     18 CL   LIG    1        4.881  31.231   4.461  0.00  0.00    -0.082 Cl
ATOM     19 CL   LIG    1        4.581  34.089   4.037  0.00  0.00    -0.082 Cl
ENDBRANCH   1  16
TORSDOF 3
ENDMDL
MODEL 6
REMARK VINA RESULT:      -4.2      2.670      3.683
REMARK  Name = 
REMARK                            x       y       z     vdW  Elec       q    Type
REMARK                         _______ _______ _______ _____ _____    ______ ____
ROOT
ATOM      1  C   LIG    1        1.806  31.850   4.013  0.00  0.00    +0.100 C 
ENDROOT
BRANCH   1   6
ATOM      2 CL   LIG    1        3.795  26.366   5.806  0.00  0.00    -0.084 Cl
ATOM      3  C   LIG    1        3.220  27.919   5.344  0.00  0.00    +0.041 A 
ATOM      4  C   LIG    1        3.761  29.063   5.912  0.00  0.00    +0.020 A 
ATOM      5  C   LIG    1        3.301  30.333   5.531  0.00  0.00    +0.006 A 
ATOM      6  C   LIG    1        2.303  30.484   4.554  0.00  0.00    -0.036 A 
ATOM      7  C   LIG    1        1.778  29.297   3.995  0.00  0.00    +0.006 A 
ATOM      8  C   LIG    1        2.220  28.030   4.388  0.00  0.00    +0.020 A 
ENDBRANCH   1   6
BRANCH   1   9
ATOM      9  C   LIG    1        0.657  32.441   4.870  0.00  0.00    -0.036 A 
ATOM     10  C   LIG    1       -0.656  32.622   4.405  0.00  0.00    +0.006 A 
ATOM     11  C   LIG    1       -1.660  33.117   5.250  0.00  0.00    +0.020 A 
ATOM     12  C   LIG    1       -1.362  33.483   6.557  0.00  0.00    +0.041 A 
ATOM     13 CL   LIG    1       -2.594  34.108   7.581  0.00  0.00    -0.084 Cl
ATOM     14  C   LIG    1       -0.069  33.338   7.038  0.00  0.00    +0.020 A 
ATOM     15  C   LIG    1        0.921  32.803   6.209  0.00  0.00    +0.006 A 
ENDBRANCH   1   9
BRANCH   1  16
ATOM     16  C   LIG    1        2.871  32.879   3.455  0.00  0.00    +0.201 C 
ATOM     17 CL   LIG    1        3.060  32.698   1.659  0.00  0.00    -0.082 Cl
ATOM     18 CL   LIG    1        4.514  32.538   4.150  0.00  0.00    -0.082 Cl
ATOM     19 CL   LIG    1        2.525  34.620   3.764  0.00  0.00    -0.082 Cl
ENDBRANCH   1  16
TORSDOF 3
ENDMDL
MODEL 7
REMARK VINA RESULT:      -4.2      2.314      3.971
REMARK  Name = 
REMARK                            x       y       z     vdW  Elec       q    Type
REMARK                         _______ _______ _______ _____ _____    ______ ____
ROOT
ATOM      1  C   LIG    1        2.236  31.822   3.934  0.00  0.00    +0.100 C 
ENDROOT
BRANCH   1   6
ATOM      2 CL   LIG    1        0.179  26.606   6.345  0.00  0.00    -0.084 Cl
ATOM      3  C   LIG    1        0.783  28.051   5.636  0.00  0.00    +0.041 A 
ATOM      4  C   LIG    1        0.498  28.353   4.312  0.00  0.00    +0.020 A 
ATOM      5  C   LIG    1        0.981  29.536   3.731  0.00  0.00    +0.006 A 
ATOM      6  C   LIG    1        1.743  30.454   4.473  0.00  0.00    -0.036 A 
ATOM      7  C   LIG    1        2.011  30.114   5.818  0.00  0.00    +0.006 A 
ATOM      8  C   LIG    1        1.548  28.927   6.394  0.00  0.00    +0.020 A 
ENDBRANCH   1   6
BRANCH   1   9
ATOM      9  C   LIG    1        1.133  32.909   3.987  0.00  0.00    -0.036 A 
ATOM     10  C   LIG    1        0.037  32.874   4.864  0.00  0.00    +0.006 A 
ATOM     11  C   LIG    1       -0.900  33.918   4.895  0.00  0.00    +0.020 A 
ATOM     12  C   LIG    1       -0.784  34.991   4.020  0.00  0.00    +0.041 A 
ATOM     13 CL   LIG    1       -1.947  36.258   4.048  0.00  0.00    -0.084 Cl
ATOM     14  C   LIG    1        0.275  35.044   3.125  0.00  0.00    +0.020 A 
ATOM     15  C   LIG    1        1.232  34.025   3.126  0.00  0.00    +0.006 A 
ENDBRANCH   1   9
BRANCH   1  16
ATOM     16  C   LIG    1        3.707  32.290   4.283  0.00  0.00    +0.201 C 
ATOM     17 CL   LIG    1        3.688  33.537   5.602  0.00  0.00    -0.082 Cl
ATOM     18 CL   LIG    1        4.473  33.109   2.855  0.00  0.00    -0.082 Cl
ATOM     19 CL   LIG    1        4.843  30.996   4.813  0.00  0.00    -0.082 Cl
ENDBRANCH   1  16
TORSDOF 3
ENDMDL
MODEL 8
REMARK VINA RESULT:      -3.9      1.966      5.481
REMARK  Name = 
REMARK                            x       y       z     vdW  Elec       q    Type
REMARK                         _______ _______ _______ _____ _____    ______ ____
ROOT
ATOM      1  C   LIG    1        0.307  31.524   5.130  0.00  0.00    +0.100 C 
ENDROOT
BRANCH   1   6
ATOM      2 CL   LIG    1        2.605  37.082   4.096  0.00  0.00    -0.084 Cl
ATOM      3  C   LIG    1        1.996  35.498   4.370  0.00  0.00    +0.041 A 
ATOM      4  C   LIG    1        2.635  34.648   5.261  0.00  0.00    +0.020 A 
ATOM      5  C   LIG    1        2.137  33.357   5.495  0.00  0.00    +0.006 A 
ATOM      6  C   LIG    1        0.971  32.898   4.858  0.00  0.00    -0.036 A 
ATOM      7  C   LIG    1        0.346  33.793   3.961  0.00  0.00    +0.006 A 
ATOM      8  C   LIG    1        0.852  35.072   3.709  0.00  0.00    +0.020 A 
ENDBRANCH   1   6
BRANCH   1   9
ATOM      9  C   LIG    1        1.302  30.346   4.977  0.00  0.00    -0.036 A 
ATOM     10  C   LIG    1        2.569  30.305   5.580  0.00  0.00    +0.006 A 
ATOM     11  C   LIG    1        3.402  29.184   5.440  0.00  0.00    +0.020 A 
ATOM     12  C   LIG    1        3.003  28.106   4.659  0.00  0.00    +0.041 A 
ATOM     13 CL   LIG    1        4.037  26.744   4.476  0.00  0.00    -0.084 Cl
ATOM     14  C   LIG    1        1.766  28.126   4.031  0.00  0.00    +0.020 A 
ATOM     15  C   LIG    1        0.919  29.225   4.207  0.00  0.00    +0.006 A 
ENDBRANCH   1   9
BRANCH   1  16
ATOM     16  C   LIG    1       -0.746  31.410   6.307  0.00  0.00    +0.201 C 
ATOM     17 CL   LIG    1       -2.420  31.163   5.650  0.00  0.00    -0.082 Cl
ATOM     18 CL   LIG    1       -0.821  32.960   7.250  0.00  0.00    -0.082 Cl
ATOM     19 CL   LIG    1       -0.459  30.088   7.497  0.00  0.00    -0.082 Cl
ENDBRANCH   1  16
TORSDOF 3
ENDMDL
MODEL 9
REMARK VINA RESULT:      -3.2      1.989      2.370
REMARK  Name = 
REMARK                            x       y       z     vdW  Elec       q    Type
REMARK                         _______ _______ _______ _____ _____    ______ ____
ROOT
ATOM      1  C   LIG    1        1.027  31.752   6.317  0.00  0.00    +0.100 C 
ENDROOT
BRANCH   1   6
ATOM      2 CL   LIG    1        3.829  26.745   4.237  0.00  0.00    -0.084 Cl
ATOM      3  C   LIG    1        3.052  28.177   4.784  0.00  0.00    +0.041 A 
ATOM      4  C   LIG    1        1.977  28.702   4.081  0.00  0.00    +0.020 A 
ATOM      5  C   LIG    1        1.334  29.867   4.529  0.00  0.00    +0.006 A 
ATOM      6  C   LIG    1        1.741  30.517   5.707  0.00  0.00    -0.036 A 
ATOM      7  C   LIG    1        2.835  29.951   6.398  0.00  0.00    +0.006 A 
ATOM      8  C   LIG    1        3.492  28.804   5.942  0.00  0.00    +0.020 A 
ENDBRANCH   1   6
BRANCH   1   9
ATOM      9  C   LIG    1        1.559  33.088   5.737  0.00  0.00    -0.036 A 
ATOM     10  C   LIG    1        2.670  33.187   4.884  0.00  0.00    +0.006 A 
ATOM     11  C   LIG    1        3.069  34.423   4.356  0.00  0.00    +0.020 A 
ATOM     12  C   LIG    1        2.395  35.587   4.706  0.00  0.00    +0.041 A 
ATOM     13 CL   LIG    1        2.902  37.102   4.070  0.00  0.00    -0.084 Cl
ATOM     14  C   LIG    1        1.308  35.525   5.565  0.00  0.00    +0.020 A 
ATOM     15  C   LIG    1        0.884  34.287   6.056  0.00  0.00    +0.006 A 
ENDBRANCH   1   9
BRANCH   1  16
ATOM     16  C   LIG    1       -0.531  31.671   6.588  0.00  0.00    +0.201 C 
ATOM     17 CL   LIG    1       -1.073  33.049   7.637  0.00  0.00    -0.082 Cl
ATOM     18 CL   LIG    1       -0.940  30.166   7.517  0.00  0.00    -0.082 Cl
ATOM     19 CL   LIG    1       -1.588  31.687   5.129  0.00  0.00    -0.082 Cl
ENDBRANCH   1  16
TORSDOF 3
ENDMDL
