MODEL 1
REMARK VINA RESULT:      -7.7      0.000      0.000
REMARK  Name = 
REMARK                            x       y       z     vdW  Elec       q    Type
REMARK                         _______ _______ _______ _____ _____    ______ ____
ROOT
ATOM      1  C   LIG    1      -46.696  11.865 -44.887  0.00  0.00    +0.100 C 
ENDROOT
BRANCH   1   6
ATOM      2 CL   LIG    1      -50.182  11.291 -39.911  0.00  0.00    -0.084 Cl
ATOM      3  C   LIG    1      -49.163  11.451 -41.286  0.00  0.00    +0.041 A 
ATOM      4  C   LIG    1      -48.284  10.433 -41.626  0.00  0.00    +0.020 A 
ATOM      5  C   LIG    1      -47.455  10.556 -42.753  0.00  0.00    +0.006 A 
ATOM      6  C   LIG    1      -47.508  11.693 -43.577  0.00  0.00    -0.036 A 
ATOM      7  C   LIG    1      -48.419  12.706 -43.201  0.00  0.00    +0.006 A 
ATOM      8  C   LIG    1      -49.229  12.596 -42.067  0.00  0.00    +0.020 A 
ENDBRANCH   1   6
BRANCH   1   9
ATOM      9  C   LIG    1      -45.333  12.566 -44.648  0.00  0.00    -0.036 A 
ATOM     10  C   LIG    1      -44.812  13.571 -45.478  0.00  0.00    +0.006 A 
ATOM     11  C   LIG    1      -43.595  14.199 -45.176  0.00  0.00    +0.020 A 
ATOM     12  C   LIG    1      -42.855  13.803 -44.068  0.00  0.00    +0.041 A 
ATOM     13 CL   LIG    1      -41.353  14.563 -43.716  0.00  0.00    -0.084 Cl
ATOM     14  C   LIG    1      -43.332  12.796 -43.242  0.00  0.00    +0.020 A 
ATOM     15  C   LIG    1      -44.567  12.201 -43.519  0.00  0.00    +0.006 A 
ENDBRANCH   1   9
BRANCH   1  16
ATOM     16  C   LIG    1      -46.709  10.690 -45.948  0.00  0.00    +0.201 C 
ATOM     17 CL   LIG    1      -46.530  11.343 -47.632  0.00  0.00    -0.082 Cl
ATOM     18 CL   LIG    1      -48.309   9.831 -45.930  0.00  0.00    -0.082 Cl
ATOM     19 CL   LIG    1      -45.438   9.430 -45.746  0.00  0.00    -0.082 Cl
ENDBRANCH   1  16
TORSDOF 3
ENDMDL
MODEL 2
REMARK VINA RESULT:      -7.6      0.131      1.940
REMARK  Name = 
REMARK                            x       y       z     vdW  Elec       q    Type
REMARK                         _______ _______ _______ _____ _____    ______ ____
ROOT
ATOM      1  C   LIG    1      -46.730  11.904 -44.873  0.00  0.00    +0.100 C 
ENDROOT
BRANCH   1   6
ATOM      2 CL   LIG    1      -50.098  11.238 -39.828  0.00  0.00    -0.084 Cl
ATOM      3  C   LIG    1      -49.188  11.427 -41.274  0.00  0.00    +0.041 A 
ATOM      4  C   LIG    1      -49.310  12.584 -42.031  0.00  0.00    +0.020 A 
ATOM      5  C   LIG    1      -48.562  12.746 -43.208  0.00  0.00    +0.006 A 
ATOM      6  C   LIG    1      -47.658  11.762 -43.639  0.00  0.00    -0.036 A 
ATOM      7  C   LIG    1      -47.558  10.600 -42.841  0.00  0.00    +0.006 A 
ATOM      8  C   LIG    1      -48.317  10.426 -41.680  0.00  0.00    +0.020 A 
ENDBRANCH   1   6
BRANCH   1   9
ATOM      9  C   LIG    1      -45.360  12.536 -44.513  0.00  0.00    -0.036 A 
ATOM     10  C   LIG    1      -44.614  12.195 -43.374  0.00  0.00    +0.006 A 
ATOM     11  C   LIG    1      -43.357  12.770 -43.134  0.00  0.00    +0.020 A 
ATOM     12  C   LIG    1      -42.845  13.727 -44.002  0.00  0.00    +0.041 A 
ATOM     13 CL   LIG    1      -41.312  14.442 -43.691  0.00  0.00    -0.084 Cl
ATOM     14  C   LIG    1      -43.569  14.102 -45.124  0.00  0.00    +0.020 A 
ATOM     15  C   LIG    1      -44.802  13.496 -45.385  0.00  0.00    +0.006 A 
ENDBRANCH   1   9
BRANCH   1  16
ATOM     16  C   LIG    1      -46.711  10.741 -45.947  0.00  0.00    +0.201 C 
ATOM     17 CL   LIG    1      -45.334   9.600 -45.634  0.00  0.00    -0.082 Cl
ATOM     18 CL   LIG    1      -46.417  11.410 -47.609  0.00  0.00    -0.082 Cl
ATOM     19 CL   LIG    1      -48.202   9.734 -46.046  0.00  0.00    -0.082 Cl
ENDBRANCH   1  16
TORSDOF 3
ENDMDL
MODEL 3
REMARK VINA RESULT:      -7.2      1.558      5.650
REMARK  Name = 
REMARK                            x       y       z     vdW  Elec       q    Type
REMARK                         _______ _______ _______ _____ _____    ______ ____
ROOT
ATOM      1  C   LIG    1      -46.117   9.760 -43.605  0.00  0.00    +0.100 C 
ENDROOT
BRANCH   1   6
ATOM      2 CL   LIG    1      -41.200  13.357 -43.972  0.00  0.00    -0.084 Cl
ATOM      3  C   LIG    1      -42.576  12.337 -43.824  0.00  0.00    +0.041 A 
ATOM      4  C   LIG    1      -43.624  12.693 -42.988  0.00  0.00    +0.020 A 
ATOM      5  C   LIG    1      -44.754  11.868 -42.870  0.00  0.00    +0.006 A 
ATOM      6  C   LIG    1      -44.867  10.678 -43.609  0.00  0.00    -0.036 A 
ATOM      7  C   LIG    1      -43.782  10.350 -44.452  0.00  0.00    +0.006 A 
ATOM      8  C   LIG    1      -42.646  11.159 -44.555  0.00  0.00    +0.020 A 
ENDBRANCH   1   6
BRANCH   1   9
ATOM      9  C   LIG    1      -47.210  10.255 -42.624  0.00  0.00    -0.036 A 
ATOM     10  C   LIG    1      -47.921  11.456 -42.781  0.00  0.00    +0.006 A 
ATOM     11  C   LIG    1      -48.933  11.820 -41.881  0.00  0.00    +0.020 A 
ATOM     12  C   LIG    1      -49.222  11.017 -40.785  0.00  0.00    +0.041 A 
ATOM     13 CL   LIG    1      -50.451  11.480 -39.675  0.00  0.00    -0.084 Cl
ATOM     14  C   LIG    1      -48.521   9.836 -40.589  0.00  0.00    +0.020 A 
ATOM     15  C   LIG    1      -47.543   9.451 -41.511  0.00  0.00    +0.006 A 
ENDBRANCH   1   9
BRANCH   1  16
ATOM     16  C   LIG    1      -46.622   9.160 -44.980  0.00  0.00    +0.201 C 
ATOM     17 CL   LIG    1      -46.891  10.480 -46.197  0.00  0.00    -0.082 Cl
ATOM     18 CL   LIG    1      -48.237   8.357 -44.773  0.00  0.00    -0.082 Cl
ATOM     19 CL   LIG    1      -45.536   7.953 -45.761  0.00  0.00    -0.082 Cl
ENDBRANCH   1  16
TORSDOF 3
ENDMDL
MODEL 4
REMARK VINA RESULT:      -7.1      2.179      2.856
REMARK  Name = 
REMARK                            x       y       z     vdW  Elec       q    Type
REMARK                         _______ _______ _______ _____ _____    ______ ____
ROOT
ATOM      1  C   LIG    1      -46.618   9.109 -44.000  0.00  0.00    +0.100 C 
ENDROOT
BRANCH   1   6
ATOM      2 CL   LIG    1      -50.160  11.405 -39.593  0.00  0.00    -0.084 Cl
ATOM      3  C   LIG    1      -49.129  10.752 -40.803  0.00  0.00    +0.041 A 
ATOM      4  C   LIG    1      -48.684   9.441 -40.711  0.00  0.00    +0.020 A 
ATOM      5  C   LIG    1      -47.849   8.901 -41.702  0.00  0.00    +0.006 A 
ATOM      6  C   LIG    1      -47.461   9.658 -42.820  0.00  0.00    -0.036 A 
ATOM      7  C   LIG    1      -47.936  10.987 -42.881  0.00  0.00    +0.006 A 
ATOM      8  C   LIG    1      -48.751  11.535 -41.885  0.00  0.00    +0.020 A 
ENDBRANCH   1   6
BRANCH   1   9
ATOM      9  C   LIG    1      -45.390  10.001 -44.314  0.00  0.00    -0.036 A 
ATOM     10  C   LIG    1      -44.267  10.114 -43.479  0.00  0.00    +0.006 A 
ATOM     11  C   LIG    1      -43.167  10.902 -43.847  0.00  0.00    +0.020 A 
ATOM     12  C   LIG    1      -43.187  11.625 -45.034  0.00  0.00    +0.041 A 
ATOM     13 CL   LIG    1      -41.843  12.605 -45.471  0.00  0.00    -0.084 Cl
ATOM     14  C   LIG    1      -44.291  11.552 -45.870  0.00  0.00    +0.020 A 
ATOM     15  C   LIG    1      -45.369  10.732 -45.522  0.00  0.00    +0.006 A 
ENDBRANCH   1   9
BRANCH   1  16
ATOM     16  C   LIG    1      -46.403   7.545 -44.115  0.00  0.00    +0.201 C 
ATOM     17 CL   LIG    1      -45.368   7.142 -45.551  0.00  0.00    -0.082 Cl
ATOM     18 CL   LIG    1      -47.984   6.701 -44.407  0.00  0.00    -0.082 Cl
ATOM     19 CL   LIG    1      -45.641   6.746 -42.691  0.00  0.00    -0.082 Cl
ENDBRANCH   1  16
TORSDOF 3
ENDMDL
MODEL 5
REMARK VINA RESULT:      -7.1      2.180      6.068
REMARK  Name = 
REMARK                            x       y       z     vdW  Elec       q    Type
REMARK                         _______ _______ _______ _____ _____    ______ ____
ROOT
ATOM      1  C   LIG    1      -45.995   8.962 -43.054  0.00  0.00    +0.100 C 
ENDROOT
BRANCH   1   6
ATOM      2 CL   LIG    1      -42.712  12.987 -46.257  0.00  0.00    -0.084 Cl
ATOM      3  C   LIG    1      -43.672  11.883 -45.354  0.00  0.00    +0.041 A 
ATOM      4  C   LIG    1      -44.849  11.380 -45.889  0.00  0.00    +0.020 A 
ATOM      5  C   LIG    1      -45.631  10.471 -45.158  0.00  0.00    +0.006 A 
ATOM      6  C   LIG    1      -45.237  10.030 -43.884  0.00  0.00    -0.036 A 
ATOM      7  C   LIG    1      -44.031  10.561 -43.374  0.00  0.00    +0.006 A 
ATOM      8  C   LIG    1      -43.261  11.482 -44.091  0.00  0.00    +0.020 A 
ENDBRANCH   1   6
BRANCH   1   9
ATOM      9  C   LIG    1      -47.140   9.575 -42.207  0.00  0.00    -0.036 A 
ATOM     10  C   LIG    1      -47.698   8.958 -41.076  0.00  0.00    +0.006 A 
ATOM     11  C   LIG    1      -48.699   9.592 -40.326  0.00  0.00    +0.020 A 
ATOM     12  C   LIG    1      -49.192  10.831 -40.717  0.00  0.00    +0.041 A 
ATOM     13 CL   LIG    1      -50.434  11.594 -39.804  0.00  0.00    -0.084 Cl
ATOM     14  C   LIG    1      -48.678  11.456 -41.843  0.00  0.00    +0.020 A 
ATOM     15  C   LIG    1      -47.649  10.843 -42.565  0.00  0.00    +0.006 A 
ENDBRANCH   1   9
BRANCH   1  16
ATOM     16  C   LIG    1      -46.283   7.551 -43.712  0.00  0.00    +0.201 C 
ATOM     17 CL   LIG    1      -48.007   7.440 -44.268  0.00  0.00    -0.082 Cl
ATOM     18 CL   LIG    1      -46.082   6.222 -42.491  0.00  0.00    -0.082 Cl
ATOM     19 CL   LIG    1      -45.256   7.117 -45.128  0.00  0.00    -0.082 Cl
ENDBRANCH   1  16
TORSDOF 3
ENDMDL
MODEL 6
REMARK VINA RESULT:      -7.0      0.979      5.648
REMARK  Name = 
REMARK                            x       y       z     vdW  Elec       q    Type
REMARK                         _______ _______ _______ _____ _____    ______ ____
ROOT
ATOM      1  C   LIG    1      -45.872  10.884 -43.881  0.00  0.00    +0.100 C 
ENDROOT
BRANCH   1   6
ATOM      2 CL   LIG    1      -41.786  15.382 -44.438  0.00  0.00    -0.084 Cl
ATOM      3  C   LIG    1      -42.970  14.147 -44.280  0.00  0.00    +0.041 A 
ATOM      4  C   LIG    1      -43.934  13.972 -45.262  0.00  0.00    +0.020 A 
ATOM      5  C   LIG    1      -44.898  12.958 -45.142  0.00  0.00    +0.006 A 
ATOM      6  C   LIG    1      -44.902  12.083 -44.043  0.00  0.00    -0.036 A 
ATOM      7  C   LIG    1      -43.903  12.289 -43.065  0.00  0.00    +0.006 A 
ATOM      8  C   LIG    1      -42.955  13.311 -43.172  0.00  0.00    +0.020 A 
ENDBRANCH   1   6
BRANCH   1   9
ATOM      9  C   LIG    1      -47.048  11.202 -42.922  0.00  0.00    -0.036 A 
ATOM     10  C   LIG    1      -47.938  12.273 -43.098  0.00  0.00    +0.006 A 
ATOM     11  C   LIG    1      -49.012  12.474 -42.218  0.00  0.00    +0.020 A 
ATOM     12  C   LIG    1      -49.188  11.638 -41.122  0.00  0.00    +0.041 A 
ATOM     13 CL   LIG    1      -50.495  11.903 -40.036  0.00  0.00    -0.084 Cl
ATOM     14  C   LIG    1      -48.312  10.585 -40.908  0.00  0.00    +0.020 A 
ATOM     15  C   LIG    1      -47.268  10.359 -41.810  0.00  0.00    +0.006 A 
ENDBRANCH   1   9
BRANCH   1  16
ATOM     16  C   LIG    1      -46.217  10.009 -45.155  0.00  0.00    +0.201 C 
ATOM     17 CL   LIG    1      -47.135   8.517 -44.680  0.00  0.00    -0.082 Cl
ATOM     18 CL   LIG    1      -44.698   9.411 -45.950  0.00  0.00    -0.082 Cl
ATOM     19 CL   LIG    1      -47.188  10.826 -46.434  0.00  0.00    -0.082 Cl
ENDBRANCH   1  16
TORSDOF 3
ENDMDL
MODEL 7
REMARK VINA RESULT:      -7.0      2.295      4.859
REMARK  Name = 
REMARK                            x       y       z     vdW  Elec       q    Type
REMARK                         _______ _______ _______ _____ _____    ______ ____
ROOT
ATOM      1  C   LIG    1      -46.243  10.173 -43.799  0.00  0.00    +0.100 C 
ENDROOT
BRANCH   1   6
ATOM      2 CL   LIG    1      -50.511  11.559 -39.663  0.00  0.00    -0.084 Cl
ATOM      3  C   LIG    1      -49.341  11.171 -40.861  0.00  0.00    +0.041 A 
ATOM      4  C   LIG    1      -49.041  12.079 -41.865  0.00  0.00    +0.020 A 
ATOM      5  C   LIG    1      -48.079  11.770 -42.840  0.00  0.00    +0.006 A 
ATOM      6  C   LIG    1      -47.381  10.551 -42.816  0.00  0.00    -0.036 A 
ATOM      7  C   LIG    1      -47.712   9.653 -41.776  0.00  0.00    +0.006 A 
ATOM      8  C   LIG    1      -48.684   9.949 -40.816  0.00  0.00    +0.020 A 
ENDBRANCH   1   6
BRANCH   1   9
ATOM      9  C   LIG    1      -46.781   9.536 -45.107  0.00  0.00    -0.036 A 
ATOM     10  C   LIG    1      -47.158   8.189 -45.227  0.00  0.00    +0.006 A 
ATOM     11  C   LIG    1      -47.683   7.689 -46.427  0.00  0.00    +0.020 A 
ATOM     12  C   LIG    1      -47.798   8.513 -47.541  0.00  0.00    +0.041 A 
ATOM     13 CL   LIG    1      -48.425   7.888 -49.016  0.00  0.00    -0.084 Cl
ATOM     14  C   LIG    1      -47.412   9.843 -47.461  0.00  0.00    +0.020 A 
ATOM     15  C   LIG    1      -46.930  10.351 -46.251  0.00  0.00    +0.006 A 
ENDBRANCH   1   9
BRANCH   1  16
ATOM     16  C   LIG    1      -45.010  11.155 -43.947  0.00  0.00    +0.201 C 
ATOM     17 CL   LIG    1      -44.431  11.709 -42.319  0.00  0.00    -0.082 Cl
ATOM     18 CL   LIG    1      -45.498  12.666 -44.827  0.00  0.00    -0.082 Cl
ATOM     19 CL   LIG    1      -43.572  10.491 -44.807  0.00  0.00    -0.082 Cl
ENDBRANCH   1  16
TORSDOF 3
ENDMDL
MODEL 8
REMARK VINA RESULT:      -6.8      5.456      9.410
REMARK  Name = 
REMARK                            x       y       z     vdW  Elec       q    Type
REMARK                         _______ _______ _______ _____ _____    ______ ____
ROOT
ATOM      1  C   LIG    1      -40.246  18.199 -45.167  0.00  0.00    +0.100 C 
ENDROOT
BRANCH   1   6
ATOM      2 CL   LIG    1      -44.302  22.759 -45.097  0.00  0.00    -0.084 Cl
ATOM      3  C   LIG    1      -43.128  21.504 -45.132  0.00  0.00    +0.041 A 
ATOM      4  C   LIG    1      -42.000  21.579 -44.328  0.00  0.00    +0.020 A 
ATOM      5  C   LIG    1      -41.043  20.552 -44.347  0.00  0.00    +0.006 A 
ATOM      6  C   LIG    1      -41.208  19.416 -45.157  0.00  0.00    -0.036 A 
ATOM      7  C   LIG    1      -42.370  19.373 -45.959  0.00  0.00    +0.006 A 
ATOM      8  C   LIG    1      -43.315  20.405 -45.959  0.00  0.00    +0.020 A 
ENDBRANCH   1   6
BRANCH   1   9
ATOM      9  C   LIG    1      -40.948  16.888 -44.729  0.00  0.00    -0.036 A 
ATOM     10  C   LIG    1      -40.685  16.223 -43.521  0.00  0.00    +0.006 A 
ATOM     11  C   LIG    1      -41.392  15.066 -43.164  0.00  0.00    +0.020 A 
ATOM     12  C   LIG    1      -42.341  14.528 -44.025  0.00  0.00    +0.041 A 
ATOM     13 CL   LIG    1      -43.190  13.097 -43.590  0.00  0.00    -0.084 Cl
ATOM     14  C   LIG    1      -42.606  15.149 -45.237  0.00  0.00    +0.020 A 
ATOM     15  C   LIG    1      -41.932  16.326 -45.573  0.00  0.00    +0.006 A 
ENDBRANCH   1   9
BRANCH   1  16
ATOM     16  C   LIG    1      -39.189  18.077 -46.340  0.00  0.00    +0.201 C 
ATOM     17 CL   LIG    1      -38.036  16.711 -46.026  0.00  0.00    -0.082 Cl
ATOM     18 CL   LIG    1      -38.159  19.570 -46.430  0.00  0.00    -0.082 Cl
ATOM     19 CL   LIG    1      -39.867  17.811 -47.988  0.00  0.00    -0.082 Cl
ENDBRANCH   1  16
TORSDOF 3
ENDMDL
MODEL 9
REMARK VINA RESULT:      -6.8      2.196      2.674
REMARK  Name = 
REMARK                            x       y       z     vdW  Elec       q    Type
REMARK                         _______ _______ _______ _____ _____    ______ ____
ROOT
ATOM      1  C   LIG    1      -46.905   9.454 -44.605  0.00  0.00    +0.100 C 
ENDROOT
BRANCH   1   6
ATOM      2 CL   LIG    1      -49.655  10.919 -39.357  0.00  0.00    -0.084 Cl
ATOM      3  C   LIG    1      -48.842  10.497 -40.812  0.00  0.00    +0.041 A 
ATOM      4  C   LIG    1      -48.379   9.204 -41.005  0.00  0.00    +0.020 A 
ATOM      5  C   LIG    1      -47.722   8.852 -42.195  0.00  0.00    +0.006 A 
ATOM      6  C   LIG    1      -47.536   9.786 -43.228  0.00  0.00    -0.036 A 
ATOM      7  C   LIG    1      -48.024  11.092 -42.997  0.00  0.00    +0.006 A 
ATOM      8  C   LIG    1      -48.659  11.450 -41.804  0.00  0.00    +0.020 A 
ENDBRANCH   1   6
BRANCH   1   9
ATOM      9  C   LIG    1      -45.457   9.994 -44.736  0.00  0.00    -0.036 A 
ATOM     10  C   LIG    1      -44.973  10.676 -45.863  0.00  0.00    +0.006 A 
ATOM     11  C   LIG    1      -43.665  11.182 -45.896  0.00  0.00    +0.020 A 
ATOM     12  C   LIG    1      -42.805  10.976 -44.824  0.00  0.00    +0.041 A 
ATOM     13 CL   LIG    1      -41.196  11.582 -44.879  0.00  0.00    -0.084 Cl
ATOM     14  C   LIG    1      -43.247  10.285 -43.705  0.00  0.00    +0.020 A 
ATOM     15  C   LIG    1      -44.564   9.820 -43.656  0.00  0.00    +0.006 A 
ENDBRANCH   1   9
BRANCH   1  16
ATOM     16  C   LIG    1      -47.191   8.037 -45.250  0.00  0.00    +0.201 C 
ATOM     17 CL   LIG    1      -45.906   6.845 -44.778  0.00  0.00    -0.082 Cl
ATOM     18 CL   LIG    1      -47.120   8.133 -47.062  0.00  0.00    -0.082 Cl
ATOM     19 CL   LIG    1      -48.772   7.283 -44.829  0.00  0.00    -0.082 Cl
ENDBRANCH   1  16
TORSDOF 3
ENDMDL
