MODEL 1
REMARK VINA RESULT:      -7.3      0.000      0.000
REMARK  Name = 
REMARK                            x       y       z     vdW  Elec       q    Type
REMARK                         _______ _______ _______ _____ _____    ______ ____
ROOT
ATOM      1  C   LIG    1       25.390 -27.286 -10.297  0.00  0.00    +0.100 C 
ENDROOT
BRANCH   1   6
ATOM      2 CL   LIG    1       25.543 -21.779 -12.923  0.00  0.00    -0.084 Cl
ATOM      3  C   LIG    1       25.518 -23.348 -12.221  0.00  0.00    +0.041 A 
ATOM      4  C   LIG    1       26.702 -24.041 -12.014  0.00  0.00    +0.020 A 
ATOM      5  C   LIG    1       26.686 -25.319 -11.433  0.00  0.00    +0.006 A 
ATOM      6  C   LIG    1       25.484 -25.921 -11.027  0.00  0.00    -0.036 A 
ATOM      7  C   LIG    1       24.299 -25.185 -11.251  0.00  0.00    +0.006 A 
ATOM      8  C   LIG    1       24.309 -23.920 -11.849  0.00  0.00    +0.020 A 
ENDBRANCH   1   6
BRANCH   1   9
ATOM      9  C   LIG    1       24.244 -28.173 -10.848  0.00  0.00    -0.036 A 
ATOM     10  C   LIG    1       23.196 -28.680 -10.063  0.00  0.00    +0.006 A 
ATOM     11  C   LIG    1       22.163 -29.436 -10.635  0.00  0.00    +0.020 A 
ATOM     12  C   LIG    1       22.181 -29.737 -11.992  0.00  0.00    +0.041 A 
ATOM     13 CL   LIG    1       20.921 -30.681 -12.684  0.00  0.00    -0.084 Cl
ATOM     14  C   LIG    1       23.214 -29.270 -12.790  0.00  0.00    +0.020 A 
ATOM     15  C   LIG    1       24.221 -28.480 -12.227  0.00  0.00    +0.006 A 
ENDBRANCH   1   9
BRANCH   1  16
ATOM     16  C   LIG    1       26.731 -28.030  -9.904  0.00  0.00    +0.201 C 
ATOM     17 CL   LIG    1       27.752 -28.335 -11.372  0.00  0.00    -0.082 Cl
ATOM     18 CL   LIG    1       26.372 -29.672  -9.215  0.00  0.00    -0.082 Cl
ATOM     19 CL   LIG    1       27.783 -27.183  -8.711  0.00  0.00    -0.082 Cl
ENDBRANCH   1  16
TORSDOF 3
ENDMDL
MODEL 2
REMARK VINA RESULT:      -7.1      1.942      4.418
REMARK  Name = 
REMARK                            x       y       z     vdW  Elec       q    Type
REMARK                         _______ _______ _______ _____ _____    ______ ____
ROOT
ATOM      1  C   LIG    1       24.997 -27.487 -11.922  0.00  0.00    +0.100 C 
ENDROOT
BRANCH   1   6
ATOM      2 CL   LIG    1       25.155 -21.478 -12.979  0.00  0.00    -0.084 Cl
ATOM      3  C   LIG    1       25.107 -23.162 -12.636  0.00  0.00    +0.041 A 
ATOM      4  C   LIG    1       23.984 -23.724 -12.046  0.00  0.00    +0.020 A 
ATOM      5  C   LIG    1       23.937 -25.100 -11.773  0.00  0.00    +0.006 A 
ATOM      6  C   LIG    1       25.008 -25.947 -12.107  0.00  0.00    -0.036 A 
ATOM      7  C   LIG    1       26.132 -25.340 -12.709  0.00  0.00    +0.006 A 
ATOM      8  C   LIG    1       26.191 -23.966 -12.963  0.00  0.00    +0.020 A 
ENDBRANCH   1   6
BRANCH   1   9
ATOM      9  C   LIG    1       26.245 -27.998 -11.158  0.00  0.00    -0.036 A 
ATOM     10  C   LIG    1       27.140 -28.954 -11.666  0.00  0.00    +0.006 A 
ATOM     11  C   LIG    1       28.278 -29.336 -10.941  0.00  0.00    +0.020 A 
ATOM     12  C   LIG    1       28.519 -28.806  -9.679  0.00  0.00    +0.041 A 
ATOM     13 CL   LIG    1       29.906 -29.294  -8.787  0.00  0.00    -0.084 Cl
ATOM     14  C   LIG    1       27.640 -27.878  -9.140  0.00  0.00    +0.020 A 
ATOM     15  C   LIG    1       26.530 -27.464  -9.881  0.00  0.00    +0.006 A 
ENDBRANCH   1   9
BRANCH   1  16
ATOM     16  C   LIG    1       23.625 -28.202 -11.591  0.00  0.00    +0.201 C 
ATOM     17 CL   LIG    1       23.848 -30.000 -11.473  0.00  0.00    -0.082 Cl
ATOM     18 CL   LIG    1       22.432 -27.951 -12.937  0.00  0.00    -0.082 Cl
ATOM     19 CL   LIG    1       22.811 -27.684 -10.070  0.00  0.00    -0.082 Cl
ENDBRANCH   1  16
TORSDOF 3
ENDMDL
MODEL 3
REMARK VINA RESULT:      -6.9      0.743      5.576
REMARK  Name = 
REMARK                            x       y       z     vdW  Elec       q    Type
REMARK                         _______ _______ _______ _____ _____    ______ ____
ROOT
ATOM      1  C   LIG    1       26.041 -27.800 -11.422  0.00  0.00    +0.100 C 
ENDROOT
BRANCH   1   6
ATOM      2 CL   LIG    1       20.758 -30.613 -12.617  0.00  0.00    -0.084 Cl
ATOM      3  C   LIG    1       22.223 -29.790 -12.255  0.00  0.00    +0.041 A 
ATOM      4  C   LIG    1       22.673 -29.707 -10.946  0.00  0.00    +0.020 A 
ATOM      5  C   LIG    1       23.874 -29.043 -10.646  0.00  0.00    +0.006 A 
ATOM      6  C   LIG    1       24.661 -28.468 -11.658  0.00  0.00    -0.036 A 
ATOM      7  C   LIG    1       24.173 -28.576 -12.979  0.00  0.00    +0.006 A 
ATOM      8  C   LIG    1       22.967 -29.218 -13.278  0.00  0.00    +0.020 A 
ENDBRANCH   1   6
BRANCH   1   9
ATOM      9  C   LIG    1       26.019 -26.279 -11.721  0.00  0.00    -0.036 A 
ATOM     10  C   LIG    1       27.060 -25.590 -12.362  0.00  0.00    +0.006 A 
ATOM     11  C   LIG    1       26.954 -24.220 -12.646  0.00  0.00    +0.020 A 
ATOM     12  C   LIG    1       25.828 -23.507 -12.254  0.00  0.00    +0.041 A 
ATOM     13 CL   LIG    1       25.713 -21.823 -12.588  0.00  0.00    -0.084 Cl
ATOM     14  C   LIG    1       24.792 -24.154 -11.598  0.00  0.00    +0.020 A 
ATOM     15  C   LIG    1       24.880 -25.528 -11.354  0.00  0.00    +0.006 A 
ENDBRANCH   1   9
BRANCH   1  16
ATOM     16  C   LIG    1       26.906 -28.263 -10.179  0.00  0.00    +0.201 C 
ATOM     17 CL   LIG    1       27.184 -26.880  -9.038  0.00  0.00    -0.082 Cl
ATOM     18 CL   LIG    1       28.560 -28.790 -10.713  0.00  0.00    -0.082 Cl
ATOM     19 CL   LIG    1       26.220 -29.610  -9.199  0.00  0.00    -0.082 Cl
ENDBRANCH   1  16
TORSDOF 3
ENDMDL
MODEL 4
REMARK VINA RESULT:      -6.9      1.954      4.341
REMARK  Name = 
REMARK                            x       y       z     vdW  Elec       q    Type
REMARK                         _______ _______ _______ _____ _____    ______ ____
ROOT
ATOM      1  C   LIG    1       25.093 -27.455 -12.037  0.00  0.00    +0.100 C 
ENDROOT
BRANCH   1   6
ATOM      2 CL   LIG    1       25.238 -21.403 -12.816  0.00  0.00    -0.084 Cl
ATOM      3  C   LIG    1       25.200 -23.113 -12.642  0.00  0.00    +0.041 A 
ATOM      4  C   LIG    1       26.283 -23.881 -13.043  0.00  0.00    +0.020 A 
ATOM      5  C   LIG    1       26.261 -25.277 -12.895  0.00  0.00    +0.006 A 
ATOM      6  C   LIG    1       25.159 -25.931 -12.319  0.00  0.00    -0.036 A 
ATOM      7  C   LIG    1       24.076 -25.116 -11.919  0.00  0.00    +0.006 A 
ATOM      8  C   LIG    1       24.087 -23.728 -12.085  0.00  0.00    +0.020 A 
ENDBRANCH   1   6
BRANCH   1   9
ATOM      9  C   LIG    1       26.306 -27.955 -11.211  0.00  0.00    -0.036 A 
ATOM     10  C   LIG    1       27.195 -28.951 -11.645  0.00  0.00    +0.006 A 
ATOM     11  C   LIG    1       28.303 -29.321 -10.868  0.00  0.00    +0.020 A 
ATOM     12  C   LIG    1       28.516 -28.737  -9.625  0.00  0.00    +0.041 A 
ATOM     13 CL   LIG    1       29.864 -29.211  -8.669  0.00  0.00    -0.084 Cl
ATOM     14  C   LIG    1       27.642 -27.767  -9.158  0.00  0.00    +0.020 A 
ATOM     15  C   LIG    1       26.564 -27.367  -9.952  0.00  0.00    +0.006 A 
ENDBRANCH   1   9
BRANCH   1  16
ATOM     16  C   LIG    1       23.691 -28.104 -11.695  0.00  0.00    +0.201 C 
ATOM     17 CL   LIG    1       23.018 -27.410 -10.159  0.00  0.00    -0.082 Cl
ATOM     18 CL   LIG    1       23.869 -29.884 -11.384  0.00  0.00    -0.082 Cl
ATOM     19 CL   LIG    1       22.409 -27.919 -12.948  0.00  0.00    -0.082 Cl
ENDBRANCH   1  16
TORSDOF 3
ENDMDL
MODEL 5
REMARK VINA RESULT:      -6.4      1.843      5.537
REMARK  Name = 
REMARK                            x       y       z     vdW  Elec       q    Type
REMARK                         _______ _______ _______ _____ _____    ______ ____
ROOT
ATOM      1  C   LIG    1       24.704 -27.533 -10.960  0.00  0.00    +0.100 C 
ENDROOT
BRANCH   1   6
ATOM      2 CL   LIG    1       30.248 -29.236  -9.062  0.00  0.00    -0.084 Cl
ATOM      3  C   LIG    1       28.669 -28.776  -9.559  0.00  0.00    +0.041 A 
ATOM      4  C   LIG    1       27.909 -27.921  -8.774  0.00  0.00    +0.020 A 
ATOM      5  C   LIG    1       26.622 -27.536  -9.181  0.00  0.00    +0.006 A 
ATOM      6  C   LIG    1       26.077 -27.983 -10.397  0.00  0.00    -0.036 A 
ATOM      7  C   LIG    1       26.881 -28.850 -11.171  0.00  0.00    +0.006 A 
ATOM      8  C   LIG    1       28.155 -29.252 -10.758  0.00  0.00    +0.020 A 
ENDBRANCH   1   6
BRANCH   1   9
ATOM      9  C   LIG    1       24.747 -26.096 -11.542  0.00  0.00    -0.036 A 
ATOM     10  C   LIG    1       23.699 -25.170 -11.425  0.00  0.00    +0.006 A 
ATOM     11  C   LIG    1       23.823 -23.869 -11.933  0.00  0.00    +0.020 A 
ATOM     12  C   LIG    1       24.977 -23.485 -12.607  0.00  0.00    +0.041 A 
ATOM     13 CL   LIG    1       25.115 -21.894 -13.245  0.00  0.00    -0.084 Cl
ATOM     14  C   LIG    1       26.021 -24.385 -12.759  0.00  0.00    +0.020 A 
ATOM     15  C   LIG    1       25.913 -25.667 -12.214  0.00  0.00    +0.006 A 
ENDBRANCH   1   9
BRANCH   1  16
ATOM     16  C   LIG    1       23.823 -28.587 -11.746  0.00  0.00    +0.201 C 
ATOM     17 CL   LIG    1       24.074 -30.257 -11.082  0.00  0.00    -0.082 Cl
ATOM     18 CL   LIG    1       24.334 -28.677 -13.486  0.00  0.00    -0.082 Cl
ATOM     19 CL   LIG    1       22.045 -28.292 -11.738  0.00  0.00    -0.082 Cl
ENDBRANCH   1  16
TORSDOF 3
ENDMDL
MODEL 6
REMARK VINA RESULT:      -5.7      1.947      5.859
REMARK  Name = 
REMARK                            x       y       z     vdW  Elec       q    Type
REMARK                         _______ _______ _______ _____ _____    ______ ____
ROOT
ATOM      1  C   LIG    1       23.981 -27.708 -10.963  0.00  0.00    +0.100 C 
ENDROOT
BRANCH   1   6
ATOM      2 CL   LIG    1       28.824 -31.406 -10.618  0.00  0.00    -0.084 Cl
ATOM      3  C   LIG    1       27.481 -30.340 -10.747  0.00  0.00    +0.041 A 
ATOM      4  C   LIG    1       26.776 -30.244 -11.938  0.00  0.00    +0.020 A 
ATOM      5  C   LIG    1       25.674 -29.382 -12.046  0.00  0.00    +0.006 A 
ATOM      6  C   LIG    1       25.240 -28.613 -10.953  0.00  0.00    -0.036 A 
ATOM      7  C   LIG    1       25.981 -28.739  -9.756  0.00  0.00    +0.006 A 
ATOM      8  C   LIG    1       27.092 -29.581  -9.652  0.00  0.00    +0.020 A 
ENDBRANCH   1   6
BRANCH   1   9
ATOM      9  C   LIG    1       24.286 -26.277 -11.475  0.00  0.00    -0.036 A 
ATOM     10  C   LIG    1       23.365 -25.218 -11.444  0.00  0.00    +0.006 A 
ATOM     11  C   LIG    1       23.723 -23.934 -11.878  0.00  0.00    +0.020 A 
ATOM     12  C   LIG    1       24.991 -23.694 -12.393  0.00  0.00    +0.041 A 
ATOM     13 CL   LIG    1       25.417 -22.121 -12.943  0.00  0.00    -0.084 Cl
ATOM     14  C   LIG    1       25.917 -24.725 -12.459  0.00  0.00    +0.020 A 
ATOM     15  C   LIG    1       25.573 -25.995 -11.985  0.00  0.00    +0.006 A 
ENDBRANCH   1   9
BRANCH   1  16
ATOM     16  C   LIG    1       22.598 -28.337 -11.408  0.00  0.00    +0.201 C 
ATOM     17 CL   LIG    1       21.235 -27.658 -10.420  0.00  0.00    -0.082 Cl
ATOM     18 CL   LIG    1       22.579 -30.125 -11.095  0.00  0.00    -0.082 Cl
ATOM     19 CL   LIG    1       22.146 -28.105 -13.137  0.00  0.00    -0.082 Cl
ENDBRANCH   1  16
TORSDOF 3
ENDMDL
MODEL 7
REMARK VINA RESULT:      -5.1      1.917      4.250
REMARK  Name = 
REMARK                            x       y       z     vdW  Elec       q    Type
REMARK                         _______ _______ _______ _____ _____    ______ ____
ROOT
ATOM      1  C   LIG    1       25.498 -26.605 -11.765  0.00  0.00    +0.100 C 
ENDROOT
BRANCH   1   6
ATOM      2 CL   LIG    1       30.005 -29.215  -8.583  0.00  0.00    -0.084 Cl
ATOM      3  C   LIG    1       28.705 -28.496  -9.449  0.00  0.00    +0.041 A 
ATOM      4  C   LIG    1       27.927 -27.514  -8.854  0.00  0.00    +0.020 A 
ATOM      5  C   LIG    1       26.870 -26.918  -9.560  0.00  0.00    +0.006 A 
ATOM      6  C   LIG    1       26.585 -27.279 -10.888  0.00  0.00    -0.036 A 
ATOM      7  C   LIG    1       27.401 -28.280 -11.461  0.00  0.00    +0.006 A 
ATOM      8  C   LIG    1       28.441 -28.890 -10.753  0.00  0.00    +0.020 A 
ENDBRANCH   1   6
BRANCH   1   9
ATOM      9  C   LIG    1       24.250 -27.506 -11.953  0.00  0.00    -0.036 A 
ATOM     10  C   LIG    1       23.156 -27.526 -11.074  0.00  0.00    +0.006 A 
ATOM     11  C   LIG    1       22.036 -28.330 -11.330  0.00  0.00    +0.020 A 
ATOM     12  C   LIG    1       22.008 -29.161 -12.443  0.00  0.00    +0.041 A 
ATOM     13 CL   LIG    1       20.639 -30.160 -12.741  0.00  0.00    -0.084 Cl
ATOM     14  C   LIG    1       23.084 -29.182 -13.319  0.00  0.00    +0.020 A 
ATOM     15  C   LIG    1       24.181 -28.348 -13.085  0.00  0.00    +0.006 A 
ENDBRANCH   1   9
BRANCH   1  16
ATOM     16  C   LIG    1       25.229 -25.056 -11.584  0.00  0.00    +0.201 C 
ATOM     17 CL   LIG    1       26.779 -24.118 -11.689  0.00  0.00    -0.082 Cl
ATOM     18 CL   LIG    1       24.566 -24.711  -9.929  0.00  0.00    -0.082 Cl
ATOM     19 CL   LIG    1       24.093 -24.309 -12.767  0.00  0.00    -0.082 Cl
ENDBRANCH   1  16
TORSDOF 3
ENDMDL
MODEL 8
REMARK VINA RESULT:      -5.1      1.956      4.040
REMARK  Name = 
REMARK                            x       y       z     vdW  Elec       q    Type
REMARK                         _______ _______ _______ _____ _____    ______ ____
ROOT
ATOM      1  C   LIG    1       24.018 -27.743 -12.340  0.00  0.00    +0.100 C 
ENDROOT
BRANCH   1   6
ATOM      2 CL   LIG    1       25.729 -21.885 -12.380  0.00  0.00    -0.084 Cl
ATOM      3  C   LIG    1       25.239 -23.532 -12.324  0.00  0.00    +0.041 A 
ATOM      4  C   LIG    1       23.945 -23.865 -11.950  0.00  0.00    +0.020 A 
ATOM      5  C   LIG    1       23.539 -25.208 -11.911  0.00  0.00    +0.006 A 
ATOM      6  C   LIG    1       24.416 -26.246 -12.269  0.00  0.00    -0.036 A 
ATOM      7  C   LIG    1       25.724 -25.868 -12.647  0.00  0.00    +0.006 A 
ATOM      8  C   LIG    1       26.138 -24.533 -12.666  0.00  0.00    +0.020 A 
ENDBRANCH   1   6
BRANCH   1   9
ATOM      9  C   LIG    1       25.083 -28.668 -11.696  0.00  0.00    -0.036 A 
ATOM     10  C   LIG    1       25.499 -28.574 -10.359  0.00  0.00    +0.006 A 
ATOM     11  C   LIG    1       26.432 -29.476  -9.826  0.00  0.00    +0.020 A 
ATOM     12  C   LIG    1       26.999 -30.457 -10.630  0.00  0.00    +0.041 A 
ATOM     13 CL   LIG    1       28.157 -31.547  -9.976  0.00  0.00    -0.084 Cl
ATOM     14  C   LIG    1       26.625 -30.562 -11.962  0.00  0.00    +0.020 A 
ATOM     15  C   LIG    1       25.663 -29.690 -12.480  0.00  0.00    +0.006 A 
ENDBRANCH   1   9
BRANCH   1  16
ATOM     16  C   LIG    1       22.504 -28.138 -12.104  0.00  0.00    +0.201 C 
ATOM     17 CL   LIG    1       21.457 -27.506 -13.444  0.00  0.00    -0.082 Cl
ATOM     18 CL   LIG    1       21.870 -27.364 -10.588  0.00  0.00    -0.082 Cl
ATOM     19 CL   LIG    1       22.160 -29.902 -11.970  0.00  0.00    -0.082 Cl
ENDBRANCH   1  16
TORSDOF 3
ENDMDL
MODEL 9
REMARK VINA RESULT:      -4.8      1.529      5.229
REMARK  Name = 
REMARK                            x       y       z     vdW  Elec       q    Type
REMARK                         _______ _______ _______ _____ _____    ______ ____
ROOT
ATOM      1  C   LIG    1       25.675 -28.095 -11.228  0.00  0.00    +0.100 C 
ENDROOT
BRANCH   1   6
ATOM      2 CL   LIG    1       19.843 -28.350  -9.446  0.00  0.00    -0.084 Cl
ATOM      3  C   LIG    1       21.485 -28.324  -9.954  0.00  0.00    +0.041 A 
ATOM      4  C   LIG    1       21.823 -28.699 -11.246  0.00  0.00    +0.020 A 
ATOM      5  C   LIG    1       23.162 -28.670 -11.669  0.00  0.00    +0.006 A 
ATOM      6  C   LIG    1       24.188 -28.243 -10.811  0.00  0.00    -0.036 A 
ATOM      7  C   LIG    1       23.805 -27.865  -9.504  0.00  0.00    +0.006 A 
ATOM      8  C   LIG    1       22.476 -27.913  -9.074  0.00  0.00    +0.020 A 
ENDBRANCH   1   6
BRANCH   1   9
ATOM      9  C   LIG    1       25.961 -26.741 -11.927  0.00  0.00    -0.036 A 
ATOM     10  C   LIG    1       26.959 -26.553 -12.895  0.00  0.00    +0.006 A 
ATOM     11  C   LIG    1       27.132 -25.311 -13.524  0.00  0.00    +0.020 A 
ATOM     12  C   LIG    1       26.342 -24.226 -13.166  0.00  0.00    +0.041 A 
ATOM     13 CL   LIG    1       26.572 -22.701 -13.927  0.00  0.00    -0.084 Cl
ATOM     14  C   LIG    1       25.362 -24.374 -12.195  0.00  0.00    +0.020 A 
ATOM     15  C   LIG    1       25.161 -25.623 -11.600  0.00  0.00    +0.006 A 
ENDBRANCH   1   9
BRANCH   1  16
ATOM     16  C   LIG    1       26.795 -28.634 -10.248  0.00  0.00    +0.201 C 
ATOM     17 CL   LIG    1       28.215 -29.270 -11.182  0.00  0.00    -0.082 Cl
ATOM     18 CL   LIG    1       26.178 -30.046  -9.286  0.00  0.00    -0.082 Cl
ATOM     19 CL   LIG    1       27.448 -27.443  -9.064  0.00  0.00    -0.082 Cl
ENDBRANCH   1  16
TORSDOF 3
ENDMDL
