MODEL 1
REMARK VINA RESULT:      -8.9      0.000      0.000
REMARK  Name = 
REMARK                            x       y       z     vdW  Elec       q    Type
REMARK                         _______ _______ _______ _____ _____    ______ ____
ROOT
ATOM      1  C   LIG    1       19.245  48.003  15.951  0.00  0.00    +0.100 C 
ENDROOT
BRANCH   1   6
ATOM      2 CL   LIG    1       13.923  46.368  13.451  0.00  0.00    -0.084 Cl
ATOM      3  C   LIG    1       15.402  46.826  14.197  0.00  0.00    +0.041 A 
ATOM      4  C   LIG    1       16.044  45.959  15.068  0.00  0.00    +0.020 A 
ATOM      5  C   LIG    1       17.257  46.325  15.673  0.00  0.00    +0.006 A 
ATOM      6  C   LIG    1       17.865  47.562  15.398  0.00  0.00    -0.036 A 
ATOM      7  C   LIG    1       17.183  48.417  14.503  0.00  0.00    +0.006 A 
ATOM      8  C   LIG    1       15.964  48.064  13.916  0.00  0.00    +0.020 A 
ENDBRANCH   1   6
BRANCH   1   9
ATOM      9  C   LIG    1       20.158  48.601  14.851  0.00  0.00    -0.036 A 
ATOM     10  C   LIG    1       21.028  47.841  14.053  0.00  0.00    +0.006 A 
ATOM     11  C   LIG    1       21.791  48.441  13.040  0.00  0.00    +0.020 A 
ATOM     12  C   LIG    1       21.734  49.814  12.837  0.00  0.00    +0.041 A 
ATOM     13 CL   LIG    1       22.688  50.546  11.607  0.00  0.00    -0.084 Cl
ATOM     14  C   LIG    1       20.902  50.596  13.625  0.00  0.00    +0.020 A 
ATOM     15  C   LIG    1       20.109  49.992  14.605  0.00  0.00    +0.006 A 
ENDBRANCH   1   9
BRANCH   1  16
ATOM     16  C   LIG    1       19.306  48.695  17.373  0.00  0.00    +0.201 C 
ATOM     17 CL   LIG    1       20.983  49.293  17.725  0.00  0.00    -0.082 Cl
ATOM     18 CL   LIG    1       18.935  47.495  18.685  0.00  0.00    -0.082 Cl
ATOM     19 CL   LIG    1       18.198  50.095  17.618  0.00  0.00    -0.082 Cl
ENDBRANCH   1  16
TORSDOF 3
ENDMDL
MODEL 2
REMARK VINA RESULT:      -8.9      0.092      1.594
REMARK  Name = 
REMARK                            x       y       z     vdW  Elec       q    Type
REMARK                         _______ _______ _______ _____ _____    ______ ____
ROOT
ATOM      1  C   LIG    1       19.183  47.985  15.915  0.00  0.00    +0.100 C 
ENDROOT
BRANCH   1   6
ATOM      2 CL   LIG    1       13.853  46.335  13.444  0.00  0.00    -0.084 Cl
ATOM      3  C   LIG    1       15.335  46.798  14.182  0.00  0.00    +0.041 A 
ATOM      4  C   LIG    1       15.970  45.945  15.072  0.00  0.00    +0.020 A 
ATOM      5  C   LIG    1       17.185  46.315  15.670  0.00  0.00    +0.006 A 
ATOM      6  C   LIG    1       17.801  47.542  15.370  0.00  0.00    -0.036 A 
ATOM      7  C   LIG    1       17.126  48.383  14.457  0.00  0.00    +0.006 A 
ATOM      8  C   LIG    1       15.905  48.026  13.876  0.00  0.00    +0.020 A 
ENDBRANCH   1   6
BRANCH   1   9
ATOM      9  C   LIG    1       20.046  48.688  14.836  0.00  0.00    -0.036 A 
ATOM     10  C   LIG    1       20.035  50.072  14.601  0.00  0.00    +0.006 A 
ATOM     11  C   LIG    1       20.879  50.650  13.641  0.00  0.00    +0.020 A 
ATOM     12  C   LIG    1       21.714  49.853  12.869  0.00  0.00    +0.041 A 
ATOM     13 CL   LIG    1       22.732  50.565  11.679  0.00  0.00    -0.084 Cl
ATOM     14  C   LIG    1       21.732  48.479  13.061  0.00  0.00    +0.020 A 
ATOM     15  C   LIG    1       20.922  47.909  14.049  0.00  0.00    +0.006 A 
ENDBRANCH   1   9
BRANCH   1  16
ATOM     16  C   LIG    1       19.267  48.576  17.382  0.00  0.00    +0.201 C 
ATOM     17 CL   LIG    1       18.161  50.004  17.563  0.00  0.00    -0.082 Cl
ATOM     18 CL   LIG    1       20.934  49.210  17.721  0.00  0.00    -0.082 Cl
ATOM     19 CL   LIG    1       18.860  47.436  18.716  0.00  0.00    -0.082 Cl
ENDBRANCH   1  16
TORSDOF 3
ENDMDL
MODEL 3
REMARK VINA RESULT:      -7.9      0.918      5.492
REMARK  Name = 
REMARK                            x       y       z     vdW  Elec       q    Type
REMARK                         _______ _______ _______ _____ _____    ______ ____
ROOT
ATOM      1  C   LIG    1       18.467  49.295  15.552  0.00  0.00    +0.100 C 
ENDROOT
BRANCH   1   6
ATOM      2 CL   LIG    1       23.744  49.769  12.523  0.00  0.00    -0.084 Cl
ATOM      3  C   LIG    1       22.244  49.604  13.346  0.00  0.00    +0.041 A 
ATOM      4  C   LIG    1       21.897  48.395  13.932  0.00  0.00    +0.020 A 
ATOM      5  C   LIG    1       20.677  48.258  14.613  0.00  0.00    +0.006 A 
ATOM      6  C   LIG    1       19.787  49.339  14.741  0.00  0.00    -0.036 A 
ATOM      7  C   LIG    1       20.176  50.554  14.134  0.00  0.00    +0.006 A 
ATOM      8  C   LIG    1       21.381  50.687  13.437  0.00  0.00    +0.020 A 
ENDBRANCH   1   6
BRANCH   1   9
ATOM      9  C   LIG    1       17.425  48.329  14.933  0.00  0.00    -0.036 A 
ATOM     10  C   LIG    1       17.268  46.989  15.322  0.00  0.00    +0.006 A 
ATOM     11  C   LIG    1       16.271  46.182  14.754  0.00  0.00    +0.020 A 
ATOM     12  C   LIG    1       15.443  46.685  13.758  0.00  0.00    +0.041 A 
ATOM     13 CL   LIG    1       14.236  45.685  13.052  0.00  0.00    -0.084 Cl
ATOM     14  C   LIG    1       15.588  47.999  13.336  0.00  0.00    +0.020 A 
ATOM     15  C   LIG    1       16.553  48.814  13.933  0.00  0.00    +0.006 A 
ENDBRANCH   1   9
BRANCH   1  16
ATOM     16  C   LIG    1       18.546  49.330  17.133  0.00  0.00    +0.201 C 
ATOM     17 CL   LIG    1       17.186  50.315  17.823  0.00  0.00    -0.082 Cl
ATOM     18 CL   LIG    1       20.067  50.157  17.679  0.00  0.00    -0.082 Cl
ATOM     19 CL   LIG    1       18.495  47.731  17.961  0.00  0.00    -0.082 Cl
ENDBRANCH   1  16
TORSDOF 3
ENDMDL
MODEL 4
REMARK VINA RESULT:      -7.1      2.122      5.344
REMARK  Name = 
REMARK                            x       y       z     vdW  Elec       q    Type
REMARK                         _______ _______ _______ _____ _____    ______ ____
ROOT
ATOM      1  C   LIG    1       18.745  47.783  16.067  0.00  0.00    +0.100 C 
ENDROOT
BRANCH   1   6
ATOM      2 CL   LIG    1       16.713  50.994  20.842  0.00  0.00    -0.084 Cl
ATOM      3  C   LIG    1       17.327  50.091  19.515  0.00  0.00    +0.041 A 
ATOM      4  C   LIG    1       17.900  48.845  19.722  0.00  0.00    +0.020 A 
ATOM      5  C   LIG    1       18.396  48.100  18.640  0.00  0.00    +0.006 A 
ATOM      6  C   LIG    1       18.306  48.581  17.322  0.00  0.00    -0.036 A 
ATOM      7  C   LIG    1       17.714  49.852  17.150  0.00  0.00    +0.006 A 
ATOM      8  C   LIG    1       17.239  50.605  18.228  0.00  0.00    +0.020 A 
ENDBRANCH   1   6
BRANCH   1   9
ATOM      9  C   LIG    1       17.537  47.252  15.252  0.00  0.00    -0.036 A 
ATOM     10  C   LIG    1       17.019  45.953  15.372  0.00  0.00    +0.006 A 
ATOM     11  C   LIG    1       15.892  45.553  14.640  0.00  0.00    +0.020 A 
ATOM     12  C   LIG    1       15.290  46.428  13.743  0.00  0.00    +0.041 A 
ATOM     13 CL   LIG    1       13.920  45.925  12.833  0.00  0.00    -0.084 Cl
ATOM     14  C   LIG    1       15.793  47.711  13.584  0.00  0.00    +0.020 A 
ATOM     15  C   LIG    1       16.890  48.122  14.347  0.00  0.00    +0.006 A 
ENDBRANCH   1   9
BRANCH   1  16
ATOM     16  C   LIG    1       19.986  48.302  15.232  0.00  0.00    +0.201 C 
ATOM     17 CL   LIG    1       20.519  47.054  14.028  0.00  0.00    -0.082 Cl
ATOM     18 CL   LIG    1       21.418  48.571  16.316  0.00  0.00    -0.082 Cl
ATOM     19 CL   LIG    1       19.734  49.831  14.313  0.00  0.00    -0.082 Cl
ENDBRANCH   1  16
TORSDOF 3
ENDMDL
MODEL 5
REMARK VINA RESULT:      -6.8      1.932      2.615
REMARK  Name = 
REMARK                            x       y       z     vdW  Elec       q    Type
REMARK                         _______ _______ _______ _____ _____    ______ ____
ROOT
ATOM      1  C   LIG    1       17.867  47.950  17.460  0.00  0.00    +0.100 C 
ENDROOT
BRANCH   1   6
ATOM      2 CL   LIG    1       14.884  45.686  12.641  0.00  0.00    -0.084 Cl
ATOM      3  C   LIG    1       15.688  46.313  14.025  0.00  0.00    +0.041 A 
ATOM      4  C   LIG    1       16.006  45.479  15.087  0.00  0.00    +0.020 A 
ATOM      5  C   LIG    1       16.670  45.985  16.216  0.00  0.00    +0.006 A 
ATOM      6  C   LIG    1       17.052  47.335  16.293  0.00  0.00    -0.036 A 
ATOM      7  C   LIG    1       16.715  48.153  15.191  0.00  0.00    +0.006 A 
ATOM      8  C   LIG    1       16.034  47.656  14.075  0.00  0.00    +0.020 A 
ENDBRANCH   1   6
BRANCH   1   9
ATOM      9  C   LIG    1       19.290  48.383  17.023  0.00  0.00    -0.036 A 
ATOM     10  C   LIG    1       20.163  49.135  17.824  0.00  0.00    +0.006 A 
ATOM     11  C   LIG    1       21.457  49.450  17.386  0.00  0.00    +0.020 A 
ATOM     12  C   LIG    1       21.886  49.060  16.123  0.00  0.00    +0.041 A 
ATOM     13 CL   LIG    1       23.467  49.468  15.583  0.00  0.00    -0.084 Cl
ATOM     14  C   LIG    1       21.038  48.336  15.298  0.00  0.00    +0.020 A 
ATOM     15  C   LIG    1       19.764  47.984  15.753  0.00  0.00    +0.006 A 
ENDBRANCH   1   9
BRANCH   1  16
ATOM     16  C   LIG    1       17.125  48.899  18.487  0.00  0.00    +0.201 C 
ATOM     17 CL   LIG    1       17.996  48.931  20.079  0.00  0.00    -0.082 Cl
ATOM     18 CL   LIG    1       15.463  48.266  18.857  0.00  0.00    -0.082 Cl
ATOM     19 CL   LIG    1       16.927  50.615  17.974  0.00  0.00    -0.082 Cl
ENDBRANCH   1  16
TORSDOF 3
ENDMDL
MODEL 6
REMARK VINA RESULT:      -6.7      2.310      6.125
REMARK  Name = 
REMARK                            x       y       z     vdW  Elec       q    Type
REMARK                         _______ _______ _______ _____ _____    ______ ____
ROOT
ATOM      1  C   LIG    1       19.367  48.105  15.845  0.00  0.00    +0.100 C 
ENDROOT
BRANCH   1   6
ATOM      2 CL   LIG    1       23.026  51.606  12.439  0.00  0.00    -0.084 Cl
ATOM      3  C   LIG    1       21.989  50.655  13.427  0.00  0.00    +0.041 A 
ATOM      4  C   LIG    1       20.659  51.013  13.593  0.00  0.00    +0.020 A 
ATOM      5  C   LIG    1       19.807  50.235  14.392  0.00  0.00    +0.006 A 
ATOM      6  C   LIG    1       20.265  49.067  15.024  0.00  0.00    -0.036 A 
ATOM      7  C   LIG    1       21.623  48.732  14.829  0.00  0.00    +0.006 A 
ATOM      8  C   LIG    1       22.480  49.517  14.051  0.00  0.00    +0.020 A 
ENDBRANCH   1   6
BRANCH   1   9
ATOM      9  C   LIG    1       18.680  48.816  17.040  0.00  0.00    -0.036 A 
ATOM     10  C   LIG    1       17.782  49.887  16.906  0.00  0.00    +0.006 A 
ATOM     11  C   LIG    1       17.157  50.452  18.027  0.00  0.00    +0.020 A 
ATOM     12  C   LIG    1       17.452  49.989  19.304  0.00  0.00    +0.041 A 
ATOM     13 CL   LIG    1       16.698  50.699  20.676  0.00  0.00    -0.084 Cl
ATOM     14  C   LIG    1       18.353  48.947  19.471  0.00  0.00    +0.020 A 
ATOM     15  C   LIG    1       18.941  48.355  18.349  0.00  0.00    +0.006 A 
ENDBRANCH   1   9
BRANCH   1  16
ATOM     16  C   LIG    1       18.502  47.028  15.073  0.00  0.00    +0.201 C 
ATOM     17 CL   LIG    1       17.779  45.832  16.231  0.00  0.00    -0.082 Cl
ATOM     18 CL   LIG    1       19.548  46.048  13.957  0.00  0.00    -0.082 Cl
ATOM     19 CL   LIG    1       17.142  47.671  14.081  0.00  0.00    -0.082 Cl
ENDBRANCH   1  16
TORSDOF 3
ENDMDL
MODEL 7
REMARK VINA RESULT:      -6.2      2.037      5.824
REMARK  Name = 
REMARK                            x       y       z     vdW  Elec       q    Type
REMARK                         _______ _______ _______ _____ _____    ______ ____
ROOT
ATOM      1  C   LIG    1       17.982  47.478  15.421  0.00  0.00    +0.100 C 
ENDROOT
BRANCH   1   6
ATOM      2 CL   LIG    1       23.086  49.519  12.770  0.00  0.00    -0.084 Cl
ATOM      3  C   LIG    1       21.638  48.923  13.478  0.00  0.00    +0.041 A 
ATOM      4  C   LIG    1       21.442  47.558  13.626  0.00  0.00    +0.020 A 
ATOM      5  C   LIG    1       20.264  47.066  14.211  0.00  0.00    +0.006 A 
ATOM      6  C   LIG    1       19.266  47.936  14.682  0.00  0.00    -0.036 A 
ATOM      7  C   LIG    1       19.502  49.319  14.518  0.00  0.00    +0.006 A 
ATOM      8  C   LIG    1       20.665  49.811  13.916  0.00  0.00    +0.020 A 
ENDBRANCH   1   6
BRANCH   1   9
ATOM      9  C   LIG    1       17.758  48.248  16.748  0.00  0.00    -0.036 A 
ATOM     10  C   LIG    1       17.882  47.671  18.022  0.00  0.00    +0.006 A 
ATOM     11  C   LIG    1       17.713  48.439  19.183  0.00  0.00    +0.020 A 
ATOM     12  C   LIG    1       17.373  49.783  19.094  0.00  0.00    +0.041 A 
ATOM     13 CL   LIG    1       17.147  50.714  20.522  0.00  0.00    -0.084 Cl
ATOM     14  C   LIG    1       17.220  50.377  17.850  0.00  0.00    +0.020 A 
ATOM     15  C   LIG    1       17.431  49.621  16.692  0.00  0.00    +0.006 A 
ENDBRANCH   1   9
BRANCH   1  16
ATOM     16  C   LIG    1       16.690  47.152  14.567  0.00  0.00    +0.201 C 
ATOM     17 CL   LIG    1       17.034  45.848  13.352  0.00  0.00    -0.082 Cl
ATOM     18 CL   LIG    1       16.186  48.599  13.593  0.00  0.00    -0.082 Cl
ATOM     19 CL   LIG    1       15.242  46.619  15.498  0.00  0.00    -0.082 Cl
ENDBRANCH   1  16
TORSDOF 3
ENDMDL
MODEL 8
REMARK VINA RESULT:      -6.2      2.268      4.045
REMARK  Name = 
REMARK                            x       y       z     vdW  Elec       q    Type
REMARK                         _______ _______ _______ _____ _____    ______ ____
ROOT
ATOM      1  C   LIG    1       18.396  48.540  15.492  0.00  0.00    +0.100 C 
ENDROOT
BRANCH   1   6
ATOM      2 CL   LIG    1       16.942  50.555  21.066  0.00  0.00    -0.084 Cl
ATOM      3  C   LIG    1       17.395  49.994  19.506  0.00  0.00    +0.041 A 
ATOM      4  C   LIG    1       18.180  48.858  19.372  0.00  0.00    +0.020 A 
ATOM      5  C   LIG    1       18.546  48.392  18.099  0.00  0.00    +0.006 A 
ATOM      6  C   LIG    1       18.113  49.043  16.932  0.00  0.00    -0.036 A 
ATOM      7  C   LIG    1       17.313  50.194  17.108  0.00  0.00    +0.006 A 
ATOM      8  C   LIG    1       16.965  50.673  18.375  0.00  0.00    +0.020 A 
ENDBRANCH   1   6
BRANCH   1   9
ATOM      9  C   LIG    1       19.778  49.006  14.965  0.00  0.00    -0.036 A 
ATOM     10  C   LIG    1       21.003  48.477  15.401  0.00  0.00    +0.006 A 
ATOM     11  C   LIG    1       22.216  48.910  14.846  0.00  0.00    +0.020 A 
ATOM     12  C   LIG    1       22.231  49.909  13.880  0.00  0.00    +0.041 A 
ATOM     13 CL   LIG    1       23.723  50.449  13.219  0.00  0.00    -0.084 Cl
ATOM     14  C   LIG    1       21.038  50.468  13.445  0.00  0.00    +0.020 A 
ATOM     15  C   LIG    1       19.826  50.005  13.967  0.00  0.00    +0.006 A 
ENDBRANCH   1   9
BRANCH   1  16
ATOM     16  C   LIG    1       17.947  47.075  15.097  0.00  0.00    +0.201 C 
ATOM     17 CL   LIG    1       16.555  47.119  13.934  0.00  0.00    -0.082 Cl
ATOM     18 CL   LIG    1       17.333  46.180  16.553  0.00  0.00    -0.082 Cl
ATOM     19 CL   LIG    1       19.214  46.037  14.345  0.00  0.00    -0.082 Cl
ENDBRANCH   1  16
TORSDOF 3
ENDMDL
