REMARK  Name = 
REMARK                            x       y       z     vdW  Elec       q    Type
REMARK                         _______ _______ _______ _____ _____    ______ ____
ROOT
ATOM      1  C   LIG    1        6.956   0.128  -0.453  0.00  0.00    +0.100 C 
ENDROOT
BRANCH   1   6
ATOM      2 CL   LIG    1        0.907   0.065   0.354  0.00  0.00    -0.084 Cl
ATOM      3  C   LIG    1        2.616   0.069   0.170  0.00  0.00    +0.041 A 
ATOM      4  C   LIG    1        3.336  -1.110   0.297  0.00  0.00    +0.020 A 
ATOM      5  C   LIG    1        4.731  -1.113   0.139  0.00  0.00    +0.006 A 
ATOM      6  C   LIG    1        5.432   0.064  -0.173  0.00  0.00    -0.036 A 
ATOM      7  C   LIG    1        4.665   1.244  -0.298  0.00  0.00    +0.006 A 
ATOM      8  C   LIG    1        3.278   1.254  -0.120  0.00  0.00    +0.020 A 
ENDBRANCH   1   6
BRANCH   1   9
ATOM      9  C   LIG    1        7.712   0.992   0.589  0.00  0.00    -0.036 A 
ATOM     10  C   LIG    1        8.421   0.465   1.680  0.00  0.00    +0.006 A 
ATOM     11  C   LIG    1        9.125   1.302   2.558  0.00  0.00    +0.020 A 
ATOM     12  C   LIG    1        9.096   2.681   2.389  0.00  0.00    +0.041 A 
ATOM     13 CL   LIG    1        9.945   3.703   3.481  0.00  0.00    -0.084 Cl
ATOM     14  C   LIG    1        8.385   3.234   1.334  0.00  0.00    +0.020 A 
ATOM     15  C   LIG    1        7.720   2.396   0.434  0.00  0.00    +0.006 A 
ENDBRANCH   1   9
BRANCH   1  16
ATOM     16  C   LIG    1        7.692  -1.182  -0.951  0.00  0.00    +0.201 C 
ATOM     17 CL   LIG    1        9.391  -0.808  -1.468  0.00  0.00    -0.082 Cl
ATOM     18 CL   LIG    1        6.874  -1.853  -2.427  0.00  0.00    -0.082 Cl
ATOM     19 CL   LIG    1        7.801  -2.528   0.242  0.00  0.00    -0.082 Cl
ENDBRANCH   1  16
TORSDOF 3
