MODEL 1
REMARK VINA RESULT:      -4.8      0.000      0.000
REMARK  Name = 
REMARK                            x       y       z     vdW  Elec       q    Type
REMARK                         _______ _______ _______ _____ _____    ______ ____
ROOT
ATOM      1  C   LIG    1       -4.472  -4.524  14.196  0.00  0.00    +0.000 A 
ATOM      2  C   LIG    1       -4.213  -4.858  15.526  0.00  0.00    +0.004 A 
ATOM      3  C   LIG    1       -5.202  -4.684  16.493  0.00  0.00    +0.045 A 
ATOM      4  C   LIG    1       -6.445  -4.179  16.123  0.00  0.00    +0.117 A 
ATOM      5  C   LIG    1       -6.714  -3.844  14.800  0.00  0.00    +0.045 A 
ATOM      6  C   LIG    1       -5.722  -4.018  13.832  0.00  0.00    +0.004 A 
ENDROOT
BRANCH   4   7
ATOM      7  O   LIG    1       -7.383  -4.024  17.100  0.00  0.00    -0.507 OA
ATOM      8  H   LIG    1       -7.163  -4.619  17.836  0.00  0.00    +0.292 HD
ENDBRANCH   4   7
TORSDOF 1
ENDMDL
MODEL 2
REMARK VINA RESULT:      -4.8      1.344      1.893
REMARK  Name = 
REMARK                            x       y       z     vdW  Elec       q    Type
REMARK                         _______ _______ _______ _____ _____    ______ ____
ROOT
ATOM      1  C   LIG    1       -5.866  -4.259  14.501  0.00  0.00    +0.000 A 
ATOM      2  C   LIG    1       -4.574  -4.668  14.830  0.00  0.00    +0.004 A 
ATOM      3  C   LIG    1       -4.277  -5.056  16.136  0.00  0.00    +0.045 A 
ATOM      4  C   LIG    1       -5.276  -5.034  17.103  0.00  0.00    +0.117 A 
ATOM      5  C   LIG    1       -6.569  -4.629  16.786  0.00  0.00    +0.045 A 
ATOM      6  C   LIG    1       -6.864  -4.239  15.478  0.00  0.00    +0.004 A 
ENDROOT
BRANCH   4   7
ATOM      7  O   LIG    1       -4.943  -5.420  18.368  0.00  0.00    -0.507 OA
ATOM      8  H   LIG    1       -4.678  -4.633  18.871  0.00  0.00    +0.292 HD
ENDBRANCH   4   7
TORSDOF 1
ENDMDL
MODEL 3
REMARK VINA RESULT:      -4.8      0.077      1.829
REMARK  Name = 
REMARK                            x       y       z     vdW  Elec       q    Type
REMARK                         _______ _______ _______ _____ _____    ______ ____
ROOT
ATOM      1  C   LIG    1       -4.553  -4.561  14.135  0.00  0.00    +0.000 A 
ATOM      2  C   LIG    1       -5.823  -4.075  13.825  0.00  0.00    +0.004 A 
ATOM      3  C   LIG    1       -6.768  -3.901  14.836  0.00  0.00    +0.045 A 
ATOM      4  C   LIG    1       -6.434  -4.212  16.150  0.00  0.00    +0.117 A 
ATOM      5  C   LIG    1       -5.169  -4.696  16.470  0.00  0.00    +0.045 A 
ATOM      6  C   LIG    1       -4.225  -4.871  15.456  0.00  0.00    +0.004 A 
ENDROOT
BRANCH   4   7
ATOM      7  O   LIG    1       -7.387  -4.028  17.108  0.00  0.00    -0.507 OA
ATOM      8  H   LIG    1       -8.157  -3.600  16.697  0.00  0.00    +0.292 HD
ENDBRANCH   4   7
TORSDOF 1
ENDMDL
MODEL 4
REMARK VINA RESULT:      -4.8      1.349      2.273
REMARK  Name = 
REMARK                            x       y       z     vdW  Elec       q    Type
REMARK                         _______ _______ _______ _____ _____    ______ ____
ROOT
ATOM      1  C   LIG    1       -5.895  -4.283  14.525  0.00  0.00    +0.000 A 
ATOM      2  C   LIG    1       -6.871  -4.289  15.521  0.00  0.00    +0.004 A 
ATOM      3  C   LIG    1       -6.538  -4.670  16.821  0.00  0.00    +0.045 A 
ATOM      4  C   LIG    1       -5.230  -5.040  17.115  0.00  0.00    +0.117 A 
ATOM      5  C   LIG    1       -4.248  -5.037  16.129  0.00  0.00    +0.045 A 
ATOM      6  C   LIG    1       -4.584  -4.657  14.828  0.00  0.00    +0.004 A 
ENDROOT
BRANCH   4   7
ATOM      7  O   LIG    1       -4.948  -5.406  18.398  0.00  0.00    -0.507 OA
ATOM      8  H   LIG    1       -5.772  -5.387  18.912  0.00  0.00    +0.292 HD
ENDBRANCH   4   7
TORSDOF 1
ENDMDL
MODEL 5
REMARK VINA RESULT:      -4.6      8.169      8.713
REMARK  Name = 
REMARK                            x       y       z     vdW  Elec       q    Type
REMARK                         _______ _______ _______ _____ _____    ______ ____
ROOT
ATOM      1  C   LIG    1       -0.042  -0.584  19.383  0.00  0.00    +0.000 A 
ATOM      2  C   LIG    1       -0.025   0.761  19.014  0.00  0.00    +0.004 A 
ATOM      3  C   LIG    1       -0.670   1.709  19.808  0.00  0.00    +0.045 A 
ATOM      4  C   LIG    1       -1.327   1.304  20.966  0.00  0.00    +0.117 A 
ATOM      5  C   LIG    1       -1.348  -0.035  21.344  0.00  0.00    +0.045 A 
ATOM      6  C   LIG    1       -0.703  -0.983  20.547  0.00  0.00    +0.004 A 
ENDROOT
BRANCH   4   7
ATOM      7  O   LIG    1       -1.945   2.263  21.712  0.00  0.00    -0.507 OA
ATOM      8  H   LIG    1       -1.362   3.038  21.763  0.00  0.00    +0.292 HD
ENDBRANCH   4   7
TORSDOF 1
ENDMDL
MODEL 6
REMARK VINA RESULT:      -4.5      8.386      8.797
REMARK  Name = 
REMARK                            x       y       z     vdW  Elec       q    Type
REMARK                         _______ _______ _______ _____ _____    ______ ____
ROOT
ATOM      1  C   LIG    1       -0.891  -1.555  22.173  0.00  0.00    +0.000 A 
ATOM      2  C   LIG    1       -1.832  -0.685  22.724  0.00  0.00    +0.004 A 
ATOM      3  C   LIG    1       -2.172   0.489  22.053  0.00  0.00    +0.045 A 
ATOM      4  C   LIG    1       -1.568   0.784  20.835  0.00  0.00    +0.117 A 
ATOM      5  C   LIG    1       -0.629  -0.077  20.276  0.00  0.00    +0.045 A 
ATOM      6  C   LIG    1       -0.289  -1.252  20.950  0.00  0.00    +0.004 A 
ENDROOT
BRANCH   4   7
ATOM      7  O   LIG    1       -1.929   1.943  20.213  0.00  0.00    -0.507 OA
ATOM      8  H   LIG    1       -1.235   2.605  20.369  0.00  0.00    +0.292 HD
ENDBRANCH   4   7
TORSDOF 1
ENDMDL
MODEL 7
REMARK VINA RESULT:      -4.5      8.414      8.755
REMARK  Name = 
REMARK                            x       y       z     vdW  Elec       q    Type
REMARK                         _______ _______ _______ _____ _____    ______ ____
ROOT
ATOM      1  C   LIG    1       -0.423   0.971  19.816  0.00  0.00    +0.000 A 
ATOM      2  C   LIG    1       -1.367   1.607  20.622  0.00  0.00    +0.004 A 
ATOM      3  C   LIG    1       -1.942   0.924  21.693  0.00  0.00    +0.045 A 
ATOM      4  C   LIG    1       -1.567  -0.390  21.951  0.00  0.00    +0.117 A 
ATOM      5  C   LIG    1       -0.625  -1.034  21.155  0.00  0.00    +0.045 A 
ATOM      6  C   LIG    1       -0.052  -0.349  20.082  0.00  0.00    +0.004 A 
ENDROOT
BRANCH   4   7
ATOM      7  O   LIG    1       -2.155  -1.021  23.008  0.00  0.00    -0.507 OA
ATOM      8  H   LIG    1       -2.194  -0.401  23.754  0.00  0.00    +0.292 HD
ENDBRANCH   4   7
TORSDOF 1
ENDMDL
MODEL 8
REMARK VINA RESULT:      -4.5      0.961      2.023
REMARK  Name = 
REMARK                            x       y       z     vdW  Elec       q    Type
REMARK                         _______ _______ _______ _____ _____    ______ ____
ROOT
ATOM      1  C   LIG    1       -3.986  -4.698  15.228  0.00  0.00    +0.000 A 
ATOM      2  C   LIG    1       -4.629  -4.560  13.997  0.00  0.00    +0.004 A 
ATOM      3  C   LIG    1       -6.017  -4.440  13.946  0.00  0.00    +0.045 A 
ATOM      4  C   LIG    1       -6.753  -4.458  15.127  0.00  0.00    +0.117 A 
ATOM      5  C   LIG    1       -6.122  -4.594  16.359  0.00  0.00    +0.045 A 
ATOM      6  C   LIG    1       -4.732  -4.715  16.409  0.00  0.00    +0.004 A 
ENDROOT
BRANCH   4   7
ATOM      7  O   LIG    1       -8.108  -4.339  15.031  0.00  0.00    -0.507 OA
ATOM      8  H   LIG    1       -8.314  -3.474  14.640  0.00  0.00    +0.292 HD
ENDBRANCH   4   7
TORSDOF 1
ENDMDL
MODEL 9
REMARK VINA RESULT:      -4.5      2.009      3.259
REMARK  Name = 
REMARK                            x       y       z     vdW  Elec       q    Type
REMARK                         _______ _______ _______ _____ _____    ______ ____
ROOT
ATOM      1  C   LIG    1       -6.701  -4.533  16.503  0.00  0.00    +0.000 A 
ATOM      2  C   LIG    1       -6.724  -4.116  15.172  0.00  0.00    +0.004 A 
ATOM      3  C   LIG    1       -5.557  -4.152  14.410  0.00  0.00    +0.045 A 
ATOM      4  C   LIG    1       -4.374  -4.605  14.985  0.00  0.00    +0.117 A 
ATOM      5  C   LIG    1       -4.339  -5.024  16.311  0.00  0.00    +0.045 A 
ATOM      6  C   LIG    1       -5.509  -4.986  17.073  0.00  0.00    +0.004 A 
ENDROOT
BRANCH   4   7
ATOM      7  O   LIG    1       -3.256  -4.622  14.205  0.00  0.00    -0.507 OA
ATOM      8  H   LIG    1       -2.569  -4.090  14.640  0.00  0.00    +0.292 HD
ENDBRANCH   4   7
TORSDOF 1
ENDMDL
