MODEL 1
REMARK VINA RESULT:      -5.3      0.000      0.000
REMARK  Name = 
REMARK                            x       y       z     vdW  Elec       q    Type
REMARK                         _______ _______ _______ _____ _____    ______ ____
ROOT
ATOM      1  C   LIG    1       65.931  57.534  88.199  0.00  0.00    +0.000 A 
ATOM      2  C   LIG    1       65.484  56.797  89.296  0.00  0.00    +0.004 A 
ATOM      3  C   LIG    1       66.171  55.651  89.693  0.00  0.00    +0.045 A 
ATOM      4  C   LIG    1       67.302  55.249  88.989  0.00  0.00    +0.117 A 
ATOM      5  C   LIG    1       67.758  55.977  87.894  0.00  0.00    +0.045 A 
ATOM      6  C   LIG    1       67.067  57.124  87.498  0.00  0.00    +0.004 A 
ENDROOT
BRANCH   4   7
ATOM      7  O   LIG    1       67.944  54.122  89.409  0.00  0.00    -0.507 OA
ATOM      8  H   LIG    1       67.784  54.013  90.361  0.00  0.00    +0.292 HD
ENDBRANCH   4   7
TORSDOF 1
ENDMDL
MODEL 2
REMARK VINA RESULT:      -4.9      8.174      9.420
REMARK  Name = 
REMARK                            x       y       z     vdW  Elec       q    Type
REMARK                         _______ _______ _______ _____ _____    ______ ____
ROOT
ATOM      1  C   LIG    1       68.604  47.450  94.489  0.00  0.00    +0.000 A 
ATOM      2  C   LIG    1       69.803  48.006  94.041  0.00  0.00    +0.004 A 
ATOM      3  C   LIG    1       69.826  48.754  92.864  0.00  0.00    +0.045 A 
ATOM      4  C   LIG    1       68.650  48.942  92.145  0.00  0.00    +0.117 A 
ATOM      5  C   LIG    1       67.449  48.393  92.584  0.00  0.00    +0.045 A 
ATOM      6  C   LIG    1       67.428  47.643  93.762  0.00  0.00    +0.004 A 
ENDROOT
BRANCH   4   7
ATOM      7  O   LIG    1       68.717  49.679  91.000  0.00  0.00    -0.507 OA
ATOM      8  H   LIG    1       69.621  49.619  90.648  0.00  0.00    +0.292 HD
ENDBRANCH   4   7
TORSDOF 1
ENDMDL
MODEL 3
REMARK VINA RESULT:      -4.9      8.198      9.337
REMARK  Name = 
REMARK                            x       y       z     vdW  Elec       q    Type
REMARK                         _______ _______ _______ _____ _____    ______ ____
ROOT
ATOM      1  C   LIG    1       68.526  47.417  94.494  0.00  0.00    +0.000 A 
ATOM      2  C   LIG    1       67.376  47.654  93.740  0.00  0.00    +0.004 A 
ATOM      3  C   LIG    1       67.452  48.415  92.574  0.00  0.00    +0.045 A 
ATOM      4  C   LIG    1       68.679  48.932  92.169  0.00  0.00    +0.117 A 
ATOM      5  C   LIG    1       69.832  48.700  92.912  0.00  0.00    +0.045 A 
ATOM      6  C   LIG    1       69.754  47.939  94.080  0.00  0.00    +0.004 A 
ENDROOT
BRANCH   4   7
ATOM      7  O   LIG    1       68.709  49.671  91.023  0.00  0.00    -0.507 OA
ATOM      8  H   LIG    1       68.415  49.109  90.287  0.00  0.00    +0.292 HD
ENDBRANCH   4   7
TORSDOF 1
ENDMDL
MODEL 4
REMARK VINA RESULT:      -4.8      1.288      2.128
REMARK  Name = 
REMARK                            x       y       z     vdW  Elec       q    Type
REMARK                         _______ _______ _______ _____ _____    ______ ____
ROOT
ATOM      1  C   LIG    1       65.359  56.496  88.906  0.00  0.00    +0.000 A 
ATOM      2  C   LIG    1       66.044  57.603  88.403  0.00  0.00    +0.004 A 
ATOM      3  C   LIG    1       67.437  57.598  88.357  0.00  0.00    +0.045 A 
ATOM      4  C   LIG    1       68.136  56.485  88.815  0.00  0.00    +0.117 A 
ATOM      5  C   LIG    1       67.464  55.376  89.317  0.00  0.00    +0.045 A 
ATOM      6  C   LIG    1       66.068  55.383  89.363  0.00  0.00    +0.004 A 
ENDROOT
BRANCH   4   7
ATOM      7  O   LIG    1       69.498  56.522  88.753  0.00  0.00    -0.507 OA
ATOM      8  H   LIG    1       69.765  56.504  87.819  0.00  0.00    +0.292 HD
ENDBRANCH   4   7
TORSDOF 1
ENDMDL
MODEL 5
REMARK VINA RESULT:      -4.7      1.913      3.218
REMARK  Name = 
REMARK                            x       y       z     vdW  Elec       q    Type
REMARK                         _______ _______ _______ _____ _____    ______ ____
ROOT
ATOM      1  C   LIG    1       68.086  54.774  88.975  0.00  0.00    +0.000 A 
ATOM      2  C   LIG    1       68.330  55.540  87.834  0.00  0.00    +0.004 A 
ATOM      3  C   LIG    1       67.424  56.528  87.451  0.00  0.00    +0.045 A 
ATOM      4  C   LIG    1       66.279  56.743  88.212  0.00  0.00    +0.117 A 
ATOM      5  C   LIG    1       66.026  55.986  89.352  0.00  0.00    +0.045 A 
ATOM      6  C   LIG    1       66.934  54.997  89.733  0.00  0.00    +0.004 A 
ENDROOT
BRANCH   4   7
ATOM      7  O   LIG    1       65.418  57.718  87.801  0.00  0.00    -0.507 OA
ATOM      8  H   LIG    1       64.854  57.967  88.552  0.00  0.00    +0.292 HD
ENDBRANCH   4   7
TORSDOF 1
ENDMDL
MODEL 6
REMARK VINA RESULT:      -4.6      1.833      2.608
REMARK  Name = 
REMARK                            x       y       z     vdW  Elec       q    Type
REMARK                         _______ _______ _______ _____ _____    ______ ____
ROOT
ATOM      1  C   LIG    1       68.279  54.961  88.541  0.00  0.00    +0.000 A 
ATOM      2  C   LIG    1       67.297  54.803  89.520  0.00  0.00    +0.004 A 
ATOM      3  C   LIG    1       66.191  55.652  89.540  0.00  0.00    +0.045 A 
ATOM      4  C   LIG    1       66.075  56.653  88.580  0.00  0.00    +0.117 A 
ATOM      5  C   LIG    1       67.048  56.818  87.599  0.00  0.00    +0.045 A 
ATOM      6  C   LIG    1       68.155  55.967  87.581  0.00  0.00    +0.004 A 
ENDROOT
BRANCH   4   7
ATOM      7  O   LIG    1       64.979  57.462  88.637  0.00  0.00    -0.507 OA
ATOM      8  H   LIG    1       65.264  58.378  88.485  0.00  0.00    +0.292 HD
ENDBRANCH   4   7
TORSDOF 1
ENDMDL
MODEL 7
REMARK VINA RESULT:      -4.6      2.859      3.989
REMARK  Name = 
REMARK                            x       y       z     vdW  Elec       q    Type
REMARK                         _______ _______ _______ _____ _____    ______ ____
ROOT
ATOM      1  C   LIG    1       70.061  56.326  89.397  0.00  0.00    +0.000 A 
ATOM      2  C   LIG    1       71.184  55.575  89.047  0.00  0.00    +0.004 A 
ATOM      3  C   LIG    1       71.078  54.575  88.081  0.00  0.00    +0.045 A 
ATOM      4  C   LIG    1       69.851  54.333  87.472  0.00  0.00    +0.117 A 
ATOM      5  C   LIG    1       68.726  55.077  87.812  0.00  0.00    +0.045 A 
ATOM      6  C   LIG    1       68.833  56.078  88.781  0.00  0.00    +0.004 A 
ENDROOT
BRANCH   4   7
ATOM      7  O   LIG    1       69.793  53.345  86.533  0.00  0.00    -0.507 OA
ATOM      8  H   LIG    1       70.219  53.666  85.721  0.00  0.00    +0.292 HD
ENDBRANCH   4   7
TORSDOF 1
ENDMDL
MODEL 8
REMARK VINA RESULT:      -4.6      8.426      9.403
REMARK  Name = 
REMARK                            x       y       z     vdW  Elec       q    Type
REMARK                         _______ _______ _______ _____ _____    ______ ____
ROOT
ATOM      1  C   LIG    1       67.642  48.351  92.597  0.00  0.00    +0.000 A 
ATOM      2  C   LIG    1       67.692  47.658  93.806  0.00  0.00    +0.004 A 
ATOM      3  C   LIG    1       68.790  47.811  94.652  0.00  0.00    +0.045 A 
ATOM      4  C   LIG    1       69.831  48.657  94.282  0.00  0.00    +0.117 A 
ATOM      5  C   LIG    1       69.791  49.354  93.079  0.00  0.00    +0.045 A 
ATOM      6  C   LIG    1       68.691  49.199  92.233  0.00  0.00    +0.004 A 
ENDROOT
BRANCH   4   7
ATOM      7  O   LIG    1       70.886  48.777  95.138  0.00  0.00    -0.507 OA
ATOM      8  H   LIG    1       71.210  47.887  95.353  0.00  0.00    +0.292 HD
ENDBRANCH   4   7
TORSDOF 1
ENDMDL
MODEL 9
REMARK VINA RESULT:      -4.5      2.674      3.791
REMARK  Name = 
REMARK                            x       y       z     vdW  Elec       q    Type
REMARK                         _______ _______ _______ _____ _____    ______ ____
ROOT
ATOM      1  C   LIG    1       70.682  55.319  88.938  0.00  0.00    +0.000 A 
ATOM      2  C   LIG    1       69.509  56.033  89.180  0.00  0.00    +0.004 A 
ATOM      3  C   LIG    1       68.529  56.119  88.191  0.00  0.00    +0.045 A 
ATOM      4  C   LIG    1       68.731  55.489  86.967  0.00  0.00    +0.117 A 
ATOM      5  C   LIG    1       69.896  54.772  86.716  0.00  0.00    +0.045 A 
ATOM      6  C   LIG    1       70.877  54.688  87.707  0.00  0.00    +0.004 A 
ENDROOT
BRANCH   4   7
ATOM      7  O   LIG    1       67.748  55.599  86.028  0.00  0.00    -0.507 OA
ATOM      8  H   LIG    1       67.776  56.496  85.657  0.00  0.00    +0.292 HD
ENDBRANCH   4   7
TORSDOF 1
ENDMDL
