MODEL 1
REMARK VINA RESULT:      -5.1      0.000      0.000
REMARK  Name = 
REMARK                            x       y       z     vdW  Elec       q    Type
REMARK                         _______ _______ _______ _____ _____    ______ ____
ROOT
ATOM      1  C   LIG    1        2.710  29.794   4.552  0.00  0.00    +0.000 A 
ATOM      2  C   LIG    1        1.906  28.667   4.375  0.00  0.00    +0.004 A 
ATOM      3  C   LIG    1        2.366  27.413   4.777  0.00  0.00    +0.045 A 
ATOM      4  C   LIG    1        3.627  27.296   5.354  0.00  0.00    +0.117 A 
ATOM      5  C   LIG    1        4.436  28.413   5.536  0.00  0.00    +0.045 A 
ATOM      6  C   LIG    1        3.974  29.667   5.131  0.00  0.00    +0.004 A 
ENDROOT
BRANCH   4   7
ATOM      7  O   LIG    1        4.038  26.052   5.732  0.00  0.00    -0.507 OA
ATOM      8  H   LIG    1        4.029  25.474   4.951  0.00  0.00    +0.292 HD
ENDBRANCH   4   7
TORSDOF 1
ENDMDL
MODEL 2
REMARK VINA RESULT:      -5.1      0.053      1.829
REMARK  Name = 
REMARK                            x       y       z     vdW  Elec       q    Type
REMARK                         _______ _______ _______ _____ _____    ______ ____
ROOT
ATOM      1  C   LIG    1        2.705  29.833   4.585  0.00  0.00    +0.000 A 
ATOM      2  C   LIG    1        3.974  29.668   5.141  0.00  0.00    +0.004 A 
ATOM      3  C   LIG    1        4.410  28.397   5.515  0.00  0.00    +0.045 A 
ATOM      4  C   LIG    1        3.574  27.301   5.329  0.00  0.00    +0.117 A 
ATOM      5  C   LIG    1        2.308  27.454   4.773  0.00  0.00    +0.045 A 
ATOM      6  C   LIG    1        1.872  28.728   4.401  0.00  0.00    +0.004 A 
ENDROOT
BRANCH   4   7
ATOM      7  O   LIG    1        4.039  26.076   5.709  0.00  0.00    -0.507 OA
ATOM      8  H   LIG    1        5.010  26.096   5.687  0.00  0.00    +0.292 HD
ENDBRANCH   4   7
TORSDOF 1
ENDMDL
MODEL 3
REMARK VINA RESULT:      -4.9      8.155      9.384
REMARK  Name = 
REMARK                            x       y       z     vdW  Elec       q    Type
REMARK                         _______ _______ _______ _____ _____    ______ ____
ROOT
ATOM      1  C   LIG    1        4.539  21.913  13.406  0.00  0.00    +0.000 A 
ATOM      2  C   LIG    1        5.138  22.986  12.746  0.00  0.00    +0.004 A 
ATOM      3  C   LIG    1        4.751  23.308  11.446  0.00  0.00    +0.045 A 
ATOM      4  C   LIG    1        3.767  22.555  10.815  0.00  0.00    +0.117 A 
ATOM      5  C   LIG    1        3.162  21.483  11.464  0.00  0.00    +0.045 A 
ATOM      6  C   LIG    1        3.551  21.161  12.766  0.00  0.00    +0.004 A 
ENDROOT
BRANCH   4   7
ATOM      7  O   LIG    1        3.419  22.903   9.543  0.00  0.00    -0.507 OA
ATOM      8  H   LIG    1        3.599  23.850   9.423  0.00  0.00    +0.292 HD
ENDBRANCH   4   7
TORSDOF 1
ENDMDL
MODEL 4
REMARK VINA RESULT:      -4.6      1.927      2.643
REMARK  Name = 
REMARK                            x       y       z     vdW  Elec       q    Type
REMARK                         _______ _______ _______ _____ _____    ______ ____
ROOT
ATOM      1  C   LIG    1        4.045  28.603   5.375  0.00  0.00    +0.000 A 
ATOM      2  C   LIG    1        3.315  27.419   5.485  0.00  0.00    +0.004 A 
ATOM      3  C   LIG    1        1.953  27.409   5.183  0.00  0.00    +0.045 A 
ATOM      4  C   LIG    1        1.332  28.585   4.773  0.00  0.00    +0.117 A 
ATOM      5  C   LIG    1        2.050  29.771   4.659  0.00  0.00    +0.045 A 
ATOM      6  C   LIG    1        3.413  29.778   4.963  0.00  0.00    +0.004 A 
ENDROOT
BRANCH   4   7
ATOM      7  O   LIG    1       -0.001  28.531   4.490  0.00  0.00    -0.507 OA
ATOM      8  H   LIG    1       -0.196  29.191   3.803  0.00  0.00    +0.292 HD
ENDBRANCH   4   7
TORSDOF 1
ENDMDL
MODEL 5
REMARK VINA RESULT:      -4.3      1.466      2.369
REMARK  Name = 
REMARK                            x       y       z     vdW  Elec       q    Type
REMARK                         _______ _______ _______ _____ _____    ______ ____
ROOT
ATOM      1  C   LIG    1        0.597  28.574   4.637  0.00  0.00    +0.000 A 
ATOM      2  C   LIG    1        1.374  29.657   4.225  0.00  0.00    +0.004 A 
ATOM      3  C   LIG    1        2.727  29.711   4.560  0.00  0.00    +0.045 A 
ATOM      4  C   LIG    1        3.292  28.682   5.306  0.00  0.00    +0.117 A 
ATOM      5  C   LIG    1        2.527  27.597   5.721  0.00  0.00    +0.045 A 
ATOM      6  C   LIG    1        1.172  27.545   5.385  0.00  0.00    +0.004 A 
ENDROOT
BRANCH   4   7
ATOM      7  O   LIG    1        4.618  28.775   5.613  0.00  0.00    -0.507 OA
ATOM      8  H   LIG    1        4.944  29.638   5.308  0.00  0.00    +0.292 HD
ENDBRANCH   4   7
TORSDOF 1
ENDMDL
MODEL 6
REMARK VINA RESULT:      -4.3      4.341      5.368
REMARK  Name = 
REMARK                            x       y       z     vdW  Elec       q    Type
REMARK                         _______ _______ _______ _____ _____    ______ ____
ROOT
ATOM      1  C   LIG    1        2.441  32.087   3.428  0.00  0.00    +0.000 A 
ATOM      2  C   LIG    1        1.839  30.943   3.953  0.00  0.00    +0.004 A 
ATOM      3  C   LIG    1        0.521  30.995   4.404  0.00  0.00    +0.045 A 
ATOM      4  C   LIG    1       -0.187  32.190   4.325  0.00  0.00    +0.117 A 
ATOM      5  C   LIG    1        0.403  33.336   3.802  0.00  0.00    +0.045 A 
ATOM      6  C   LIG    1        1.724  33.283   3.353  0.00  0.00    +0.004 A 
ENDROOT
BRANCH   4   7
ATOM      7  O   LIG    1       -1.473  32.196   4.778  0.00  0.00    -0.507 OA
ATOM      8  H   LIG    1       -1.482  31.847   5.684  0.00  0.00    +0.292 HD
ENDBRANCH   4   7
TORSDOF 1
ENDMDL
MODEL 7
REMARK VINA RESULT:      -4.3      1.951      3.043
REMARK  Name = 
REMARK                            x       y       z     vdW  Elec       q    Type
REMARK                         _______ _______ _______ _____ _____    ______ ____
ROOT
ATOM      1  C   LIG    1        2.654  27.364   4.683  0.00  0.00    +0.000 A 
ATOM      2  C   LIG    1        3.921  27.507   5.248  0.00  0.00    +0.004 A 
ATOM      3  C   LIG    1        4.465  28.779   5.424  0.00  0.00    +0.045 A 
ATOM      4  C   LIG    1        3.737  29.899   5.035  0.00  0.00    +0.117 A 
ATOM      5  C   LIG    1        2.471  29.767   4.472  0.00  0.00    +0.045 A 
ATOM      6  C   LIG    1        1.929  28.493   4.295  0.00  0.00    +0.004 A 
ENDROOT
BRANCH   4   7
ATOM      7  O   LIG    1        4.306  31.123   5.224  0.00  0.00    -0.507 OA
ATOM      8  H   LIG    1        4.568  31.201   6.156  0.00  0.00    +0.292 HD
ENDBRANCH   4   7
TORSDOF 1
ENDMDL
MODEL 8
REMARK VINA RESULT:      -4.2      2.054      2.822
REMARK  Name = 
REMARK                            x       y       z     vdW  Elec       q    Type
REMARK                         _______ _______ _______ _____ _____    ______ ____
ROOT
ATOM      1  C   LIG    1        3.789  29.815   5.089  0.00  0.00    +0.000 A 
ATOM      2  C   LIG    1        2.858  30.637   4.454  0.00  0.00    +0.004 A 
ATOM      3  C   LIG    1        1.557  30.181   4.239  0.00  0.00    +0.045 A 
ATOM      4  C   LIG    1        1.198  28.906   4.663  0.00  0.00    +0.117 A 
ATOM      5  C   LIG    1        2.118  28.078   5.299  0.00  0.00    +0.045 A 
ATOM      6  C   LIG    1        3.420  28.536   5.512  0.00  0.00    +0.004 A 
ENDROOT
BRANCH   4   7
ATOM      7  O   LIG    1       -0.083  28.499   4.433  0.00  0.00    -0.507 OA
ATOM      8  H   LIG    1       -0.074  27.547   4.239  0.00  0.00    +0.292 HD
ENDBRANCH   4   7
TORSDOF 1
ENDMDL
MODEL 9
REMARK VINA RESULT:      -4.2      4.345      5.480
REMARK  Name = 
REMARK                            x       y       z     vdW  Elec       q    Type
REMARK                         _______ _______ _______ _____ _____    ______ ____
ROOT
ATOM      1  C   LIG    1        2.555  31.747   3.546  0.00  0.00    +0.000 A 
ATOM      2  C   LIG    1        2.045  33.025   3.313  0.00  0.00    +0.004 A 
ATOM      3  C   LIG    1        0.721  33.316   3.639  0.00  0.00    +0.045 A 
ATOM      4  C   LIG    1       -0.084  32.327   4.196  0.00  0.00    +0.117 A 
ATOM      5  C   LIG    1        0.415  31.050   4.433  0.00  0.00    +0.045 A 
ATOM      6  C   LIG    1        1.741  30.760   4.106  0.00  0.00    +0.004 A 
ENDROOT
BRANCH   4   7
ATOM      7  O   LIG    1       -1.373  32.654   4.498  0.00  0.00    -0.507 OA
ATOM      8  H   LIG    1       -1.955  32.268   3.823  0.00  0.00    +0.292 HD
ENDBRANCH   4   7
TORSDOF 1
ENDMDL
