MODEL 1
REMARK VINA RESULT:      -7.6      0.000      0.000
REMARK  Name = 
REMARK                            x       y       z     vdW  Elec       q    Type
REMARK                         _______ _______ _______ _____ _____    ______ ____
ROOT
ATOM      1  C   LIG    1       -8.903  -5.704   8.677  0.00  0.00    +0.352 C 
ENDROOT
BRANCH   1   4
ATOM      2  O   LIG    1      -10.419  -5.863  11.146  0.00  0.00    -0.270 OA
ATOM      3  C   LIG    1       -9.839  -4.856  10.784  0.00  0.00    +0.252 C 
ATOM      4  N   LIG    1       -9.107  -4.659   9.656  0.00  0.00    -0.200 N 
ATOM      5  C   LIG    1       -8.626  -3.389   9.615  0.00  0.00    +0.252 C 
ATOM      6  O   LIG    1       -7.939  -2.824   8.784  0.00  0.00    -0.270 OA
ATOM      7  C   LIG    1       -9.100  -2.724  10.834  0.00  0.00    +0.023 C 
ATOM      8  C   LIG    1       -8.813  -1.329  11.205  0.00  0.00    +0.041 C 
ATOM      9  C   LIG    1       -9.376  -0.921  12.573  0.00  0.00    +0.005 C 
ATOM     10  C   LIG    1      -10.308  -1.889  13.327  0.00  0.00    +0.005 C 
ATOM     11  C   LIG    1      -10.467  -3.334  12.827  0.00  0.00    +0.041 C 
ATOM     12  C   LIG    1       -9.817  -3.596  11.533  0.00  0.00    +0.023 C 
ENDBRANCH   1   4
BRANCH   1  13
ATOM     13  O   LIG    1       -7.925  -6.618   9.141  0.00  0.00    -0.444 OA
BRANCH  13  14
ATOM     14  C   LIG    1       -6.645  -6.210   9.020  0.00  0.00    +0.313 C 
ATOM     15  O   LIG    1       -6.247  -5.300   8.305  0.00  0.00    -0.250 OA
BRANCH  14  16
ATOM     16  C   LIG    1       -5.782  -6.991   9.935  0.00  0.00    +0.111 C 
ATOM     17  C   LIG    1       -6.238  -7.736  11.180  0.00  0.00    -0.014 C 
ATOM     18  C   LIG    1       -5.495  -9.013  11.512  0.00  0.00    +0.012 C 
ATOM     19  C   LIG    1       -7.696  -7.800  11.559  0.00  0.00    +0.012 C 
ATOM     20  C   LIG    1       -5.445  -6.447  11.315  0.00  0.00    +0.032 C 
BRANCH  20  21
ATOM     21  C   LIG    1       -6.052  -5.186  11.769  0.00  0.00    -0.023 C 
ATOM     22  C   LIG    1       -5.815  -4.547  12.933  0.00  0.00    -0.079 C 
ATOM     23  C   LIG    1       -6.505  -3.254  13.271  0.00  0.00    +0.038 C 
ATOM     24  C   LIG    1       -4.870  -5.049  13.990  0.00  0.00    +0.038 C 
ENDBRANCH  20  21
ENDBRANCH  14  16
ENDBRANCH  13  14
ENDBRANCH   1  13
TORSDOF 5
ENDMDL
MODEL 2
REMARK VINA RESULT:      -7.5      2.059      4.823
REMARK  Name = 
REMARK                            x       y       z     vdW  Elec       q    Type
REMARK                         _______ _______ _______ _____ _____    ______ ____
ROOT
ATOM      1  C   LIG    1       -9.555  -1.757  12.056  0.00  0.00    +0.352 C 
ENDROOT
BRANCH   1   4
ATOM      2  O   LIG    1       -7.729  -1.799   9.801  0.00  0.00    -0.270 OA
ATOM      3  C   LIG    1       -8.437  -2.741  10.100  0.00  0.00    +0.252 C 
ATOM      4  N   LIG    1       -9.329  -2.840  11.122  0.00  0.00    -0.200 N 
ATOM      5  C   LIG    1       -9.929  -4.059  11.116  0.00  0.00    +0.252 C 
ATOM      6  O   LIG    1      -10.775  -4.534  11.851  0.00  0.00    -0.270 OA
ATOM      7  C   LIG    1       -9.360  -4.798   9.984  0.00  0.00    +0.023 C 
ATOM      8  C   LIG    1       -9.722  -6.171   9.600  0.00  0.00    +0.041 C 
ATOM      9  C   LIG    1       -8.914  -6.721   8.418  0.00  0.00    +0.005 C 
ATOM     10  C   LIG    1       -7.970  -5.780   7.644  0.00  0.00    +0.005 C 
ATOM     11  C   LIG    1       -7.663  -4.382   8.206  0.00  0.00    +0.041 C 
ATOM     12  C   LIG    1       -8.470  -4.018   9.382  0.00  0.00    +0.023 C 
ENDBRANCH   1   4
BRANCH   1  13
ATOM     13  O   LIG    1       -9.265  -2.187  13.374  0.00  0.00    -0.444 OA
BRANCH  13  14
ATOM     14  C   LIG    1       -8.071  -2.795  13.537  0.00  0.00    +0.313 C 
ATOM     15  O   LIG    1       -6.995  -2.385  13.122  0.00  0.00    -0.250 OA
BRANCH  14  16
ATOM     16  C   LIG    1       -8.241  -4.018  14.354  0.00  0.00    +0.111 C 
ATOM     17  C   LIG    1       -7.177  -4.671  15.222  0.00  0.00    -0.014 C 
ATOM     18  C   LIG    1       -7.660  -5.346  16.488  0.00  0.00    +0.012 C 
ATOM     19  C   LIG    1       -5.812  -4.050  15.382  0.00  0.00    +0.012 C 
ATOM     20  C   LIG    1       -7.597  -5.323  13.916  0.00  0.00    +0.032 C 
BRANCH  20  21
ATOM     21  C   LIG    1       -6.733  -5.346  12.725  0.00  0.00    -0.023 C 
ATOM     22  C   LIG    1       -6.660  -6.320  11.796  0.00  0.00    -0.079 C 
ATOM     23  C   LIG    1       -5.730  -6.212  10.619  0.00  0.00    +0.038 C 
ATOM     24  C   LIG    1       -7.473  -7.585  11.839  0.00  0.00    +0.038 C 
ENDBRANCH  20  21
ENDBRANCH  14  16
ENDBRANCH  13  14
ENDBRANCH   1  13
TORSDOF 5
ENDMDL
MODEL 3
REMARK VINA RESULT:      -7.4      1.963      5.029
REMARK  Name = 
REMARK                            x       y       z     vdW  Elec       q    Type
REMARK                         _______ _______ _______ _____ _____    ______ ____
ROOT
ATOM      1  C   LIG    1       -6.057  -6.652  10.500  0.00  0.00    +0.352 C 
ENDROOT
BRANCH   1   4
ATOM      2  O   LIG    1       -3.889  -5.450  12.007  0.00  0.00    -0.270 OA
ATOM      3  C   LIG    1       -5.020  -5.558  12.441  0.00  0.00    +0.252 C 
ATOM      4  N   LIG    1       -6.110  -6.102  11.837  0.00  0.00    -0.200 N 
ATOM      5  C   LIG    1       -7.192  -6.038  12.658  0.00  0.00    +0.252 C 
ATOM      6  O   LIG    1       -8.338  -6.412  12.494  0.00  0.00    -0.270 OA
ATOM      7  C   LIG    1       -6.740  -5.391  13.894  0.00  0.00    +0.023 C 
ATOM      8  C   LIG    1       -7.587  -5.113  15.064  0.00  0.00    +0.041 C 
ATOM      9  C   LIG    1       -6.867  -4.359  16.189  0.00  0.00    +0.005 C 
ATOM     10  C   LIG    1       -5.346  -4.129  16.094  0.00  0.00    +0.005 C 
ATOM     11  C   LIG    1       -4.614  -4.435  14.777  0.00  0.00    +0.041 C 
ATOM     12  C   LIG    1       -5.450  -5.100  13.765  0.00  0.00    +0.023 C 
ENDBRANCH   1   4
BRANCH   1  13
ATOM     13  O   LIG    1       -6.409  -5.658   9.554  0.00  0.00    -0.444 OA
BRANCH  13  14
ATOM     14  C   LIG    1       -7.660  -5.747   9.057  0.00  0.00    +0.313 C 
ATOM     15  O   LIG    1       -8.314  -6.776   8.939  0.00  0.00    -0.250 OA
BRANCH  14  16
ATOM     16  C   LIG    1       -8.164  -4.395   8.724  0.00  0.00    +0.111 C 
ATOM     17  C   LIG    1       -8.115  -3.173   9.627  0.00  0.00    -0.014 C 
ATOM     18  C   LIG    1       -7.928  -1.835   8.943  0.00  0.00    +0.012 C 
ATOM     19  C   LIG    1       -7.448  -3.229  10.979  0.00  0.00    +0.012 C 
ATOM     20  C   LIG    1       -9.437  -3.875   9.372  0.00  0.00    +0.032 C 
BRANCH  20  21
ATOM     21  C   LIG    1      -10.117  -4.685  10.395  0.00  0.00    -0.023 C 
ATOM     22  C   LIG    1      -10.639  -4.246  11.559  0.00  0.00    -0.079 C 
ATOM     23  C   LIG    1      -11.315  -5.188  12.518  0.00  0.00    +0.038 C 
ATOM     24  C   LIG    1      -10.596  -2.813  12.012  0.00  0.00    +0.038 C 
ENDBRANCH  20  21
ENDBRANCH  14  16
ENDBRANCH  13  14
ENDBRANCH   1  13
TORSDOF 5
ENDMDL
MODEL 4
REMARK VINA RESULT:      -7.1      2.596      5.273
REMARK  Name = 
REMARK                            x       y       z     vdW  Elec       q    Type
REMARK                         _______ _______ _______ _____ _____    ______ ____
ROOT
ATOM      1  C   LIG    1       -5.554  -4.199  11.705  0.00  0.00    +0.352 C 
ENDROOT
BRANCH   1   4
ATOM      2  O   LIG    1       -3.383  -5.122  13.394  0.00  0.00    -0.270 OA
ATOM      3  C   LIG    1       -4.490  -4.851  13.821  0.00  0.00    +0.252 C 
ATOM      4  N   LIG    1       -5.580  -4.418  13.135  0.00  0.00    -0.200 N 
ATOM      5  C   LIG    1       -6.631  -4.233  13.976  0.00  0.00    +0.252 C 
ATOM      6  O   LIG    1       -7.769  -3.860  13.758  0.00  0.00    -0.270 OA
ATOM      7  C   LIG    1       -6.157  -4.581  15.319  0.00  0.00    +0.023 C 
ATOM      8  C   LIG    1       -6.968  -4.526  16.546  0.00  0.00    +0.041 C 
ATOM      9  C   LIG    1       -6.191  -4.876  17.822  0.00  0.00    +0.005 C 
ATOM     10  C   LIG    1       -4.751  -5.413  17.708  0.00  0.00    +0.005 C 
ATOM     11  C   LIG    1       -4.027  -5.362  16.353  0.00  0.00    +0.041 C 
ATOM     12  C   LIG    1       -4.883  -4.945  15.230  0.00  0.00    +0.023 C 
ENDBRANCH   1   4
BRANCH   1  13
ATOM     13  O   LIG    1       -5.592  -5.440  11.024  0.00  0.00    -0.444 OA
BRANCH  13  14
ATOM     14  C   LIG    1       -6.596  -5.584  10.135  0.00  0.00    +0.313 C 
ATOM     15  O   LIG    1       -6.469  -5.778   8.934  0.00  0.00    -0.250 OA
BRANCH  14  16
ATOM     16  C   LIG    1       -7.898  -5.534  10.839  0.00  0.00    +0.111 C 
ATOM     17  C   LIG    1       -9.266  -5.742  10.211  0.00  0.00    -0.014 C 
ATOM     18  C   LIG    1      -10.314  -6.406  11.079  0.00  0.00    +0.012 C 
ATOM     19  C   LIG    1       -9.407  -6.107   8.754  0.00  0.00    +0.012 C 
ATOM     20  C   LIG    1       -8.830  -4.351  10.636  0.00  0.00    +0.032 C 
BRANCH  20  21
ATOM     21  C   LIG    1       -8.473  -3.300   9.669  0.00  0.00    -0.023 C 
ATOM     22  C   LIG    1       -8.272  -1.993   9.931  0.00  0.00    -0.079 C 
ATOM     23  C   LIG    1       -7.906  -1.023   8.841  0.00  0.00    +0.038 C 
ATOM     24  C   LIG    1       -8.396  -1.382  11.300  0.00  0.00    +0.038 C 
ENDBRANCH  20  21
ENDBRANCH  14  16
ENDBRANCH  13  14
ENDBRANCH   1  13
TORSDOF 5
ENDMDL
MODEL 5
REMARK VINA RESULT:      -7.1      2.560      5.748
REMARK  Name = 
REMARK                            x       y       z     vdW  Elec       q    Type
REMARK                         _______ _______ _______ _____ _____    ______ ____
ROOT
ATOM      1  C   LIG    1       -8.766  -3.937  13.740  0.00  0.00    +0.352 C 
ENDROOT
BRANCH   1   4
ATOM      2  O   LIG    1       -6.034  -3.298  13.001  0.00  0.00    -0.270 OA
ATOM      3  C   LIG    1       -6.329  -3.852  14.044  0.00  0.00    +0.252 C 
ATOM      4  N   LIG    1       -7.562  -4.205  14.496  0.00  0.00    -0.200 N 
ATOM      5  C   LIG    1       -7.469  -4.811  15.708  0.00  0.00    +0.252 C 
ATOM      6  O   LIG    1       -8.330  -5.270  16.436  0.00  0.00    -0.270 OA
ATOM      7  C   LIG    1       -6.044  -4.841  16.053  0.00  0.00    +0.023 C 
ATOM      8  C   LIG    1       -5.482  -5.408  17.288  0.00  0.00    +0.041 C 
ATOM      9  C   LIG    1       -3.963  -5.235  17.418  0.00  0.00    +0.005 C 
ATOM     10  C   LIG    1       -3.160  -4.681  16.225  0.00  0.00    +0.005 C 
ATOM     11  C   LIG    1       -3.905  -4.083  15.021  0.00  0.00    +0.041 C 
ATOM     12  C   LIG    1       -5.365  -4.267  15.067  0.00  0.00    +0.023 C 
ENDBRANCH   1   4
BRANCH   1  13
ATOM     13  O   LIG    1       -9.041  -5.019  12.868  0.00  0.00    -0.444 OA
BRANCH  13  14
ATOM     14  C   LIG    1       -9.507  -4.677  11.649  0.00  0.00    +0.313 C 
ATOM     15  O   LIG    1      -10.597  -4.987  11.185  0.00  0.00    -0.250 OA
BRANCH  14  16
ATOM     16  C   LIG    1       -8.524  -3.809  10.963  0.00  0.00    +0.111 C 
ATOM     17  C   LIG    1       -8.406  -3.599   9.462  0.00  0.00    -0.014 C 
ATOM     18  C   LIG    1       -7.963  -2.225   9.004  0.00  0.00    +0.012 C 
ATOM     19  C   LIG    1       -9.382  -4.240   8.506  0.00  0.00    +0.012 C 
ATOM     20  C   LIG    1       -7.365  -4.426  10.197  0.00  0.00    +0.032 C 
BRANCH  20  21
ATOM     21  C   LIG    1       -7.276  -5.890  10.065  0.00  0.00    -0.023 C 
ATOM     22  C   LIG    1       -6.331  -6.693  10.594  0.00  0.00    -0.079 C 
ATOM     23  C   LIG    1       -6.363  -8.182  10.383  0.00  0.00    +0.038 C 
ATOM     24  C   LIG    1       -5.175  -6.201  11.421  0.00  0.00    +0.038 C 
ENDBRANCH  20  21
ENDBRANCH  14  16
ENDBRANCH  13  14
ENDBRANCH   1  13
TORSDOF 5
ENDMDL
MODEL 6
REMARK VINA RESULT:      -7.0      4.841      7.009
REMARK  Name = 
REMARK                            x       y       z     vdW  Elec       q    Type
REMARK                         _______ _______ _______ _____ _____    ______ ____
ROOT
ATOM      1  C   LIG    1      -10.822   1.131  13.462  0.00  0.00    +0.352 C 
ENDROOT
BRANCH   1   4
ATOM      2  O   LIG    1       -8.936   2.830  14.869  0.00  0.00    -0.270 OA
ATOM      3  C   LIG    1       -9.484   3.158  13.833  0.00  0.00    +0.252 C 
ATOM      4  N   LIG    1      -10.381   2.458  13.090  0.00  0.00    -0.200 N 
ATOM      5  C   LIG    1      -10.764   3.176  12.002  0.00  0.00    +0.252 C 
ATOM      6  O   LIG    1      -11.541   2.909  11.104  0.00  0.00    -0.270 OA
ATOM      7  C   LIG    1      -10.037   4.448  12.065  0.00  0.00    +0.023 C 
ATOM      8  C   LIG    1      -10.145   5.536  11.080  0.00  0.00    +0.041 C 
ATOM      9  C   LIG    1       -9.213   6.723  11.359  0.00  0.00    +0.005 C 
ATOM     10  C   LIG    1       -8.417   6.767  12.678  0.00  0.00    +0.005 C 
ATOM     11  C   LIG    1       -8.374   5.522  13.580  0.00  0.00    +0.041 C 
ATOM     12  C   LIG    1       -9.272   4.438  13.150  0.00  0.00    +0.023 C 
ENDBRANCH   1   4
BRANCH   1  13
ATOM     13  O   LIG    1       -9.748   0.214  13.347  0.00  0.00    -0.444 OA
BRANCH  13  14
ATOM     14  C   LIG    1      -10.019  -0.915  12.660  0.00  0.00    +0.313 C 
ATOM     15  O   LIG    1      -11.021  -1.606  12.785  0.00  0.00    -0.250 OA
BRANCH  14  16
ATOM     16  C   LIG    1       -8.945  -1.170  11.675  0.00  0.00    +0.111 C 
ATOM     17  C   LIG    1       -8.658  -2.493  10.983  0.00  0.00    -0.014 C 
ATOM     18  C   LIG    1       -8.132  -2.415   9.566  0.00  0.00    +0.012 C 
ATOM     19  C   LIG    1       -9.540  -3.697  11.207  0.00  0.00    +0.012 C 
ATOM     20  C   LIG    1       -7.726  -1.988  12.071  0.00  0.00    +0.032 C 
BRANCH  20  21
ATOM     21  C   LIG    1       -7.660  -2.598  13.408  0.00  0.00    -0.023 C 
ATOM     22  C   LIG    1       -6.777  -3.524  13.833  0.00  0.00    -0.079 C 
ATOM     23  C   LIG    1       -6.822  -4.062  15.237  0.00  0.00    +0.038 C 
ATOM     24  C   LIG    1       -5.690  -4.106  12.972  0.00  0.00    +0.038 C 
ENDBRANCH  20  21
ENDBRANCH  14  16
ENDBRANCH  13  14
ENDBRANCH   1  13
TORSDOF 5
ENDMDL
MODEL 7
REMARK VINA RESULT:      -6.9      2.285      4.502
REMARK  Name = 
REMARK                            x       y       z     vdW  Elec       q    Type
REMARK                         _______ _______ _______ _____ _____    ______ ____
ROOT
ATOM      1  C   LIG    1       -7.460  -2.846  11.767  0.00  0.00    +0.352 C 
ENDROOT
BRANCH   1   4
ATOM      2  O   LIG    1       -8.941  -3.770  14.085  0.00  0.00    -0.270 OA
ATOM      3  C   LIG    1       -7.726  -3.782  14.023  0.00  0.00    +0.252 C 
ATOM      4  N   LIG    1       -6.925  -3.375  13.003  0.00  0.00    -0.200 N 
ATOM      5  C   LIG    1       -5.616  -3.546  13.326  0.00  0.00    +0.252 C 
ATOM      6  O   LIG    1       -4.603  -3.306  12.696  0.00  0.00    -0.270 OA
ATOM      7  C   LIG    1       -5.591  -4.116  14.677  0.00  0.00    +0.023 C 
ATOM      8  C   LIG    1       -4.375  -4.467  15.427  0.00  0.00    +0.041 C 
ATOM      9  C   LIG    1       -4.649  -5.115  16.790  0.00  0.00    +0.005 C 
ATOM     10  C   LIG    1       -6.094  -5.174  17.323  0.00  0.00    +0.005 C 
ATOM     11  C   LIG    1       -7.262  -4.811  16.392  0.00  0.00    +0.041 C 
ATOM     12  C   LIG    1       -6.844  -4.262  15.092  0.00  0.00    +0.023 C 
ENDBRANCH   1   4
BRANCH   1  13
ATOM     13  O   LIG    1       -7.656  -3.896  10.836  0.00  0.00    -0.444 OA
BRANCH  13  14
ATOM     14  C   LIG    1       -7.696  -3.522   9.540  0.00  0.00    +0.313 C 
ATOM     15  O   LIG    1       -7.748  -2.371   9.127  0.00  0.00    -0.250 OA
BRANCH  14  16
ATOM     16  C   LIG    1       -7.606  -4.718   8.672  0.00  0.00    +0.111 C 
ATOM     17  C   LIG    1       -8.213  -6.082   8.959  0.00  0.00    -0.014 C 
ATOM     18  C   LIG    1       -8.695  -6.872   7.760  0.00  0.00    +0.012 C 
ATOM     19  C   LIG    1       -9.063  -6.315  10.183  0.00  0.00    +0.012 C 
ATOM     20  C   LIG    1       -6.712  -5.882   9.068  0.00  0.00    +0.032 C 
BRANCH  20  21
ATOM     21  C   LIG    1       -6.007  -5.853  10.360  0.00  0.00    -0.023 C 
ATOM     22  C   LIG    1       -5.727  -6.907  11.153  0.00  0.00    -0.079 C 
ATOM     23  C   LIG    1       -4.991  -6.734  12.454  0.00  0.00    +0.038 C 
ATOM     24  C   LIG    1       -6.116  -8.325  10.836  0.00  0.00    +0.038 C 
ENDBRANCH  20  21
ENDBRANCH  14  16
ENDBRANCH  13  14
ENDBRANCH   1  13
TORSDOF 5
ENDMDL
MODEL 8
REMARK VINA RESULT:      -6.6      2.390      5.059
REMARK  Name = 
REMARK                            x       y       z     vdW  Elec       q    Type
REMARK                         _______ _______ _______ _____ _____    ______ ____
ROOT
ATOM      1  C   LIG    1       -7.181  -2.440  12.118  0.00  0.00    +0.352 C 
ENDROOT
BRANCH   1   4
ATOM      2  O   LIG    1       -4.469  -3.226  12.784  0.00  0.00    -0.270 OA
ATOM      3  C   LIG    1       -5.423  -3.456  13.503  0.00  0.00    +0.252 C 
ATOM      4  N   LIG    1       -6.731  -3.145  13.299  0.00  0.00    -0.200 N 
ATOM      5  C   LIG    1       -7.492  -3.580  14.337  0.00  0.00    +0.252 C 
ATOM      6  O   LIG    1       -8.691  -3.502  14.532  0.00  0.00    -0.270 OA
ATOM      7  C   LIG    1       -6.577  -4.224  15.284  0.00  0.00    +0.023 C 
ATOM      8  C   LIG    1       -6.973  -4.840  16.560  0.00  0.00    +0.041 C 
ATOM      9  C   LIG    1       -5.795  -5.374  17.386  0.00  0.00    +0.005 C 
ATOM     10  C   LIG    1       -4.385  -5.396  16.766  0.00  0.00    +0.005 C 
ATOM     11  C   LIG    1       -4.128  -4.665  15.438  0.00  0.00    +0.041 C 
ATOM     12  C   LIG    1       -5.346  -4.147  14.793  0.00  0.00    +0.023 C 
ENDBRANCH   1   4
BRANCH   1  13
ATOM     13  O   LIG    1       -8.167  -3.204  11.445  0.00  0.00    -0.444 OA
BRANCH  13  14
ATOM     14  C   LIG    1       -8.177  -3.083  10.101  0.00  0.00    +0.313 C 
ATOM     15  O   LIG    1       -7.831  -2.095   9.467  0.00  0.00    -0.250 OA
BRANCH  14  16
ATOM     16  C   LIG    1       -8.616  -4.357   9.489  0.00  0.00    +0.111 C 
ATOM     17  C   LIG    1       -9.100  -5.591  10.233  0.00  0.00    -0.014 C 
ATOM     18  C   LIG    1      -10.168  -6.418   9.548  0.00  0.00    +0.012 C 
ATOM     19  C   LIG    1       -9.247  -5.587  11.735  0.00  0.00    +0.012 C 
ATOM     20  C   LIG    1       -7.731  -5.590   9.576  0.00  0.00    +0.032 C 
BRANCH  20  21
ATOM     21  C   LIG    1       -6.479  -5.535  10.348  0.00  0.00    -0.023 C 
ATOM     22  C   LIG    1       -5.856  -6.567  10.953  0.00  0.00    -0.079 C 
ATOM     23  C   LIG    1       -4.571  -6.369  11.711  0.00  0.00    +0.038 C 
ATOM     24  C   LIG    1       -6.367  -7.982  10.942  0.00  0.00    +0.038 C 
ENDBRANCH  20  21
ENDBRANCH  14  16
ENDBRANCH  13  14
ENDBRANCH   1  13
TORSDOF 5
ENDMDL
MODEL 9
REMARK VINA RESULT:      -6.4      0.652      1.904
REMARK  Name = 
REMARK                            x       y       z     vdW  Elec       q    Type
REMARK                         _______ _______ _______ _____ _____    ______ ____
ROOT
ATOM      1  C   LIG    1       -9.610  -5.988   9.185  0.00  0.00    +0.352 C 
ENDROOT
BRANCH   1   4
ATOM      2  O   LIG    1       -8.301  -3.421   8.839  0.00  0.00    -0.270 OA
ATOM      3  C   LIG    1       -8.997  -3.689   9.800  0.00  0.00    +0.252 C 
ATOM      4  N   LIG    1       -9.654  -4.847  10.074  0.00  0.00    -0.200 N 
ATOM      5  C   LIG    1      -10.321  -4.749  11.254  0.00  0.00    +0.252 C 
ATOM      6  O   LIG    1      -11.015  -5.555  11.845  0.00  0.00    -0.270 OA
ATOM      7  C   LIG    1      -10.062  -3.401  11.769  0.00  0.00    +0.023 C 
ATOM      8  C   LIG    1      -10.592  -2.858  13.030  0.00  0.00    +0.041 C 
ATOM      9  C   LIG    1      -10.218  -1.392  13.283  0.00  0.00    +0.005 C 
ATOM     10  C   LIG    1       -9.213  -0.695  12.346  0.00  0.00    +0.005 C 
ATOM     11  C   LIG    1       -8.789  -1.386  11.039  0.00  0.00    +0.041 C 
ATOM     12  C   LIG    1       -9.279  -2.767  10.904  0.00  0.00    +0.023 C 
ENDBRANCH   1   4
BRANCH   1  13
ATOM     13  O   LIG    1       -8.525  -6.830   9.533  0.00  0.00    -0.444 OA
BRANCH  13  14
ATOM     14  C   LIG    1       -7.383  -6.619   8.846  0.00  0.00    +0.313 C 
ATOM     15  O   LIG    1       -7.271  -5.944   7.831  0.00  0.00    -0.250 OA
BRANCH  14  16
ATOM     16  C   LIG    1       -6.254  -7.280   9.538  0.00  0.00    +0.111 C 
ATOM     17  C   LIG    1       -6.283  -7.874  10.937  0.00  0.00    -0.014 C 
ATOM     18  C   LIG    1       -5.423  -9.098  11.170  0.00  0.00    +0.012 C 
ATOM     19  C   LIG    1       -7.557  -7.901  11.746  0.00  0.00    +0.012 C 
ATOM     20  C   LIG    1       -5.541  -6.574  10.680  0.00  0.00    +0.032 C 
BRANCH  20  21
ATOM     21  C   LIG    1       -6.035  -5.271  11.153  0.00  0.00    -0.023 C 
ATOM     22  C   LIG    1       -5.956  -4.782  12.407  0.00  0.00    -0.079 C 
ATOM     23  C   LIG    1       -6.500  -3.423  12.753  0.00  0.00    +0.038 C 
ATOM     24  C   LIG    1       -5.338  -5.523  13.561  0.00  0.00    +0.038 C 
ENDBRANCH  20  21
ENDBRANCH  14  16
ENDBRANCH  13  14
ENDBRANCH   1  13
TORSDOF 5
ENDMDL
