MODEL 1
REMARK VINA RESULT:      -8.7      0.000      0.000
REMARK  Name = 
REMARK                            x       y       z     vdW  Elec       q    Type
REMARK                         _______ _______ _______ _____ _____    ______ ____
ROOT
ATOM      1  C   LIG    1       64.267  45.662  28.476  0.00  0.00    +0.352 C 
ENDROOT
BRANCH   1   4
ATOM      2  O   LIG    1       62.161  43.824  29.254  0.00  0.00    -0.270 OA
ATOM      3  C   LIG    1       61.966  45.005  29.038  0.00  0.00    +0.252 C 
ATOM      4  N   LIG    1       62.863  45.957  28.666  0.00  0.00    -0.200 N 
ATOM      5  C   LIG    1       62.248  47.160  28.518  0.00  0.00    +0.252 C 
ATOM      6  O   LIG    1       62.692  48.246  28.197  0.00  0.00    -0.270 OA
ATOM      7  C   LIG    1       60.831  46.944  28.827  0.00  0.00    +0.023 C 
ATOM      8  C   LIG    1       59.789  47.983  28.796  0.00  0.00    +0.041 C 
ATOM      9  C   LIG    1       58.405  47.489  29.238  0.00  0.00    +0.005 C 
ATOM     10  C   LIG    1       58.181  45.985  29.485  0.00  0.00    +0.005 C 
ATOM     11  C   LIG    1       59.389  45.035  29.526  0.00  0.00    +0.041 C 
ATOM     12  C   LIG    1       60.662  45.665  29.142  0.00  0.00    +0.023 C 
ENDBRANCH   1   4
BRANCH   1  13
ATOM     13  O   LIG    1       64.995  46.003  29.643  0.00  0.00    -0.444 OA
BRANCH  13  14
ATOM     14  C   LIG    1       65.231  44.986  30.497  0.00  0.00    +0.313 C 
ATOM     15  O   LIG    1       65.135  43.794  30.237  0.00  0.00    -0.250 OA
BRANCH  14  16
ATOM     16  C   LIG    1       65.688  45.522  31.799  0.00  0.00    +0.111 C 
ATOM     17  C   LIG    1       65.399  44.926  33.167  0.00  0.00    -0.014 C 
ATOM     18  C   LIG    1       66.481  45.081  34.214  0.00  0.00    +0.012 C 
ATOM     19  C   LIG    1       64.641  43.628  33.306  0.00  0.00    +0.012 C 
ATOM     20  C   LIG    1       64.700  46.202  32.733  0.00  0.00    +0.032 C 
BRANCH  20  21
ATOM     21  C   LIG    1       63.273  46.246  32.378  0.00  0.00    -0.023 C 
ATOM     22  C   LIG    1       62.238  46.470  33.212  0.00  0.00    -0.079 C 
ATOM     23  C   LIG    1       60.819  46.492  32.712  0.00  0.00    +0.038 C 
ATOM     24  C   LIG    1       62.385  46.709  34.690  0.00  0.00    +0.038 C 
ENDBRANCH  20  21
ENDBRANCH  14  16
ENDBRANCH  13  14
ENDBRANCH   1  13
TORSDOF 5
ENDMDL
MODEL 2
REMARK VINA RESULT:      -8.6      0.101      1.815
REMARK  Name = 
REMARK                            x       y       z     vdW  Elec       q    Type
REMARK                         _______ _______ _______ _____ _____    ______ ____
ROOT
ATOM      1  C   LIG    1       64.290  45.689  28.474  0.00  0.00    +0.352 C 
ENDROOT
BRANCH   1   4
ATOM      2  O   LIG    1       62.819  48.158  28.081  0.00  0.00    -0.270 OA
ATOM      3  C   LIG    1       62.294  47.122  28.442  0.00  0.00    +0.252 C 
ATOM      4  N   LIG    1       62.874  45.912  28.665  0.00  0.00    -0.200 N 
ATOM      5  C   LIG    1       61.945  45.006  29.067  0.00  0.00    +0.252 C 
ATOM      6  O   LIG    1       62.056  43.830  29.364  0.00  0.00    -0.270 OA
ATOM      7  C   LIG    1       60.660  45.711  29.099  0.00  0.00    +0.023 C 
ATOM      8  C   LIG    1       59.372  45.110  29.480  0.00  0.00    +0.041 C 
ATOM      9  C   LIG    1       58.177  46.064  29.352  0.00  0.00    +0.005 C 
ATOM     10  C   LIG    1       58.427  47.551  29.034  0.00  0.00    +0.005 C 
ATOM     11  C   LIG    1       59.832  48.011  28.611  0.00  0.00    +0.041 C 
ATOM     12  C   LIG    1       60.864  46.968  28.724  0.00  0.00    +0.023 C 
ENDBRANCH   1   4
BRANCH   1  13
ATOM     13  O   LIG    1       64.998  46.040  29.650  0.00  0.00    -0.444 OA
BRANCH  13  14
ATOM     14  C   LIG    1       65.224  45.029  30.515  0.00  0.00    +0.313 C 
ATOM     15  O   LIG    1       65.135  43.835  30.261  0.00  0.00    -0.250 OA
BRANCH  14  16
ATOM     16  C   LIG    1       65.661  45.576  31.819  0.00  0.00    +0.111 C 
ATOM     17  C   LIG    1       65.383  44.968  33.185  0.00  0.00    -0.014 C 
ATOM     18  C   LIG    1       66.456  45.152  34.237  0.00  0.00    +0.012 C 
ATOM     19  C   LIG    1       64.662  43.650  33.319  0.00  0.00    +0.012 C 
ATOM     20  C   LIG    1       64.651  46.226  32.751  0.00  0.00    +0.032 C 
BRANCH  20  21
ATOM     21  C   LIG    1       63.224  46.230  32.390  0.00  0.00    -0.023 C 
ATOM     22  C   LIG    1       62.181  46.458  33.214  0.00  0.00    -0.079 C 
ATOM     23  C   LIG    1       60.765  46.436  32.708  0.00  0.00    +0.038 C 
ATOM     24  C   LIG    1       62.318  46.744  34.684  0.00  0.00    +0.038 C 
ENDBRANCH  20  21
ENDBRANCH  14  16
ENDBRANCH  13  14
ENDBRANCH   1  13
TORSDOF 5
ENDMDL
MODEL 3
REMARK VINA RESULT:      -8.5      1.313      5.809
REMARK  Name = 
REMARK                            x       y       z     vdW  Elec       q    Type
REMARK                         _______ _______ _______ _____ _____    ______ ____
ROOT
ATOM      1  C   LIG    1       63.482  43.964  28.801  0.00  0.00    +0.352 C 
ENDROOT
BRANCH   1   4
ATOM      2  O   LIG    1       64.929  46.272  29.800  0.00  0.00    -0.270 OA
ATOM      3  C   LIG    1       64.685  45.294  30.481  0.00  0.00    +0.252 C 
ATOM      4  N   LIG    1       64.025  44.159  30.128  0.00  0.00    -0.200 N 
ATOM      5  C   LIG    1       63.966  43.296  31.176  0.00  0.00    +0.252 C 
ATOM      6  O   LIG    1       63.471  42.188  31.268  0.00  0.00    -0.270 OA
ATOM      7  C   LIG    1       64.651  43.951  32.295  0.00  0.00    +0.023 C 
ATOM      8  C   LIG    1       64.823  43.375  33.638  0.00  0.00    +0.041 C 
ATOM      9  C   LIG    1       65.516  44.314  34.634  0.00  0.00    +0.005 C 
ATOM     10  C   LIG    1       66.116  45.641  34.131  0.00  0.00    +0.005 C 
ATOM     11  C   LIG    1       65.803  46.123  32.705  0.00  0.00    +0.041 C 
ATOM     12  C   LIG    1       65.075  45.141  31.886  0.00  0.00    +0.023 C 
ENDBRANCH   1   4
BRANCH   1  13
ATOM     13  O   LIG    1       62.072  44.101  28.830  0.00  0.00    -0.444 OA
BRANCH  13  14
ATOM     14  C   LIG    1       61.608  45.355  28.649  0.00  0.00    +0.313 C 
ATOM     15  O   LIG    1       62.197  46.262  28.077  0.00  0.00    -0.250 OA
BRANCH  14  16
ATOM     16  C   LIG    1       60.237  45.463  29.196  0.00  0.00    +0.111 C 
ATOM     17  C   LIG    1       59.431  46.743  29.348  0.00  0.00    -0.014 C 
ATOM     18  C   LIG    1       57.932  46.623  29.166  0.00  0.00    +0.012 C 
ATOM     19  C   LIG    1       59.968  48.065  28.860  0.00  0.00    +0.012 C 
ATOM     20  C   LIG    1       60.011  46.062  30.575  0.00  0.00    +0.032 C 
BRANCH  20  21
ATOM     21  C   LIG    1       61.151  46.614  31.326  0.00  0.00    -0.023 C 
ATOM     22  C   LIG    1       61.267  46.710  32.666  0.00  0.00    -0.079 C 
ATOM     23  C   LIG    1       62.496  47.295  33.305  0.00  0.00    +0.038 C 
ATOM     24  C   LIG    1       60.208  46.263  33.636  0.00  0.00    +0.038 C 
ENDBRANCH  20  21
ENDBRANCH  14  16
ENDBRANCH  13  14
ENDBRANCH   1  13
TORSDOF 5
ENDMDL
MODEL 4
REMARK VINA RESULT:      -8.4      1.342      5.526
REMARK  Name = 
REMARK                            x       y       z     vdW  Elec       q    Type
REMARK                         _______ _______ _______ _____ _____    ______ ____
ROOT
ATOM      1  C   LIG    1       63.558  44.010  28.874  0.00  0.00    +0.352 C 
ENDROOT
BRANCH   1   4
ATOM      2  O   LIG    1       63.453  42.124  31.077  0.00  0.00    -0.270 OA
ATOM      3  C   LIG    1       63.922  43.241  31.180  0.00  0.00    +0.252 C 
ATOM      4  N   LIG    1       64.023  44.209  30.230  0.00  0.00    -0.200 N 
ATOM      5  C   LIG    1       64.605  45.324  30.745  0.00  0.00    +0.252 C 
ATOM      6  O   LIG    1       64.868  46.395  30.230  0.00  0.00    -0.270 OA
ATOM      7  C   LIG    1       64.900  45.029  32.151  0.00  0.00    +0.023 C 
ATOM      8  C   LIG    1       65.538  45.959  33.096  0.00  0.00    +0.041 C 
ATOM      9  C   LIG    1       65.792  45.358  34.485  0.00  0.00    +0.005 C 
ATOM     10  C   LIG    1       65.220  43.967  34.824  0.00  0.00    +0.005 C 
ATOM     11  C   LIG    1       64.620  43.100  33.705  0.00  0.00    +0.041 C 
ATOM     12  C   LIG    1       64.499  43.790  32.410  0.00  0.00    +0.023 C 
ENDBRANCH   1   4
BRANCH   1  13
ATOM     13  O   LIG    1       62.148  44.138  28.822  0.00  0.00    -0.444 OA
BRANCH  13  14
ATOM     14  C   LIG    1       61.684  45.398  28.689  0.00  0.00    +0.313 C 
ATOM     15  O   LIG    1       62.289  46.336  28.188  0.00  0.00    -0.250 OA
BRANCH  14  16
ATOM     16  C   LIG    1       60.293  45.473  29.189  0.00  0.00    +0.111 C 
ATOM     17  C   LIG    1       59.447  46.731  29.301  0.00  0.00    -0.014 C 
ATOM     18  C   LIG    1       57.959  46.568  29.070  0.00  0.00    +0.012 C 
ATOM     19  C   LIG    1       59.964  48.064  28.818  0.00  0.00    +0.012 C 
ATOM     20  C   LIG    1       60.004  46.077  30.554  0.00  0.00    +0.032 C 
BRANCH  20  21
ATOM     21  C   LIG    1       61.102  46.667  31.337  0.00  0.00    -0.023 C 
ATOM     22  C   LIG    1       61.192  46.737  32.680  0.00  0.00    -0.079 C 
ATOM     23  C   LIG    1       62.380  47.367  33.354  0.00  0.00    +0.038 C 
ATOM     24  C   LIG    1       60.141  46.214  33.621  0.00  0.00    +0.038 C 
ENDBRANCH  20  21
ENDBRANCH  14  16
ENDBRANCH  13  14
ENDBRANCH   1  13
TORSDOF 5
ENDMDL
MODEL 5
REMARK VINA RESULT:      -8.3      1.848      2.658
REMARK  Name = 
REMARK                            x       y       z     vdW  Elec       q    Type
REMARK                         _______ _______ _______ _____ _____    ______ ____
ROOT
ATOM      1  C   LIG    1       62.153  47.061  30.056  0.00  0.00    +0.352 C 
ENDROOT
BRANCH   1   4
ATOM      2  O   LIG    1       60.337  46.830  27.804  0.00  0.00    -0.270 OA
ATOM      3  C   LIG    1       60.017  46.562  28.947  0.00  0.00    +0.252 C 
ATOM      4  N   LIG    1       60.770  46.634  30.076  0.00  0.00    -0.200 N 
ATOM      5  C   LIG    1       60.043  46.254  31.160  0.00  0.00    +0.252 C 
ATOM      6  O   LIG    1       60.346  46.183  32.336  0.00  0.00    -0.270 OA
ATOM      7  C   LIG    1       58.707  45.908  30.665  0.00  0.00    +0.023 C 
ATOM      8  C   LIG    1       57.589  45.440  31.499  0.00  0.00    +0.041 C 
ATOM      9  C   LIG    1       56.326  45.081  30.704  0.00  0.00    +0.005 C 
ATOM     10  C   LIG    1       56.265  45.401  29.197  0.00  0.00    +0.005 C 
ATOM     11  C   LIG    1       57.541  45.843  28.463  0.00  0.00    +0.041 C 
ATOM     12  C   LIG    1       58.690  46.086  29.349  0.00  0.00    +0.023 C 
ENDBRANCH   1   4
BRANCH   1  13
ATOM     13  O   LIG    1       62.759  46.798  31.308  0.00  0.00    -0.444 OA
BRANCH  13  14
ATOM     14  C   LIG    1       63.588  45.734  31.340  0.00  0.00    +0.313 C 
ATOM     15  O   LIG    1       63.477  44.718  30.667  0.00  0.00    -0.250 OA
BRANCH  14  16
ATOM     16  C   LIG    1       64.704  45.998  32.276  0.00  0.00    +0.111 C 
ATOM     17  C   LIG    1       65.124  45.119  33.442  0.00  0.00    -0.014 C 
ATOM     18  C   LIG    1       66.603  45.082  33.763  0.00  0.00    +0.012 C 
ATOM     19  C   LIG    1       64.442  43.800  33.708  0.00  0.00    +0.012 C 
ATOM     20  C   LIG    1       64.416  46.437  33.702  0.00  0.00    +0.032 C 
BRANCH  20  21
ATOM     21  C   LIG    1       63.024  46.512  34.175  0.00  0.00    -0.023 C 
ATOM     22  C   LIG    1       62.511  47.410  35.040  0.00  0.00    -0.079 C 
ATOM     23  C   LIG    1       61.060  47.375  35.436  0.00  0.00    +0.038 C 
ATOM     24  C   LIG    1       63.311  48.506  35.688  0.00  0.00    +0.038 C 
ENDBRANCH  20  21
ENDBRANCH  14  16
ENDBRANCH  13  14
ENDBRANCH   1  13
TORSDOF 5
ENDMDL
MODEL 6
REMARK VINA RESULT:      -8.1      1.829      5.989
REMARK  Name = 
REMARK                            x       y       z     vdW  Elec       q    Type
REMARK                         _______ _______ _______ _____ _____    ______ ____
ROOT
ATOM      1  C   LIG    1       64.494  43.949  29.517  0.00  0.00    +0.352 C 
ENDROOT
BRANCH   1   4
ATOM      2  O   LIG    1       65.062  46.435  30.901  0.00  0.00    -0.270 OA
ATOM      3  C   LIG    1       64.797  45.398  31.479  0.00  0.00    +0.252 C 
ATOM      4  N   LIG    1       64.519  44.178  30.946  0.00  0.00    -0.200 N 
ATOM      5  C   LIG    1       64.280  43.271  31.929  0.00  0.00    +0.252 C 
ATOM      6  O   LIG    1       64.002  42.088  31.869  0.00  0.00    -0.270 OA
ATOM      7  C   LIG    1       64.418  43.988  33.200  0.00  0.00    +0.023 C 
ATOM      8  C   LIG    1       64.241  43.391  34.534  0.00  0.00    +0.041 C 
ATOM      9  C   LIG    1       64.374  44.394  35.687  0.00  0.00    +0.005 C 
ATOM     10  C   LIG    1       64.843  45.831  35.390  0.00  0.00    +0.005 C 
ATOM     11  C   LIG    1       64.936  46.313  33.933  0.00  0.00    +0.041 C 
ATOM     12  C   LIG    1       64.721  45.253  32.935  0.00  0.00    +0.023 C 
ENDBRANCH   1   4
BRANCH   1  13
ATOM     13  O   LIG    1       63.746  44.967  28.876  0.00  0.00    -0.444 OA
BRANCH  13  14
ATOM     14  C   LIG    1       62.430  44.713  28.725  0.00  0.00    +0.313 C 
ATOM     15  O   LIG    1       61.843  43.713  29.118  0.00  0.00    -0.250 OA
BRANCH  14  16
ATOM     16  C   LIG    1       61.773  45.861  28.060  0.00  0.00    +0.111 C 
ATOM     17  C   LIG    1       61.528  47.231  28.670  0.00  0.00    -0.014 C 
ATOM     18  C   LIG    1       61.592  48.413  27.726  0.00  0.00    +0.012 C 
ATOM     19  C   LIG    1       62.029  47.569  30.053  0.00  0.00    +0.012 C 
ATOM     20  C   LIG    1       60.367  46.274  28.466  0.00  0.00    +0.032 C 
BRANCH  20  21
ATOM     21  C   LIG    1       59.698  45.586  29.582  0.00  0.00    -0.023 C 
ATOM     22  C   LIG    1       58.371  45.502  29.802  0.00  0.00    -0.079 C 
ATOM     23  C   LIG    1       57.819  44.758  30.987  0.00  0.00    +0.038 C 
ATOM     24  C   LIG    1       57.330  46.129  28.915  0.00  0.00    +0.038 C 
ENDBRANCH  20  21
ENDBRANCH  14  16
ENDBRANCH  13  14
ENDBRANCH   1  13
TORSDOF 5
ENDMDL
MODEL 7
REMARK VINA RESULT:      -8.1      1.904      5.580
REMARK  Name = 
REMARK                            x       y       z     vdW  Elec       q    Type
REMARK                         _______ _______ _______ _____ _____    ______ ____
ROOT
ATOM      1  C   LIG    1       64.114  43.617  31.234  0.00  0.00    +0.352 C 
ENDROOT
BRANCH   1   4
ATOM      2  O   LIG    1       65.372  43.563  33.848  0.00  0.00    -0.270 OA
ATOM      3  C   LIG    1       64.567  44.412  33.514  0.00  0.00    +0.252 C 
ATOM      4  N   LIG    1       63.912  44.539  32.330  0.00  0.00    -0.200 N 
ATOM      5  C   LIG    1       63.089  45.621  32.354  0.00  0.00    +0.252 C 
ATOM      6  O   LIG    1       62.341  46.070  31.505  0.00  0.00    -0.270 OA
ATOM      7  C   LIG    1       63.243  46.233  33.677  0.00  0.00    +0.023 C 
ATOM      8  C   LIG    1       62.537  47.437  34.142  0.00  0.00    +0.041 C 
ATOM      9  C   LIG    1       62.947  47.896  35.547  0.00  0.00    +0.005 C 
ATOM     10  C   LIG    1       63.875  47.004  36.394  0.00  0.00    +0.005 C 
ATOM     11  C   LIG    1       64.571  45.798  35.741  0.00  0.00    +0.041 C 
ATOM     12  C   LIG    1       64.124  45.518  34.368  0.00  0.00    +0.023 C 
ENDBRANCH   1   4
BRANCH   1  13
ATOM     13  O   LIG    1       64.294  44.333  30.025  0.00  0.00    -0.444 OA
BRANCH  13  14
ATOM     14  C   LIG    1       63.409  44.051  29.046  0.00  0.00    +0.313 C 
ATOM     15  O   LIG    1       62.510  43.223  29.109  0.00  0.00    -0.250 OA
BRANCH  14  16
ATOM     16  C   LIG    1       63.645  44.942  27.887  0.00  0.00    +0.111 C 
ATOM     17  C   LIG    1       63.869  46.444  27.941  0.00  0.00    -0.014 C 
ATOM     18  C   LIG    1       64.805  47.026  26.903  0.00  0.00    +0.012 C 
ATOM     19  C   LIG    1       63.943  47.174  29.260  0.00  0.00    +0.012 C 
ATOM     20  C   LIG    1       62.554  45.891  27.421  0.00  0.00    +0.032 C 
BRANCH  20  21
ATOM     21  C   LIG    1       61.296  45.985  28.179  0.00  0.00    -0.023 C 
ATOM     22  C   LIG    1       60.487  47.060  28.275  0.00  0.00    -0.079 C 
ATOM     23  C   LIG    1       59.221  47.016  29.086  0.00  0.00    +0.038 C 
ATOM     24  C   LIG    1       60.759  48.379  27.606  0.00  0.00    +0.038 C 
ENDBRANCH  20  21
ENDBRANCH  14  16
ENDBRANCH  13  14
ENDBRANCH   1  13
TORSDOF 5
ENDMDL
MODEL 8
REMARK VINA RESULT:      -8.0      2.362      3.888
REMARK  Name = 
REMARK                            x       y       z     vdW  Elec       q    Type
REMARK                         _______ _______ _______ _____ _____    ______ ____
ROOT
ATOM      1  C   LIG    1       61.430  46.792  31.584  0.00  0.00    +0.352 C 
ENDROOT
BRANCH   1   4
ATOM      2  O   LIG    1       60.419  46.789  28.864  0.00  0.00    -0.270 OA
ATOM      3  C   LIG    1       59.754  46.439  29.821  0.00  0.00    +0.252 C 
ATOM      4  N   LIG    1       60.112  46.401  31.132  0.00  0.00    -0.200 N 
ATOM      5  C   LIG    1       59.080  45.954  31.895  0.00  0.00    +0.252 C 
ATOM      6  O   LIG    1       58.995  45.781  33.097  0.00  0.00    -0.270 OA
ATOM      7  C   LIG    1       57.969  45.683  30.977  0.00  0.00    +0.023 C 
ATOM      8  C   LIG    1       56.645  45.178  31.373  0.00  0.00    +0.041 C 
ATOM      9  C   LIG    1       55.699  44.917  30.194  0.00  0.00    +0.005 C 
ATOM     10  C   LIG    1       56.117  45.357  28.777  0.00  0.00    +0.005 C 
ATOM     11  C   LIG    1       57.559  45.825  28.522  0.00  0.00    +0.041 C 
ATOM     12  C   LIG    1       58.369  45.966  29.743  0.00  0.00    +0.023 C 
ENDBRANCH   1   4
BRANCH   1  13
ATOM     13  O   LIG    1       61.693  46.225  32.855  0.00  0.00    -0.444 OA
BRANCH  13  14
ATOM     14  C   LIG    1       62.967  46.334  33.285  0.00  0.00    +0.313 C 
ATOM     15  O   LIG    1       63.531  47.373  33.604  0.00  0.00    -0.250 OA
BRANCH  14  16
ATOM     16  C   LIG    1       63.580  44.989  33.377  0.00  0.00    +0.111 C 
ATOM     17  C   LIG    1       65.061  44.687  33.540  0.00  0.00    -0.014 C 
ATOM     18  C   LIG    1       65.415  43.460  34.353  0.00  0.00    +0.012 C 
ATOM     19  C   LIG    1       66.069  45.798  33.702  0.00  0.00    +0.012 C 
ATOM     20  C   LIG    1       64.377  44.433  32.208  0.00  0.00    +0.032 C 
BRANCH  20  21
ATOM     21  C   LIG    1       64.612  45.271  31.021  0.00  0.00    -0.023 C 
ATOM     22  C   LIG    1       64.173  45.040  29.767  0.00  0.00    -0.079 C 
ATOM     23  C   LIG    1       64.485  45.988  28.642  0.00  0.00    +0.038 C 
ATOM     24  C   LIG    1       63.356  43.841  29.370  0.00  0.00    +0.038 C 
ENDBRANCH  20  21
ENDBRANCH  14  16
ENDBRANCH  13  14
ENDBRANCH   1  13
TORSDOF 5
ENDMDL
MODEL 9
REMARK VINA RESULT:      -7.9      1.891      5.670
REMARK  Name = 
REMARK                            x       y       z     vdW  Elec       q    Type
REMARK                         _______ _______ _______ _____ _____    ______ ____
ROOT
ATOM      1  C   LIG    1       64.171  43.700  31.266  0.00  0.00    +0.352 C 
ENDROOT
BRANCH   1   4
ATOM      2  O   LIG    1       62.284  45.899  31.414  0.00  0.00    -0.270 OA
ATOM      3  C   LIG    1       63.054  45.622  32.314  0.00  0.00    +0.252 C 
ATOM      4  N   LIG    1       63.980  44.627  32.360  0.00  0.00    -0.200 N 
ATOM      5  C   LIG    1       64.649  44.654  33.543  0.00  0.00    +0.252 C 
ATOM      6  O   LIG    1       65.542  43.944  33.968  0.00  0.00    -0.270 OA
ATOM      7  C   LIG    1       64.090  45.768  34.314  0.00  0.00    +0.023 C 
ATOM      8  C   LIG    1       64.518  46.165  35.665  0.00  0.00    +0.041 C 
ATOM      9  C   LIG    1       63.708  47.323  36.260  0.00  0.00    +0.005 C 
ATOM     10  C   LIG    1       62.689  48.067  35.376  0.00  0.00    +0.005 C 
ATOM     11  C   LIG    1       62.319  47.495  33.998  0.00  0.00    +0.041 C 
ATOM     12  C   LIG    1       63.138  46.343  33.587  0.00  0.00    +0.023 C 
ENDBRANCH   1   4
BRANCH   1  13
ATOM     13  O   LIG    1       64.353  44.411  30.055  0.00  0.00    -0.444 OA
BRANCH  13  14
ATOM     14  C   LIG    1       63.506  44.084  29.058  0.00  0.00    +0.313 C 
ATOM     15  O   LIG    1       62.640  43.221  29.106  0.00  0.00    -0.250 OA
BRANCH  14  16
ATOM     16  C   LIG    1       63.734  44.974  27.896  0.00  0.00    +0.111 C 
ATOM     17  C   LIG    1       63.907  46.483  27.943  0.00  0.00    -0.014 C 
ATOM     18  C   LIG    1       64.842  47.089  26.919  0.00  0.00    +0.012 C 
ATOM     19  C   LIG    1       63.932  47.224  29.258  0.00  0.00    +0.012 C 
ATOM     20  C   LIG    1       62.621  45.883  27.403  0.00  0.00    +0.032 C 
BRANCH  20  21
ATOM     21  C   LIG    1       61.346  45.941  28.137  0.00  0.00    -0.023 C 
ATOM     22  C   LIG    1       60.520  47.001  28.242  0.00  0.00    -0.079 C 
ATOM     23  C   LIG    1       59.238  46.920  29.025  0.00  0.00    +0.038 C 
ATOM     24  C   LIG    1       60.786  48.341  27.611  0.00  0.00    +0.038 C 
ENDBRANCH  20  21
ENDBRANCH  14  16
ENDBRANCH  13  14
ENDBRANCH   1  13
TORSDOF 5
ENDMDL
