MODEL 1
REMARK VINA RESULT:     -10.2      0.000      0.000
REMARK  Name = 
REMARK                            x       y       z     vdW  Elec       q    Type
REMARK                         _______ _______ _______ _____ _____    ______ ____
ROOT
ATOM      1  C   LIG    1       41.974  -0.343  17.923  0.00  0.00    +0.352 C 
ENDROOT
BRANCH   1   4
ATOM      2  O   LIG    1       44.531  -1.116  19.058  0.00  0.00    -0.270 OA
ATOM      3  C   LIG    1       43.950  -1.775  18.216  0.00  0.00    +0.252 C 
ATOM      4  N   LIG    1       42.760  -1.517  17.610  0.00  0.00    -0.200 N 
ATOM      5  C   LIG    1       42.456  -2.496  16.719  0.00  0.00    +0.252 C 
ATOM      6  O   LIG    1       41.496  -2.633  15.983  0.00  0.00    -0.270 OA
ATOM      7  C   LIG    1       43.558  -3.463  16.770  0.00  0.00    +0.023 C 
ATOM      8  C   LIG    1       43.645  -4.692  15.966  0.00  0.00    +0.041 C 
ATOM      9  C   LIG    1       44.875  -5.555  16.279  0.00  0.00    +0.005 C 
ATOM     10  C   LIG    1       45.963  -5.007  17.222  0.00  0.00    +0.005 C 
ATOM     11  C   LIG    1       45.695  -3.724  18.025  0.00  0.00    +0.041 C 
ATOM     12  C   LIG    1       44.445  -3.039  17.663  0.00  0.00    +0.023 C 
ENDBRANCH   1   4
BRANCH   1  13
ATOM     13  O   LIG    1       40.720  -0.728  18.456  0.00  0.00    -0.444 OA
BRANCH  13  14
ATOM     14  C   LIG    1       39.648  -0.421  17.697  0.00  0.00    +0.313 C 
ATOM     15  O   LIG    1       38.771  -1.199  17.344  0.00  0.00    -0.250 OA
BRANCH  14  16
ATOM     16  C   LIG    1       39.648   1.029  17.395  0.00  0.00    +0.111 C 
ATOM     17  C   LIG    1       38.462   1.843  16.906  0.00  0.00    -0.014 C 
ATOM     18  C   LIG    1       38.390   3.281  17.376  0.00  0.00    +0.012 C 
ATOM     19  C   LIG    1       37.098   1.217  16.750  0.00  0.00    +0.012 C 
ATOM     20  C   LIG    1       39.596   1.507  15.954  0.00  0.00    +0.032 C 
BRANCH  20  21
ATOM     21  C   LIG    1       39.455   0.527  14.864  0.00  0.00    -0.023 C 
ATOM     22  C   LIG    1       38.909   0.740  13.650  0.00  0.00    -0.079 C 
ATOM     23  C   LIG    1       38.833  -0.357  12.623  0.00  0.00    +0.038 C 
ATOM     24  C   LIG    1       38.330   2.056  13.207  0.00  0.00    +0.038 C 
ENDBRANCH  20  21
ENDBRANCH  14  16
ENDBRANCH  13  14
ENDBRANCH   1  13
TORSDOF 5
ENDMDL
MODEL 2
REMARK VINA RESULT:     -10.1      0.112      1.817
REMARK  Name = 
REMARK                            x       y       z     vdW  Elec       q    Type
REMARK                         _______ _______ _______ _____ _____    ______ ____
ROOT
ATOM      1  C   LIG    1       42.050  -0.330  17.702  0.00  0.00    +0.352 C 
ENDROOT
BRANCH   1   4
ATOM      2  O   LIG    1       41.614  -2.560  15.896  0.00  0.00    -0.270 OA
ATOM      3  C   LIG    1       42.574  -2.484  16.639  0.00  0.00    +0.252 C 
ATOM      4  N   LIG    1       42.883  -1.500  17.526  0.00  0.00    -0.200 N 
ATOM      5  C   LIG    1       44.042  -1.790  18.174  0.00  0.00    +0.252 C 
ATOM      6  O   LIG    1       44.649  -1.176  19.032  0.00  0.00    -0.270 OA
ATOM      7  C   LIG    1       44.507  -3.075  17.644  0.00  0.00    +0.023 C 
ATOM      8  C   LIG    1       45.734  -3.772  18.062  0.00  0.00    +0.041 C 
ATOM      9  C   LIG    1       46.012  -5.065  17.286  0.00  0.00    +0.005 C 
ATOM     10  C   LIG    1       44.947  -5.606  16.312  0.00  0.00    +0.005 C 
ATOM     11  C   LIG    1       43.738  -4.730  15.945  0.00  0.00    +0.041 C 
ATOM     12  C   LIG    1       43.639  -3.487  16.728  0.00  0.00    +0.023 C 
ENDBRANCH   1   4
BRANCH   1  13
ATOM     13  O   LIG    1       40.840  -0.690  18.345  0.00  0.00    -0.444 OA
BRANCH  13  14
ATOM     14  C   LIG    1       39.713  -0.398  17.664  0.00  0.00    +0.313 C 
ATOM     15  O   LIG    1       38.837  -1.194  17.351  0.00  0.00    -0.250 OA
BRANCH  14  16
ATOM     16  C   LIG    1       39.653   1.057  17.397  0.00  0.00    +0.111 C 
ATOM     17  C   LIG    1       38.436   1.832  16.919  0.00  0.00    -0.014 C 
ATOM     18  C   LIG    1       38.300   3.254  17.422  0.00  0.00    +0.012 C 
ATOM     19  C   LIG    1       37.101   1.153  16.738  0.00  0.00    +0.012 C 
ATOM     20  C   LIG    1       39.589   1.568  15.966  0.00  0.00    +0.032 C 
BRANCH  20  21
ATOM     21  C   LIG    1       39.496   0.609  14.853  0.00  0.00    -0.023 C 
ATOM     22  C   LIG    1       38.928   0.820  13.649  0.00  0.00    -0.079 C 
ATOM     23  C   LIG    1       38.907  -0.253  12.595  0.00  0.00    +0.038 C 
ATOM     24  C   LIG    1       38.266   2.109  13.245  0.00  0.00    +0.038 C 
ENDBRANCH  20  21
ENDBRANCH  14  16
ENDBRANCH  13  14
ENDBRANCH   1  13
TORSDOF 5
ENDMDL
MODEL 3
REMARK VINA RESULT:     -10.1      1.383      3.161
REMARK  Name = 
REMARK                            x       y       z     vdW  Elec       q    Type
REMARK                         _______ _______ _______ _____ _____    ______ ____
ROOT
ATOM      1  C   LIG    1       42.082  -0.901  18.106  0.00  0.00    +0.352 C 
ENDROOT
BRANCH   1   4
ATOM      2  O   LIG    1       42.206  -3.196  16.333  0.00  0.00    -0.270 OA
ATOM      3  C   LIG    1       43.105  -2.895  17.096  0.00  0.00    +0.252 C 
ATOM      4  N   LIG    1       43.161  -1.856  17.971  0.00  0.00    -0.200 N 
ATOM      5  C   LIG    1       44.338  -1.868  18.650  0.00  0.00    +0.252 C 
ATOM      6  O   LIG    1       44.768  -1.122  19.510  0.00  0.00    -0.270 OA
ATOM      7  C   LIG    1       45.094  -3.022  18.155  0.00  0.00    +0.023 C 
ATOM      8  C   LIG    1       46.434  -3.419  18.614  0.00  0.00    +0.041 C 
ATOM      9  C   LIG    1       47.016  -4.627  17.868  0.00  0.00    +0.005 C 
ATOM     10  C   LIG    1       46.127  -5.407  16.881  0.00  0.00    +0.005 C 
ATOM     11  C   LIG    1       44.762  -4.830  16.471  0.00  0.00    +0.041 C 
ATOM     12  C   LIG    1       44.365  -3.632  17.227  0.00  0.00    +0.023 C 
ENDBRANCH   1   4
BRANCH   1  13
ATOM     13  O   LIG    1       42.177   0.083  17.092  0.00  0.00    -0.444 OA
BRANCH  13  14
ATOM     14  C   LIG    1       41.224   0.029  16.139  0.00  0.00    +0.313 C 
ATOM     15  O   LIG    1       41.391   0.242  14.945  0.00  0.00    -0.250 OA
BRANCH  14  16
ATOM     16  C   LIG    1       39.939  -0.391  16.741  0.00  0.00    +0.111 C 
ATOM     17  C   LIG    1       38.567  -0.277  16.097  0.00  0.00    -0.014 C 
ATOM     18  C   LIG    1       37.569  -1.365  16.434  0.00  0.00    +0.012 C 
ATOM     19  C   LIG    1       38.408   0.237  14.687  0.00  0.00    +0.012 C 
ATOM     20  C   LIG    1       38.951   0.653  17.235  0.00  0.00    +0.032 C 
BRANCH  20  21
ATOM     21  C   LIG    1       39.238   2.082  17.031  0.00  0.00    -0.023 C 
ATOM     22  C   LIG    1       38.354   3.100  17.076  0.00  0.00    -0.079 C 
ATOM     23  C   LIG    1       38.786   4.523  16.852  0.00  0.00    +0.038 C 
ATOM     24  C   LIG    1       36.883   2.925  17.339  0.00  0.00    +0.038 C 
ENDBRANCH  20  21
ENDBRANCH  14  16
ENDBRANCH  13  14
ENDBRANCH   1  13
TORSDOF 5
ENDMDL
MODEL 4
REMARK VINA RESULT:     -10.0      1.441      2.617
REMARK  Name = 
REMARK                            x       y       z     vdW  Elec       q    Type
REMARK                         _______ _______ _______ _____ _____    ______ ____
ROOT
ATOM      1  C   LIG    1       41.706  -0.378  17.336  0.00  0.00    +0.352 C 
ENDROOT
BRANCH   1   4
ATOM      2  O   LIG    1       44.291  -0.894  18.551  0.00  0.00    -0.270 OA
ATOM      3  C   LIG    1       43.737  -1.680  17.805  0.00  0.00    +0.252 C 
ATOM      4  N   LIG    1       42.539  -1.551  17.176  0.00  0.00    -0.200 N 
ATOM      5  C   LIG    1       42.275  -2.650  16.422  0.00  0.00    +0.252 C 
ATOM      6  O   LIG    1       41.322  -2.920  15.715  0.00  0.00    -0.270 OA
ATOM      7  C   LIG    1       43.414  -3.557  16.594  0.00  0.00    +0.023 C 
ATOM      8  C   LIG    1       43.551  -4.877  15.957  0.00  0.00    +0.041 C 
ATOM      9  C   LIG    1       44.814  -5.642  16.374  0.00  0.00    +0.005 C 
ATOM     10  C   LIG    1       45.878  -4.933  17.234  0.00  0.00    +0.005 C 
ATOM     11  C   LIG    1       45.559  -3.567  17.863  0.00  0.00    +0.041 C 
ATOM     12  C   LIG    1       44.282  -2.985  17.419  0.00  0.00    +0.023 C 
ENDBRANCH   1   4
BRANCH   1  13
ATOM     13  O   LIG    1       41.828   0.461  16.201  0.00  0.00    -0.444 OA
BRANCH  13  14
ATOM     14  C   LIG    1       40.684   0.691  15.525  0.00  0.00    +0.313 C 
ATOM     15  O   LIG    1       40.599   1.169  14.401  0.00  0.00    -0.250 OA
BRANCH  14  16
ATOM     16  C   LIG    1       39.529   0.222  16.322  0.00  0.00    +0.111 C 
ATOM     17  C   LIG    1       38.071   0.255  15.895  0.00  0.00    -0.014 C 
ATOM     18  C   LIG    1       37.194  -0.874  16.395  0.00  0.00    +0.012 C 
ATOM     19  C   LIG    1       37.673   0.729  14.519  0.00  0.00    +0.012 C 
ATOM     20  C   LIG    1       38.575   1.227  16.947  0.00  0.00    +0.032 C 
BRANCH  20  21
ATOM     21  C   LIG    1       38.753   2.663  16.682  0.00  0.00    -0.023 C 
ATOM     22  C   LIG    1       37.850   3.643  16.892  0.00  0.00    -0.079 C 
ATOM     23  C   LIG    1       38.167   5.080  16.578  0.00  0.00    +0.038 C 
ATOM     24  C   LIG    1       36.469   3.411  17.439  0.00  0.00    +0.038 C 
ENDBRANCH  20  21
ENDBRANCH  14  16
ENDBRANCH  13  14
ENDBRANCH   1  13
TORSDOF 5
ENDMDL
MODEL 5
REMARK VINA RESULT:      -9.9      2.142      3.204
REMARK  Name = 
REMARK                            x       y       z     vdW  Elec       q    Type
REMARK                         _______ _______ _______ _____ _____    ______ ____
ROOT
ATOM      1  C   LIG    1       43.899  -1.302  15.645  0.00  0.00    +0.352 C 
ENDROOT
BRANCH   1   4
ATOM      2  O   LIG    1       46.283  -2.664  14.707  0.00  0.00    -0.270 OA
ATOM      3  C   LIG    1       45.934  -2.660  15.872  0.00  0.00    +0.252 C 
ATOM      4  N   LIG    1       44.844  -2.068  16.429  0.00  0.00    -0.200 N 
ATOM      5  C   LIG    1       44.805  -2.302  17.767  0.00  0.00    +0.252 C 
ATOM      6  O   LIG    1       44.002  -1.953  18.612  0.00  0.00    -0.270 OA
ATOM      7  C   LIG    1       45.982  -3.118  18.082  0.00  0.00    +0.023 C 
ATOM      8  C   LIG    1       46.340  -3.606  19.423  0.00  0.00    +0.041 C 
ATOM      9  C   LIG    1       47.667  -4.376  19.471  0.00  0.00    +0.005 C 
ATOM     10  C   LIG    1       48.388  -4.725  18.155  0.00  0.00    +0.005 C 
ATOM     11  C   LIG    1       47.908  -4.094  16.837  0.00  0.00    +0.041 C 
ATOM     12  C   LIG    1       46.657  -3.328  16.958  0.00  0.00    +0.023 C 
ENDBRANCH   1   4
BRANCH   1  13
ATOM     13  O   LIG    1       42.986  -2.173  15.001  0.00  0.00    -0.444 OA
BRANCH  13  14
ATOM     14  C   LIG    1       41.804  -2.342  15.629  0.00  0.00    +0.313 C 
ATOM     15  O   LIG    1       41.253  -3.413  15.845  0.00  0.00    -0.250 OA
BRANCH  14  16
ATOM     16  C   LIG    1       41.287  -1.031  16.083  0.00  0.00    +0.111 C 
ATOM     17  C   LIG    1       39.969  -0.785  16.799  0.00  0.00    -0.014 C 
ATOM     18  C   LIG    1       39.951   0.338  17.815  0.00  0.00    +0.012 C 
ATOM     19  C   LIG    1       39.068  -1.931  17.187  0.00  0.00    +0.012 C 
ATOM     20  C   LIG    1       40.133  -0.370  15.347  0.00  0.00    +0.032 C 
BRANCH  20  21
ATOM     21  C   LIG    1       39.474  -1.079  14.238  0.00  0.00    -0.023 C 
ATOM     22  C   LIG    1       38.191  -0.950  13.844  0.00  0.00    -0.079 C 
ATOM     23  C   LIG    1       37.646  -1.738  12.684  0.00  0.00    +0.038 C 
ATOM     24  C   LIG    1       37.196  -0.038  14.506  0.00  0.00    +0.038 C 
ENDBRANCH  20  21
ENDBRANCH  14  16
ENDBRANCH  13  14
ENDBRANCH   1  13
TORSDOF 5
ENDMDL
MODEL 6
REMARK VINA RESULT:      -9.6      1.493      2.961
REMARK  Name = 
REMARK                            x       y       z     vdW  Elec       q    Type
REMARK                         _______ _______ _______ _____ _____    ______ ____
ROOT
ATOM      1  C   LIG    1       40.019  -0.669  17.243  0.00  0.00    +0.352 C 
ENDROOT
BRANCH   1   4
ATOM      2  O   LIG    1       42.522  -0.477  18.697  0.00  0.00    -0.270 OA
ATOM      3  C   LIG    1       42.298  -1.341  17.870  0.00  0.00    +0.252 C 
ATOM      4  N   LIG    1       41.175  -1.531  17.127  0.00  0.00    -0.200 N 
ATOM      5  C   LIG    1       41.321  -2.607  16.310  0.00  0.00    +0.252 C 
ATOM      6  O   LIG    1       40.558  -3.100  15.499  0.00  0.00    -0.270 OA
ATOM      7  C   LIG    1       42.660  -3.147  16.565  0.00  0.00    +0.023 C 
ATOM      8  C   LIG    1       43.241  -4.323  15.899  0.00  0.00    +0.041 C 
ATOM      9  C   LIG    1       44.634  -4.706  16.416  0.00  0.00    +0.005 C 
ATOM     10  C   LIG    1       45.357  -3.772  17.405  0.00  0.00    +0.005 C 
ATOM     11  C   LIG    1       44.589  -2.606  18.048  0.00  0.00    +0.041 C 
ATOM     12  C   LIG    1       43.241  -2.399  17.496  0.00  0.00    +0.023 C 
ENDBRANCH   1   4
BRANCH   1  13
ATOM     13  O   LIG    1       39.638  -0.196  15.963  0.00  0.00    -0.444 OA
BRANCH  13  14
ATOM     14  C   LIG    1       38.321  -0.280  15.682  0.00  0.00    +0.313 C 
ATOM     15  O   LIG    1       37.532  -1.075  16.175  0.00  0.00    -0.250 OA
BRANCH  14  16
ATOM     16  C   LIG    1       37.946   0.781  14.721  0.00  0.00    +0.111 C 
ATOM     17  C   LIG    1       38.557   2.171  14.635  0.00  0.00    -0.014 C 
ATOM     18  C   LIG    1       38.652   2.783  13.253  0.00  0.00    +0.012 C 
ATOM     19  C   LIG    1       39.707   2.572  15.525  0.00  0.00    +0.012 C 
ATOM     20  C   LIG    1       37.156   1.992  15.192  0.00  0.00    +0.032 C 
BRANCH  20  21
ATOM     21  C   LIG    1       36.843   2.147  16.622  0.00  0.00    -0.023 C 
ATOM     22  C   LIG    1       36.298   3.226  17.218  0.00  0.00    -0.079 C 
ATOM     23  C   LIG    1       36.025   3.248  18.698  0.00  0.00    +0.038 C 
ATOM     24  C   LIG    1       35.920   4.488  16.492  0.00  0.00    +0.038 C 
ENDBRANCH  20  21
ENDBRANCH  14  16
ENDBRANCH  13  14
ENDBRANCH   1  13
TORSDOF 5
ENDMDL
MODEL 7
REMARK VINA RESULT:      -9.6      1.402      2.711
REMARK  Name = 
REMARK                            x       y       z     vdW  Elec       q    Type
REMARK                         _______ _______ _______ _____ _____    ______ ____
ROOT
ATOM      1  C   LIG    1       41.971  -0.689  16.372  0.00  0.00    +0.352 C 
ENDROOT
BRANCH   1   4
ATOM      2  O   LIG    1       43.157  -0.975  19.005  0.00  0.00    -0.270 OA
ATOM      3  C   LIG    1       43.568  -1.563  18.023  0.00  0.00    +0.252 C 
ATOM      4  N   LIG    1       43.104  -1.508  16.746  0.00  0.00    -0.200 N 
ATOM      5  C   LIG    1       43.842  -2.310  15.935  0.00  0.00    +0.252 C 
ATOM      6  O   LIG    1       43.753  -2.534  14.742  0.00  0.00    -0.270 OA
ATOM      7  C   LIG    1       44.867  -2.930  16.781  0.00  0.00    +0.023 C 
ATOM      8  C   LIG    1       45.890  -3.880  16.316  0.00  0.00    +0.041 C 
ATOM      9  C   LIG    1       46.787  -4.426  17.435  0.00  0.00    +0.005 C 
ATOM     10  C   LIG    1       46.678  -3.828  18.851  0.00  0.00    +0.005 C 
ATOM     11  C   LIG    1       45.519  -2.876  19.187  0.00  0.00    +0.041 C 
ATOM     12  C   LIG    1       44.703  -2.491  18.024  0.00  0.00    +0.023 C 
ENDBRANCH   1   4
BRANCH   1  13
ATOM     13  O   LIG    1       40.820  -1.500  16.214  0.00  0.00    -0.444 OA
BRANCH  13  14
ATOM     14  C   LIG    1       39.794  -1.219  17.044  0.00  0.00    +0.313 C 
ATOM     15  O   LIG    1       39.888  -0.944  18.233  0.00  0.00    -0.250 OA
BRANCH  14  16
ATOM     16  C   LIG    1       38.521  -1.233  16.288  0.00  0.00    +0.111 C 
ATOM     17  C   LIG    1       38.265  -0.558  14.950  0.00  0.00    -0.014 C 
ATOM     18  C   LIG    1       37.303  -1.258  14.014  0.00  0.00    +0.012 C 
ATOM     19  C   LIG    1       39.371   0.157  14.214  0.00  0.00    +0.012 C 
ATOM     20  C   LIG    1       37.662   0.019  16.219  0.00  0.00    +0.032 C 
BRANCH  20  21
ATOM     21  C   LIG    1       38.144   1.268  16.830  0.00  0.00    -0.023 C 
ATOM     22  C   LIG    1       37.849   2.526  16.442  0.00  0.00    -0.079 C 
ATOM     23  C   LIG    1       38.411   3.720  17.165  0.00  0.00    +0.038 C 
ATOM     24  C   LIG    1       36.960   2.859  15.276  0.00  0.00    +0.038 C 
ENDBRANCH  20  21
ENDBRANCH  14  16
ENDBRANCH  13  14
ENDBRANCH   1  13
TORSDOF 5
ENDMDL
MODEL 8
REMARK VINA RESULT:      -9.5      2.693      7.702
REMARK  Name = 
REMARK                            x       y       z     vdW  Elec       q    Type
REMARK                         _______ _______ _______ _____ _____    ______ ____
ROOT
ATOM      1  C   LIG    1       38.994  -0.140  13.508  0.00  0.00    +0.352 C 
ENDROOT
BRANCH   1   4
ATOM      2  O   LIG    1       38.697   2.715  13.078  0.00  0.00    -0.270 OA
ATOM      3  C   LIG    1       38.293   2.146  14.075  0.00  0.00    +0.252 C 
ATOM      4  N   LIG    1       38.377   0.827  14.391  0.00  0.00    -0.200 N 
ATOM      5  C   LIG    1       37.809   0.589  15.602  0.00  0.00    +0.252 C 
ATOM      6  O   LIG    1       37.684  -0.444  16.233  0.00  0.00    -0.270 OA
ATOM      7  C   LIG    1       37.321   1.881  16.095  0.00  0.00    +0.023 C 
ATOM      8  C   LIG    1       36.632   2.093  17.378  0.00  0.00    +0.041 C 
ATOM      9  C   LIG    1       36.166   3.538  17.602  0.00  0.00    +0.005 C 
ATOM     10  C   LIG    1       36.598   4.635  16.610  0.00  0.00    +0.005 C 
ATOM     11  C   LIG    1       37.275   4.238  15.288  0.00  0.00    +0.041 C 
ATOM     12  C   LIG    1       37.603   2.807  15.187  0.00  0.00    +0.023 C 
ENDBRANCH   1   4
BRANCH   1  13
ATOM     13  O   LIG    1       40.387  -0.201  13.757  0.00  0.00    -0.444 OA
BRANCH  13  14
ATOM     14  C   LIG    1       40.835  -1.367  14.266  0.00  0.00    +0.313 C 
ATOM     15  O   LIG    1       40.156  -2.361  14.488  0.00  0.00    -0.250 OA
BRANCH  14  16
ATOM     16  C   LIG    1       42.300  -1.296  14.465  0.00  0.00    +0.111 C 
ATOM     17  C   LIG    1       43.144  -2.270  15.271  0.00  0.00    -0.014 C 
ATOM     18  C   LIG    1       44.550  -2.521  14.768  0.00  0.00    +0.012 C 
ATOM     19  C   LIG    1       42.530  -3.494  15.905  0.00  0.00    +0.012 C 
ATOM     20  C   LIG    1       42.867  -0.879  15.813  0.00  0.00    +0.032 C 
BRANCH  20  21
ATOM     21  C   LIG    1       41.955  -0.634  16.943  0.00  0.00    -0.023 C 
ATOM     22  C   LIG    1       42.232  -0.788  18.254  0.00  0.00    -0.079 C 
ATOM     23  C   LIG    1       41.202  -0.495  19.310  0.00  0.00    +0.038 C 
ATOM     24  C   LIG    1       43.557  -1.261  18.784  0.00  0.00    +0.038 C 
ENDBRANCH  20  21
ENDBRANCH  14  16
ENDBRANCH  13  14
ENDBRANCH   1  13
TORSDOF 5
ENDMDL
MODEL 9
REMARK VINA RESULT:      -9.5      2.322      8.121
REMARK  Name = 
REMARK                            x       y       z     vdW  Elec       q    Type
REMARK                         _______ _______ _______ _____ _____    ______ ____
ROOT
ATOM      1  C   LIG    1       40.656   0.426  15.028  0.00  0.00    +0.352 C 
ENDROOT
BRANCH   1   4
ATOM      2  O   LIG    1       39.430   2.446  13.344  0.00  0.00    -0.270 OA
ATOM      3  C   LIG    1       39.118   2.270  14.507  0.00  0.00    +0.252 C 
ATOM      4  N   LIG    1       39.619   1.367  15.391  0.00  0.00    -0.200 N 
ATOM      5  C   LIG    1       39.009   1.493  16.599  0.00  0.00    +0.252 C 
ATOM      6  O   LIG    1       39.170   0.884  17.640  0.00  0.00    -0.270 OA
ATOM      7  C   LIG    1       38.030   2.577  16.461  0.00  0.00    +0.023 C 
ATOM      8  C   LIG    1       37.138   3.054  17.529  0.00  0.00    +0.041 C 
ATOM      9  C   LIG    1       36.164   4.152  17.082  0.00  0.00    +0.005 C 
ATOM     10  C   LIG    1       36.313   4.771  15.678  0.00  0.00    +0.005 C 
ATOM     11  C   LIG    1       37.265   4.122  14.660  0.00  0.00    +0.041 C 
ATOM     12  C   LIG    1       38.090   3.037  15.217  0.00  0.00    +0.023 C 
ENDBRANCH   1   4
BRANCH   1  13
ATOM     13  O   LIG    1       41.667   0.413  16.020  0.00  0.00    -0.444 OA
BRANCH  13  14
ATOM     14  C   LIG    1       42.054  -0.810  16.438  0.00  0.00    +0.313 C 
ATOM     15  O   LIG    1       41.429  -1.539  17.198  0.00  0.00    -0.250 OA
BRANCH  14  16
ATOM     16  C   LIG    1       43.333  -1.178  15.791  0.00  0.00    +0.111 C 
ATOM     17  C   LIG    1       43.952  -2.565  15.752  0.00  0.00    -0.014 C 
ATOM     18  C   LIG    1       44.739  -2.920  14.508  0.00  0.00    +0.012 C 
ATOM     19  C   LIG    1       43.235  -3.755  16.341  0.00  0.00    +0.012 C 
ATOM     20  C   LIG    1       44.555  -1.491  16.640  0.00  0.00    +0.032 C 
BRANCH  20  21
ATOM     21  C   LIG    1       44.437  -1.514  18.107  0.00  0.00    -0.023 C 
ATOM     22  C   LIG    1       45.163  -2.258  18.966  0.00  0.00    -0.079 C 
ATOM     23  C   LIG    1       44.939  -2.179  20.452  0.00  0.00    +0.038 C 
ATOM     24  C   LIG    1       46.237  -3.221  18.543  0.00  0.00    +0.038 C 
ENDBRANCH  20  21
ENDBRANCH  14  16
ENDBRANCH  13  14
ENDBRANCH   1  13
TORSDOF 5
ENDMDL
