MODEL 1
REMARK VINA RESULT:      -7.9      0.000      0.000
REMARK  Name = 
REMARK                            x       y       z     vdW  Elec       q    Type
REMARK                         _______ _______ _______ _____ _____    ______ ____
ROOT
ATOM      1  C   LIG    1       20.386  28.151  10.008  0.00  0.00    +0.352 C 
ENDROOT
BRANCH   1   4
ATOM      2  O   LIG    1       19.925  30.214  11.996  0.00  0.00    -0.270 OA
ATOM      3  C   LIG    1       19.149  29.979  11.090  0.00  0.00    +0.252 C 
ATOM      4  N   LIG    1       19.251  29.043  10.109  0.00  0.00    -0.200 N 
ATOM      5  C   LIG    1       18.169  29.093   9.288  0.00  0.00    +0.252 C 
ATOM      6  O   LIG    1       17.883  28.432   8.307  0.00  0.00    -0.270 OA
ATOM      7  C   LIG    1       17.306  30.163   9.799  0.00  0.00    +0.023 C 
ATOM      8  C   LIG    1       16.020  30.569   9.211  0.00  0.00    +0.041 C 
ATOM      9  C   LIG    1       15.366  31.767   9.911  0.00  0.00    +0.005 C 
ATOM     10  C   LIG    1       15.977  32.305  11.220  0.00  0.00    +0.005 C 
ATOM     11  C   LIG    1       17.357  31.803  11.676  0.00  0.00    +0.041 C 
ATOM     12  C   LIG    1       17.889  30.694  10.868  0.00  0.00    +0.023 C 
ENDBRANCH   1   4
BRANCH   1  13
ATOM     13  O   LIG    1       21.446  28.792   9.322  0.00  0.00    -0.444 OA
BRANCH  13  14
ATOM     14  C   LIG    1       21.574  28.467   8.019  0.00  0.00    +0.313 C 
ATOM     15  O   LIG    1       20.953  27.590   7.434  0.00  0.00    -0.250 OA
BRANCH  14  16
ATOM     16  C   LIG    1       22.546  29.376   7.370  0.00  0.00    +0.111 C 
ATOM     17  C   LIG    1       23.035  29.289   5.934  0.00  0.00    -0.014 C 
ATOM     18  C   LIG    1       23.346  30.601   5.245  0.00  0.00    +0.012 C 
ATOM     19  C   LIG    1       22.484  28.254   4.985  0.00  0.00    +0.012 C 
ATOM     20  C   LIG    1       23.958  28.898   7.075  0.00  0.00    +0.032 C 
BRANCH  20  21
ATOM     21  C   LIG    1       24.328  27.501   7.355  0.00  0.00    -0.023 C 
ATOM     22  C   LIG    1       25.532  27.049   7.762  0.00  0.00    -0.079 C 
ATOM     23  C   LIG    1       25.773  25.586   8.017  0.00  0.00    +0.038 C 
ATOM     24  C   LIG    1       26.729  27.932   7.990  0.00  0.00    +0.038 C 
ENDBRANCH  20  21
ENDBRANCH  14  16
ENDBRANCH  13  14
ENDBRANCH   1  13
TORSDOF 5
ENDMDL
MODEL 2
REMARK VINA RESULT:      -7.8      2.191      7.635
REMARK  Name = 
REMARK                            x       y       z     vdW  Elec       q    Type
REMARK                         _______ _______ _______ _____ _____    ______ ____
ROOT
ATOM      1  C   LIG    1       21.502  27.885   7.857  0.00  0.00    +0.352 C 
ENDROOT
BRANCH   1   4
ATOM      2  O   LIG    1       24.082  26.588   8.138  0.00  0.00    -0.270 OA
ATOM      3  C   LIG    1       23.928  27.643   7.552  0.00  0.00    +0.252 C 
ATOM      4  N   LIG    1       22.780  28.345   7.360  0.00  0.00    -0.200 N 
ATOM      5  C   LIG    1       23.028  29.482   6.657  0.00  0.00    +0.252 C 
ATOM      6  O   LIG    1       22.281  30.368   6.288  0.00  0.00    -0.270 OA
ATOM      7  C   LIG    1       24.468  29.495   6.380  0.00  0.00    +0.023 C 
ATOM      8  C   LIG    1       25.179  30.547   5.637  0.00  0.00    +0.041 C 
ATOM      9  C   LIG    1       26.673  30.264   5.433  0.00  0.00    +0.005 C 
ATOM     10  C   LIG    1       27.320  29.060   6.145  0.00  0.00    +0.005 C 
ATOM     11  C   LIG    1       26.426  28.023   6.845  0.00  0.00    +0.041 C 
ATOM     12  C   LIG    1       25.004  28.400   6.907  0.00  0.00    +0.023 C 
ENDBRANCH   1   4
BRANCH   1  13
ATOM     13  O   LIG    1       21.196  28.534   9.079  0.00  0.00    -0.444 OA
BRANCH  13  14
ATOM     14  C   LIG    1       20.091  29.307   9.064  0.00  0.00    +0.313 C 
ATOM     15  O   LIG    1       20.071  30.530   9.006  0.00  0.00    -0.250 OA
BRANCH  14  16
ATOM     16  C   LIG    1       18.882  28.452   9.067  0.00  0.00    +0.111 C 
ATOM     17  C   LIG    1       17.447  28.927   9.228  0.00  0.00    -0.014 C 
ATOM     18  C   LIG    1       16.389  28.149   8.475  0.00  0.00    +0.012 C 
ATOM     19  C   LIG    1       17.120  30.397   9.331  0.00  0.00    +0.012 C 
ATOM     20  C   LIG    1       18.135  28.193  10.365  0.00  0.00    +0.032 C 
BRANCH  20  21
ATOM     21  C   LIG    1       18.565  28.866  11.601  0.00  0.00    -0.023 C 
ATOM     22  C   LIG    1       18.587  28.341  12.843  0.00  0.00    -0.079 C 
ATOM     23  C   LIG    1       19.058  29.145  14.024  0.00  0.00    +0.038 C 
ATOM     24  C   LIG    1       18.150  26.940  13.172  0.00  0.00    +0.038 C 
ENDBRANCH  20  21
ENDBRANCH  14  16
ENDBRANCH  13  14
ENDBRANCH   1  13
TORSDOF 5
ENDMDL
MODEL 3
REMARK VINA RESULT:      -7.7      2.185      7.673
REMARK  Name = 
REMARK                            x       y       z     vdW  Elec       q    Type
REMARK                         _______ _______ _______ _____ _____    ______ ____
ROOT
ATOM      1  C   LIG    1       21.499  27.855   7.853  0.00  0.00    +0.352 C 
ENDROOT
BRANCH   1   4
ATOM      2  O   LIG    1       22.267  30.249   6.403  0.00  0.00    -0.270 OA
ATOM      3  C   LIG    1       23.063  29.396   6.749  0.00  0.00    +0.252 C 
ATOM      4  N   LIG    1       22.826  28.239   7.423  0.00  0.00    -0.200 N 
ATOM      5  C   LIG    1       23.983  27.553   7.614  0.00  0.00    +0.252 C 
ATOM      6  O   LIG    1       24.195  26.487   8.162  0.00  0.00    -0.270 OA
ATOM      7  C   LIG    1       25.049  28.354   7.005  0.00  0.00    +0.023 C 
ATOM      8  C   LIG    1       26.475  27.990   6.979  0.00  0.00    +0.041 C 
ATOM      9  C   LIG    1       27.377  29.053   6.338  0.00  0.00    +0.005 C 
ATOM     10  C   LIG    1       26.737  30.268   5.639  0.00  0.00    +0.005 C 
ATOM     11  C   LIG    1       25.230  30.530   5.801  0.00  0.00    +0.041 C 
ATOM     12  C   LIG    1       24.505  29.453   6.494  0.00  0.00    +0.023 C 
ENDBRANCH   1   4
BRANCH   1  13
ATOM     13  O   LIG    1       21.188  28.483   9.084  0.00  0.00    -0.444 OA
BRANCH  13  14
ATOM     14  C   LIG    1       20.092  29.269   9.074  0.00  0.00    +0.313 C 
ATOM     15  O   LIG    1       20.088  30.492   9.020  0.00  0.00    -0.250 OA
BRANCH  14  16
ATOM     16  C   LIG    1       18.873  28.429   9.075  0.00  0.00    +0.111 C 
ATOM     17  C   LIG    1       17.444  28.922   9.230  0.00  0.00    -0.014 C 
ATOM     18  C   LIG    1       16.379  28.154   8.476  0.00  0.00    +0.012 C 
ATOM     19  C   LIG    1       17.134  30.396   9.328  0.00  0.00    +0.012 C 
ATOM     20  C   LIG    1       18.119  28.182  10.372  0.00  0.00    +0.032 C 
BRANCH  20  21
ATOM     21  C   LIG    1       18.553  28.854  11.607  0.00  0.00    -0.023 C 
ATOM     22  C   LIG    1       18.579  28.328  12.848  0.00  0.00    -0.079 C 
ATOM     23  C   LIG    1       19.054  29.130  14.029  0.00  0.00    +0.038 C 
ATOM     24  C   LIG    1       18.142  26.926  13.177  0.00  0.00    +0.038 C 
ENDBRANCH  20  21
ENDBRANCH  14  16
ENDBRANCH  13  14
ENDBRANCH   1  13
TORSDOF 5
ENDMDL
MODEL 4
REMARK VINA RESULT:      -7.3      2.491      7.735
REMARK  Name = 
REMARK                            x       y       z     vdW  Elec       q    Type
REMARK                         _______ _______ _______ _____ _____    ______ ____
ROOT
ATOM      1  C   LIG    1       22.836  27.821   6.820  0.00  0.00    +0.352 C 
ENDROOT
BRANCH   1   4
ATOM      2  O   LIG    1       25.631  28.306   7.427  0.00  0.00    -0.270 OA
ATOM      3  C   LIG    1       24.998  28.973   6.631  0.00  0.00    +0.252 C 
ATOM      4  N   LIG    1       23.694  28.848   6.269  0.00  0.00    -0.200 N 
ATOM      5  C   LIG    1       23.361  29.794   5.352  0.00  0.00    +0.252 C 
ATOM      6  O   LIG    1       22.306  30.019   4.788  0.00  0.00    -0.270 OA
ATOM      7  C   LIG    1       24.570  30.588   5.114  0.00  0.00    +0.023 C 
ATOM      8  C   LIG    1       24.668  31.726   4.186  0.00  0.00    +0.041 C 
ATOM      9  C   LIG    1       26.076  32.326   4.082  0.00  0.00    +0.005 C 
ATOM     10  C   LIG    1       27.178  31.841   5.045  0.00  0.00    +0.005 C 
ATOM     11  C   LIG    1       26.928  30.604   5.923  0.00  0.00    +0.041 C 
ATOM     12  C   LIG    1       25.546  30.099   5.870  0.00  0.00    +0.023 C 
ENDBRANCH   1   4
BRANCH   1  13
ATOM     13  O   LIG    1       21.760  28.416   7.524  0.00  0.00    -0.444 OA
BRANCH  13  14
ATOM     14  C   LIG    1       21.377  27.775   8.647  0.00  0.00    +0.313 C 
ATOM     15  O   LIG    1       21.307  26.562   8.792  0.00  0.00    -0.250 OA
BRANCH  14  16
ATOM     16  C   LIG    1       21.108  28.761   9.719  0.00  0.00    +0.111 C 
ATOM     17  C   LIG    1       20.354  28.497  11.012  0.00  0.00    -0.014 C 
ATOM     18  C   LIG    1       20.814  29.267  12.232  0.00  0.00    +0.012 C 
ATOM     19  C   LIG    1       19.856  27.114  11.355  0.00  0.00    +0.012 C 
ATOM     20  C   LIG    1       19.706  29.315   9.909  0.00  0.00    +0.032 C 
BRANCH  20  21
ATOM     21  C   LIG    1       18.600  28.803   9.084  0.00  0.00    -0.023 C 
ATOM     22  C   LIG    1       17.376  29.350   8.941  0.00  0.00    -0.079 C 
ATOM     23  C   LIG    1       16.336  28.719   8.055  0.00  0.00    +0.038 C 
ATOM     24  C   LIG    1       16.931  30.607   9.635  0.00  0.00    +0.038 C 
ENDBRANCH  20  21
ENDBRANCH  14  16
ENDBRANCH  13  14
ENDBRANCH   1  13
TORSDOF 5
ENDMDL
MODEL 5
REMARK VINA RESULT:      -7.1      2.014      7.959
REMARK  Name = 
REMARK                            x       y       z     vdW  Elec       q    Type
REMARK                         _______ _______ _______ _____ _____    ______ ____
ROOT
ATOM      1  C   LIG    1       21.601  28.145   7.727  0.00  0.00    +0.352 C 
ENDROOT
BRANCH   1   4
ATOM      2  O   LIG    1       22.534  30.351   6.088  0.00  0.00    -0.270 OA
ATOM      3  C   LIG    1       23.272  29.489   6.526  0.00  0.00    +0.252 C 
ATOM      4  N   LIG    1       22.956  28.413   7.294  0.00  0.00    -0.200 N 
ATOM      5  C   LIG    1       24.067  27.681   7.571  0.00  0.00    +0.252 C 
ATOM      6  O   LIG    1       24.206  26.658   8.217  0.00  0.00    -0.270 OA
ATOM      7  C   LIG    1       25.189  28.362   6.917  0.00  0.00    +0.023 C 
ATOM      8  C   LIG    1       26.590  27.915   6.956  0.00  0.00    +0.041 C 
ATOM      9  C   LIG    1       27.565  28.862   6.243  0.00  0.00    +0.005 C 
ATOM     10  C   LIG    1       27.010  30.044   5.425  0.00  0.00    +0.005 C 
ATOM     11  C   LIG    1       25.519  30.406   5.529  0.00  0.00    +0.041 C 
ATOM     12  C   LIG    1       24.720  29.439   6.299  0.00  0.00    +0.023 C 
ENDBRANCH   1   4
BRANCH   1  13
ATOM     13  O   LIG    1       21.301  28.912   8.880  0.00  0.00    -0.444 OA
BRANCH  13  14
ATOM     14  C   LIG    1       20.872  28.209   9.948  0.00  0.00    +0.313 C 
ATOM     15  O   LIG    1       20.990  27.001  10.107  0.00  0.00    -0.250 OA
BRANCH  14  16
ATOM     16  C   LIG    1       20.282  29.128  10.948  0.00  0.00    +0.111 C 
ATOM     17  C   LIG    1       19.123  28.816  11.880  0.00  0.00    -0.014 C 
ATOM     18  C   LIG    1       19.161  29.467  13.246  0.00  0.00    +0.012 C 
ATOM     19  C   LIG    1       18.496  27.444  11.911  0.00  0.00    +0.012 C 
ATOM     20  C   LIG    1       18.917  29.749  10.700  0.00  0.00    +0.032 C 
BRANCH  20  21
ATOM     21  C   LIG    1       18.146  29.363   9.507  0.00  0.00    -0.023 C 
ATOM     22  C   LIG    1       16.963  29.873   9.108  0.00  0.00    -0.079 C 
ATOM     23  C   LIG    1       16.283  29.387   7.857  0.00  0.00    +0.038 C 
ATOM     24  C   LIG    1       16.215  30.944   9.853  0.00  0.00    +0.038 C 
ENDBRANCH  20  21
ENDBRANCH  14  16
ENDBRANCH  13  14
ENDBRANCH   1  13
TORSDOF 5
ENDMDL
MODEL 6
REMARK VINA RESULT:      -7.1      2.516      3.713
REMARK  Name = 
REMARK                            x       y       z     vdW  Elec       q    Type
REMARK                         _______ _______ _______ _____ _____    ______ ____
ROOT
ATOM      1  C   LIG    1       21.919  28.100   7.127  0.00  0.00    +0.352 C 
ENDROOT
BRANCH   1   4
ATOM      2  O   LIG    1       21.214  26.036   9.040  0.00  0.00    -0.270 OA
ATOM      3  C   LIG    1       20.930  27.209   9.193  0.00  0.00    +0.252 C 
ATOM      4  N   LIG    1       21.199  28.259   8.372  0.00  0.00    -0.200 N 
ATOM      5  C   LIG    1       20.708  29.412   8.897  0.00  0.00    +0.252 C 
ATOM      6  O   LIG    1       20.737  30.554   8.476  0.00  0.00    -0.270 OA
ATOM      7  C   LIG    1       20.071  29.054  10.168  0.00  0.00    +0.023 C 
ATOM      8  C   LIG    1       19.406  29.999  11.079  0.00  0.00    +0.041 C 
ATOM      9  C   LIG    1       18.891  29.358  12.375  0.00  0.00    +0.005 C 
ATOM     10  C   LIG    1       18.938  27.826  12.531  0.00  0.00    +0.005 C 
ATOM     11  C   LIG    1       19.715  26.982  11.507  0.00  0.00    +0.041 C 
ATOM     12  C   LIG    1       20.206  27.746  10.348  0.00  0.00    +0.023 C 
ENDBRANCH   1   4
BRANCH   1  13
ATOM     13  O   LIG    1       23.290  27.857   7.389  0.00  0.00    -0.444 OA
BRANCH  13  14
ATOM     14  C   LIG    1       24.125  28.068   6.350  0.00  0.00    +0.313 C 
ATOM     15  O   LIG    1       24.705  27.202   5.709  0.00  0.00    -0.250 OA
BRANCH  14  16
ATOM     16  C   LIG    1       24.195  29.516   6.051  0.00  0.00    +0.111 C 
ATOM     17  C   LIG    1       25.162  30.188   5.089  0.00  0.00    -0.014 C 
ATOM     18  C   LIG    1       24.642  31.400   4.346  0.00  0.00    +0.012 C 
ATOM     19  C   LIG    1       26.131  29.376   4.266  0.00  0.00    +0.012 C 
ATOM     20  C   LIG    1       25.346  30.351   6.588  0.00  0.00    +0.032 C 
BRANCH  20  21
ATOM     21  C   LIG    1       26.436  29.697   7.330  0.00  0.00    -0.023 C 
ATOM     22  C   LIG    1       27.312  30.288   8.168  0.00  0.00    -0.079 C 
ATOM     23  C   LIG    1       28.381  29.495   8.869  0.00  0.00    +0.038 C 
ATOM     24  C   LIG    1       27.318  31.760   8.478  0.00  0.00    +0.038 C 
ENDBRANCH  20  21
ENDBRANCH  14  16
ENDBRANCH  13  14
ENDBRANCH   1  13
TORSDOF 5
ENDMDL
MODEL 7
REMARK VINA RESULT:      -7.0      2.566      3.686
REMARK  Name = 
REMARK                            x       y       z     vdW  Elec       q    Type
REMARK                         _______ _______ _______ _____ _____    ______ ____
ROOT
ATOM      1  C   LIG    1       22.073  28.178   7.029  0.00  0.00    +0.352 C 
ENDROOT
BRANCH   1   4
ATOM      2  O   LIG    1       20.993  30.545   8.313  0.00  0.00    -0.270 OA
ATOM      3  C   LIG    1       20.883  29.427   8.780  0.00  0.00    +0.252 C 
ATOM      4  N   LIG    1       21.347  28.251   8.279  0.00  0.00    -0.200 N 
ATOM      5  C   LIG    1       21.023  27.221   9.103  0.00  0.00    +0.252 C 
ATOM      6  O   LIG    1       21.253  26.029   9.016  0.00  0.00    -0.270 OA
ATOM      7  C   LIG    1       20.285  27.803  10.229  0.00  0.00    +0.023 C 
ATOM      8  C   LIG    1       19.737  27.046  11.366  0.00  0.00    +0.041 C 
ATOM      9  C   LIG    1       18.946  27.904  12.361  0.00  0.00    +0.005 C 
ATOM     10  C   LIG    1       18.945  29.438  12.205  0.00  0.00    +0.005 C 
ATOM     11  C   LIG    1       19.524  30.071  10.929  0.00  0.00    +0.041 C 
ATOM     12  C   LIG    1       20.197  29.114  10.036  0.00  0.00    +0.023 C 
ENDBRANCH   1   4
BRANCH   1  13
ATOM     13  O   LIG    1       23.408  27.769   7.269  0.00  0.00    -0.444 OA
BRANCH  13  14
ATOM     14  C   LIG    1       24.286  28.048   6.284  0.00  0.00    +0.313 C 
ATOM     15  O   LIG    1       24.937  27.228   5.649  0.00  0.00    -0.250 OA
BRANCH  14  16
ATOM     16  C   LIG    1       24.307  29.507   6.031  0.00  0.00    +0.111 C 
ATOM     17  C   LIG    1       25.287  30.248   5.136  0.00  0.00    -0.014 C 
ATOM     18  C   LIG    1       24.750  31.461   4.406  0.00  0.00    +0.012 C 
ATOM     19  C   LIG    1       26.326  29.504   4.334  0.00  0.00    +0.012 C 
ATOM     20  C   LIG    1       25.397  30.371   6.645  0.00  0.00    +0.032 C 
BRANCH  20  21
ATOM     21  C   LIG    1       26.479  29.740   7.418  0.00  0.00    -0.023 C 
ATOM     22  C   LIG    1       27.375  30.361   8.211  0.00  0.00    -0.079 C 
ATOM     23  C   LIG    1       28.433  29.588   8.951  0.00  0.00    +0.038 C 
ATOM     24  C   LIG    1       27.416  31.848   8.430  0.00  0.00    +0.038 C 
ENDBRANCH  20  21
ENDBRANCH  14  16
ENDBRANCH  13  14
ENDBRANCH   1  13
TORSDOF 5
ENDMDL
MODEL 8
REMARK VINA RESULT:      -7.0      1.920      7.825
REMARK  Name = 
REMARK                            x       y       z     vdW  Elec       q    Type
REMARK                         _______ _______ _______ _____ _____    ______ ____
ROOT
ATOM      1  C   LIG    1       19.722  28.723   9.121  0.00  0.00    +0.352 C 
ENDROOT
BRANCH   1   4
ATOM      2  O   LIG    1       21.501  26.467   8.715  0.00  0.00    -0.270 OA
ATOM      3  C   LIG    1       21.737  27.585   8.296  0.00  0.00    +0.252 C 
ATOM      4  N   LIG    1       20.991  28.713   8.426  0.00  0.00    -0.200 N 
ATOM      5  C   LIG    1       21.605  29.763   7.820  0.00  0.00    +0.252 C 
ATOM      6  O   LIG    1       21.269  30.929   7.715  0.00  0.00    -0.270 OA
ATOM      7  C   LIG    1       22.855  29.247   7.255  0.00  0.00    +0.023 C 
ATOM      8  C   LIG    1       23.840  30.042   6.506  0.00  0.00    +0.041 C 
ATOM      9  C   LIG    1       25.021  29.225   5.967  0.00  0.00    +0.005 C 
ATOM     10  C   LIG    1       25.176  27.751   6.390  0.00  0.00    +0.005 C 
ATOM     11  C   LIG    1       24.030  27.051   7.138  0.00  0.00    +0.041 C 
ATOM     12  C   LIG    1       22.934  27.950   7.533  0.00  0.00    +0.023 C 
ENDBRANCH   1   4
BRANCH   1  13
ATOM     13  O   LIG    1       19.825  29.494  10.305  0.00  0.00    -0.444 OA
BRANCH  13  14
ATOM     14  C   LIG    1       19.364  28.901  11.426  0.00  0.00    +0.313 C 
ATOM     15  O   LIG    1       18.953  27.752  11.512  0.00  0.00    -0.250 OA
BRANCH  14  16
ATOM     16  C   LIG    1       19.485  29.833  12.570  0.00  0.00    +0.111 C 
ATOM     17  C   LIG    1       18.742  29.730  13.892  0.00  0.00    -0.014 C 
ATOM     18  C   LIG    1       19.484  30.207  15.123  0.00  0.00    +0.012 C 
ATOM     19  C   LIG    1       17.827  28.567  14.184  0.00  0.00    +0.012 C 
ATOM     20  C   LIG    1       18.357  30.801  12.887  0.00  0.00    +0.032 C 
BRANCH  20  21
ATOM     21  C   LIG    1       17.110  30.748  12.107  0.00  0.00    -0.023 C 
ATOM     22  C   LIG    1       16.759  31.555  11.085  0.00  0.00    -0.079 C 
ATOM     23  C   LIG    1       15.447  31.385  10.369  0.00  0.00    +0.038 C 
ATOM     24  C   LIG    1       17.614  32.680  10.571  0.00  0.00    +0.038 C 
ENDBRANCH  20  21
ENDBRANCH  14  16
ENDBRANCH  13  14
ENDBRANCH   1  13
TORSDOF 5
ENDMDL
MODEL 9
REMARK VINA RESULT:      -6.9      2.488      4.156
REMARK  Name = 
REMARK                            x       y       z     vdW  Elec       q    Type
REMARK                         _______ _______ _______ _____ _____    ______ ____
ROOT
ATOM      1  C   LIG    1       22.266  28.167   6.928  0.00  0.00    +0.352 C 
ENDROOT
BRANCH   1   4
ATOM      2  O   LIG    1       21.132  30.545   8.145  0.00  0.00    -0.270 OA
ATOM      3  C   LIG    1       20.995  29.430   8.611  0.00  0.00    +0.252 C 
ATOM      4  N   LIG    1       21.478  28.249   8.139  0.00  0.00    -0.200 N 
ATOM      5  C   LIG    1       21.110  27.225   8.952  0.00  0.00    +0.252 C 
ATOM      6  O   LIG    1       21.339  26.031   8.882  0.00  0.00    -0.270 OA
ATOM      7  C   LIG    1       20.319  27.815  10.036  0.00  0.00    +0.023 C 
ATOM      8  C   LIG    1       19.712  27.067  11.148  0.00  0.00    +0.041 C 
ATOM      9  C   LIG    1       18.876  27.933  12.099  0.00  0.00    +0.005 C 
ATOM     10  C   LIG    1       18.889  29.466  11.935  0.00  0.00    +0.005 C 
ATOM     11  C   LIG    1       19.534  30.090  10.687  0.00  0.00    +0.041 C 
ATOM     12  C   LIG    1       20.246  29.126   9.833  0.00  0.00    +0.023 C 
ENDBRANCH   1   4
BRANCH   1  13
ATOM     13  O   LIG    1       23.628  27.947   7.251  0.00  0.00    -0.444 OA
BRANCH  13  14
ATOM     14  C   LIG    1       24.500  28.827   6.718  0.00  0.00    +0.313 C 
ATOM     15  O   LIG    1       24.311  30.028   6.577  0.00  0.00    -0.250 OA
BRANCH  14  16
ATOM     16  C   LIG    1       25.764  28.135   6.377  0.00  0.00    +0.111 C 
ATOM     17  C   LIG    1       26.593  27.270   7.313  0.00  0.00    -0.014 C 
ATOM     18  C   LIG    1       27.319  26.099   6.684  0.00  0.00    +0.012 C 
ATOM     19  C   LIG    1       26.128  26.975   8.718  0.00  0.00    +0.012 C 
ATOM     20  C   LIG    1       27.086  28.651   6.920  0.00  0.00    +0.032 C 
BRANCH  20  21
ATOM     21  C   LIG    1       27.096  29.787   7.857  0.00  0.00    -0.023 C 
ATOM     22  C   LIG    1       28.029  30.057   8.792  0.00  0.00    -0.079 C 
ATOM     23  C   LIG    1       27.917  31.262   9.685  0.00  0.00    +0.038 C 
ATOM     24  C   LIG    1       29.242  29.203   9.040  0.00  0.00    +0.038 C 
ENDBRANCH  20  21
ENDBRANCH  14  16
ENDBRANCH  13  14
ENDBRANCH   1  13
TORSDOF 5
ENDMDL
