MODEL 1
REMARK VINA RESULT:      -8.1      0.000      0.000
REMARK  Name = 
REMARK                            x       y       z     vdW  Elec       q    Type
REMARK                         _______ _______ _______ _____ _____    ______ ____
ROOT
ATOM      1  C   LIG    1       32.936  -3.705  23.129  0.00  0.00    +0.352 C 
ENDROOT
BRANCH   1   4
ATOM      2  O   LIG    1       30.839  -3.480  21.136  0.00  0.00    -0.270 OA
ATOM      3  C   LIG    1       32.008  -3.238  20.902  0.00  0.00    +0.252 C 
ATOM      4  N   LIG    1       33.073  -3.311  21.744  0.00  0.00    -0.200 N 
ATOM      5  C   LIG    1       34.217  -2.965  21.097  0.00  0.00    +0.252 C 
ATOM      6  O   LIG    1       35.367  -2.905  21.491  0.00  0.00    -0.270 OA
ATOM      7  C   LIG    1       33.835  -2.642  19.718  0.00  0.00    +0.023 C 
ATOM      8  C   LIG    1       34.763  -2.213  18.660  0.00  0.00    +0.041 C 
ATOM      9  C   LIG    1       34.076  -1.871  17.331  0.00  0.00    +0.005 C 
ATOM     10  C   LIG    1       32.574  -2.168  17.157  0.00  0.00    +0.005 C 
ATOM     11  C   LIG    1       31.733  -2.569  18.380  0.00  0.00    +0.041 C 
ATOM     12  C   LIG    1       32.522  -2.800  19.601  0.00  0.00    +0.023 C 
ENDBRANCH   1   4
BRANCH   1  13
ATOM     13  O   LIG    1       33.156  -2.589  23.974  0.00  0.00    -0.444 OA
BRANCH  13  14
ATOM     14  C   LIG    1       32.047  -1.925  24.359  0.00  0.00    +0.313 C 
ATOM     15  O   LIG    1       31.369  -1.191  23.652  0.00  0.00    -0.250 OA
BRANCH  14  16
ATOM     16  C   LIG    1       31.724  -2.262  25.764  0.00  0.00    +0.111 C 
ATOM     17  C   LIG    1       30.700  -1.562  26.642  0.00  0.00    -0.014 C 
ATOM     18  C   LIG    1       29.971  -2.426  27.649  0.00  0.00    +0.012 C 
ATOM     19  C   LIG    1       29.833  -0.454  26.096  0.00  0.00    +0.012 C 
ATOM     20  C   LIG    1       32.183  -1.351  26.891  0.00  0.00    +0.032 C 
BRANCH  20  21
ATOM     21  C   LIG    1       32.870  -0.088  26.574  0.00  0.00    -0.023 C 
ATOM     22  C   LIG    1       32.952   1.007  27.357  0.00  0.00    -0.079 C 
ATOM     23  C   LIG    1       33.694   2.236  26.908  0.00  0.00    +0.038 C 
ATOM     24  C   LIG    1       32.322   1.117  28.718  0.00  0.00    +0.038 C 
ENDBRANCH  20  21
ENDBRANCH  14  16
ENDBRANCH  13  14
ENDBRANCH   1  13
TORSDOF 5
ENDMDL
MODEL 2
REMARK VINA RESULT:      -8.1      0.135      1.818
REMARK  Name = 
REMARK                            x       y       z     vdW  Elec       q    Type
REMARK                         _______ _______ _______ _____ _____    ______ ____
ROOT
ATOM      1  C   LIG    1       32.840  -3.682  23.197  0.00  0.00    +0.352 C 
ENDROOT
BRANCH   1   4
ATOM      2  O   LIG    1       35.190  -3.018  21.629  0.00  0.00    -0.270 OA
ATOM      3  C   LIG    1       34.064  -3.035  21.167  0.00  0.00    +0.252 C 
ATOM      4  N   LIG    1       32.894  -3.323  21.796  0.00  0.00    -0.200 N 
ATOM      5  C   LIG    1       31.851  -3.224  20.932  0.00  0.00    +0.252 C 
ATOM      6  O   LIG    1       30.658  -3.398  21.101  0.00  0.00    -0.270 OA
ATOM      7  C   LIG    1       32.418  -2.840  19.635  0.00  0.00    +0.023 C 
ATOM      8  C   LIG    1       31.645  -2.623  18.402  0.00  0.00    +0.041 C 
ATOM      9  C   LIG    1       32.507  -2.300  17.175  0.00  0.00    +0.005 C 
ATOM     10  C   LIG    1       34.018  -2.054  17.356  0.00  0.00    +0.005 C 
ATOM     11  C   LIG    1       34.682  -2.372  18.705  0.00  0.00    +0.041 C 
ATOM     12  C   LIG    1       33.734  -2.731  19.771  0.00  0.00    +0.023 C 
ENDBRANCH   1   4
BRANCH   1  13
ATOM     13  O   LIG    1       33.102  -2.544  23.999  0.00  0.00    -0.444 OA
BRANCH  13  14
ATOM     14  C   LIG    1       32.013  -1.860  24.407  0.00  0.00    +0.313 C 
ATOM     15  O   LIG    1       31.348  -1.095  23.721  0.00  0.00    -0.250 OA
BRANCH  14  16
ATOM     16  C   LIG    1       31.695  -2.217  25.808  0.00  0.00    +0.111 C 
ATOM     17  C   LIG    1       30.683  -1.519  26.704  0.00  0.00    -0.014 C 
ATOM     18  C   LIG    1       29.950  -2.391  27.701  0.00  0.00    +0.012 C 
ATOM     19  C   LIG    1       29.827  -0.392  26.181  0.00  0.00    +0.012 C 
ATOM     20  C   LIG    1       32.170  -1.330  26.948  0.00  0.00    +0.032 C 
BRANCH  20  21
ATOM     21  C   LIG    1       32.870  -0.071  26.648  0.00  0.00    -0.023 C 
ATOM     22  C   LIG    1       32.935   1.026  27.431  0.00  0.00    -0.079 C 
ATOM     23  C   LIG    1       33.695   2.251  27.001  0.00  0.00    +0.038 C 
ATOM     24  C   LIG    1       32.270   1.140  28.775  0.00  0.00    +0.038 C 
ENDBRANCH  20  21
ENDBRANCH  14  16
ENDBRANCH  13  14
ENDBRANCH   1  13
TORSDOF 5
ENDMDL
MODEL 3
REMARK VINA RESULT:      -8.1      1.036      3.133
REMARK  Name = 
REMARK                            x       y       z     vdW  Elec       q    Type
REMARK                         _______ _______ _______ _____ _____    ______ ____
ROOT
ATOM      1  C   LIG    1       32.867  -3.442  23.143  0.00  0.00    +0.352 C 
ENDROOT
BRANCH   1   4
ATOM      2  O   LIG    1       35.212  -2.889  21.526  0.00  0.00    -0.270 OA
ATOM      3  C   LIG    1       34.086  -2.942  21.069  0.00  0.00    +0.252 C 
ATOM      4  N   LIG    1       32.918  -3.186  21.720  0.00  0.00    -0.200 N 
ATOM      5  C   LIG    1       31.872  -3.154  20.853  0.00  0.00    +0.252 C 
ATOM      6  O   LIG    1       30.680  -3.318  21.036  0.00  0.00    -0.270 OA
ATOM      7  C   LIG    1       32.436  -2.865  19.530  0.00  0.00    +0.023 C 
ATOM      8  C   LIG    1       31.660  -2.741  18.286  0.00  0.00    +0.041 C 
ATOM      9  C   LIG    1       32.520  -2.506  17.037  0.00  0.00    +0.005 C 
ATOM     10  C   LIG    1       34.030  -2.244  17.196  0.00  0.00    +0.005 C 
ATOM     11  C   LIG    1       34.698  -2.461  18.564  0.00  0.00    +0.041 C 
ATOM     12  C   LIG    1       33.753  -2.743  19.656  0.00  0.00    +0.023 C 
ENDBRANCH   1   4
BRANCH   1  13
ATOM     13  O   LIG    1       32.244  -2.358  23.808  0.00  0.00    -0.444 OA
BRANCH  13  14
ATOM     14  C   LIG    1       32.419  -2.319  25.145  0.00  0.00    +0.313 C 
ATOM     15  O   LIG    1       32.592  -3.287  25.875  0.00  0.00    -0.250 OA
BRANCH  14  16
ATOM     16  C   LIG    1       32.434  -0.913  25.607  0.00  0.00    +0.111 C 
ATOM     17  C   LIG    1       32.271  -0.437  27.042  0.00  0.00    -0.014 C 
ATOM     18  C   LIG    1       33.040   0.807  27.433  0.00  0.00    +0.012 C 
ATOM     19  C   LIG    1       32.147  -1.421  28.179  0.00  0.00    +0.012 C 
ATOM     20  C   LIG    1       31.143  -0.240  26.045  0.00  0.00    +0.032 C 
BRANCH  20  21
ATOM     21  C   LIG    1       29.895  -1.019  26.092  0.00  0.00    -0.023 C 
ATOM     22  C   LIG    1       28.670  -0.565  26.425  0.00  0.00    -0.079 C 
ATOM     23  C   LIG    1       27.472  -1.475  26.428  0.00  0.00    +0.038 C 
ATOM     24  C   LIG    1       28.379   0.856  26.824  0.00  0.00    +0.038 C 
ENDBRANCH  20  21
ENDBRANCH  14  16
ENDBRANCH  13  14
ENDBRANCH   1  13
TORSDOF 5
ENDMDL
MODEL 4
REMARK VINA RESULT:      -8.0      1.016      2.538
REMARK  Name = 
REMARK                            x       y       z     vdW  Elec       q    Type
REMARK                         _______ _______ _______ _____ _____    ______ ____
ROOT
ATOM      1  C   LIG    1       32.955  -3.452  23.128  0.00  0.00    +0.352 C 
ENDROOT
BRANCH   1   4
ATOM      2  O   LIG    1       30.855  -3.384  21.127  0.00  0.00    -0.270 OA
ATOM      3  C   LIG    1       32.023  -3.157  20.873  0.00  0.00    +0.252 C 
ATOM      4  N   LIG    1       33.089  -3.163  21.716  0.00  0.00    -0.200 N 
ATOM      5  C   LIG    1       34.231  -2.865  21.043  0.00  0.00    +0.252 C 
ATOM      6  O   LIG    1       35.382  -2.773  21.430  0.00  0.00    -0.270 OA
ATOM      7  C   LIG    1       33.847  -2.649  19.645  0.00  0.00    +0.023 C 
ATOM      8  C   LIG    1       34.772  -2.299  18.556  0.00  0.00    +0.041 C 
ATOM      9  C   LIG    1       34.083  -2.061  17.206  0.00  0.00    +0.005 C 
ATOM     10  C   LIG    1       32.582  -2.373  17.057  0.00  0.00    +0.005 C 
ATOM     11  C   LIG    1       31.743  -2.682  18.308  0.00  0.00    +0.041 C 
ATOM     12  C   LIG    1       32.534  -2.818  19.542  0.00  0.00    +0.023 C 
ENDBRANCH   1   4
BRANCH   1  13
ATOM     13  O   LIG    1       32.303  -2.377  23.782  0.00  0.00    -0.444 OA
BRANCH  13  14
ATOM     14  C   LIG    1       32.449  -2.339  25.122  0.00  0.00    +0.313 C 
ATOM     15  O   LIG    1       32.588  -3.308  25.856  0.00  0.00    -0.250 OA
BRANCH  14  16
ATOM     16  C   LIG    1       32.479  -0.932  25.582  0.00  0.00    +0.111 C 
ATOM     17  C   LIG    1       32.318  -0.453  27.016  0.00  0.00    -0.014 C 
ATOM     18  C   LIG    1       33.100   0.782  27.408  0.00  0.00    +0.012 C 
ATOM     19  C   LIG    1       32.179  -1.434  28.154  0.00  0.00    +0.012 C 
ATOM     20  C   LIG    1       31.194  -0.244  26.016  0.00  0.00    +0.032 C 
BRANCH  20  21
ATOM     21  C   LIG    1       29.937  -1.009  26.061  0.00  0.00    -0.023 C 
ATOM     22  C   LIG    1       28.720  -0.544  26.406  0.00  0.00    -0.079 C 
ATOM     23  C   LIG    1       27.511  -1.439  26.404  0.00  0.00    +0.038 C 
ATOM     24  C   LIG    1       28.449   0.875  26.823  0.00  0.00    +0.038 C 
ENDBRANCH  20  21
ENDBRANCH  14  16
ENDBRANCH  13  14
ENDBRANCH   1  13
TORSDOF 5
ENDMDL
MODEL 5
REMARK VINA RESULT:      -7.9      5.125      7.802
REMARK  Name = 
REMARK                            x       y       z     vdW  Elec       q    Type
REMARK                         _______ _______ _______ _____ _____    ______ ____
ROOT
ATOM      1  C   LIG    1       29.044   1.605  28.868  0.00  0.00    +0.352 C 
ENDROOT
BRANCH   1   4
ATOM      2  O   LIG    1       30.705   2.157  26.553  0.00  0.00    -0.270 OA
ATOM      3  C   LIG    1       31.159   1.862  27.643  0.00  0.00    +0.252 C 
ATOM      4  N   LIG    1       30.489   1.579  28.791  0.00  0.00    -0.200 N 
ATOM      5  C   LIG    1       31.361   1.291  29.793  0.00  0.00    +0.252 C 
ATOM      6  O   LIG    1       31.165   0.988  30.956  0.00  0.00    -0.270 OA
ATOM      7  C   LIG    1       32.706   1.405  29.221  0.00  0.00    +0.023 C 
ATOM      8  C   LIG    1       33.962   1.179  29.955  0.00  0.00    +0.041 C 
ATOM      9  C   LIG    1       35.224   1.441  29.124  0.00  0.00    +0.005 C 
ATOM     10  C   LIG    1       35.092   1.721  27.614  0.00  0.00    +0.005 C 
ATOM     11  C   LIG    1       33.702   1.976  27.009  0.00  0.00    +0.041 C 
ATOM     12  C   LIG    1       32.589   1.749  27.944  0.00  0.00    +0.023 C 
ENDBRANCH   1   4
BRANCH   1  13
ATOM     13  O   LIG    1       28.529   0.293  28.727  0.00  0.00    -0.444 OA
BRANCH  13  14
ATOM     14  C   LIG    1       27.836   0.061  27.593  0.00  0.00    +0.313 C 
ATOM     15  O   LIG    1       27.330   0.912  26.874  0.00  0.00    -0.250 OA
BRANCH  14  16
ATOM     16  C   LIG    1       27.827  -1.391  27.302  0.00  0.00    +0.111 C 
ATOM     17  C   LIG    1       28.841  -2.411  27.793  0.00  0.00    -0.014 C 
ATOM     18  C   LIG    1       28.316  -3.802  28.078  0.00  0.00    +0.012 C 
ATOM     19  C   LIG    1       29.957  -2.012  28.727  0.00  0.00    +0.012 C 
ATOM     20  C   LIG    1       28.841  -1.981  26.337  0.00  0.00    +0.032 C 
BRANCH  20  21
ATOM     21  C   LIG    1       29.888  -1.121  25.762  0.00  0.00    -0.023 C 
ATOM     22  C   LIG    1       31.161  -1.469  25.487  0.00  0.00    -0.079 C 
ATOM     23  C   LIG    1       32.131  -0.485  24.893  0.00  0.00    +0.038 C 
ATOM     24  C   LIG    1       31.733  -2.837  25.742  0.00  0.00    +0.038 C 
ENDBRANCH  20  21
ENDBRANCH  14  16
ENDBRANCH  13  14
ENDBRANCH   1  13
TORSDOF 5
ENDMDL
MODEL 6
REMARK VINA RESULT:      -7.5      5.168      7.663
REMARK  Name = 
REMARK                            x       y       z     vdW  Elec       q    Type
REMARK                         _______ _______ _______ _____ _____    ______ ____
ROOT
ATOM      1  C   LIG    1       29.525   1.580  26.387  0.00  0.00    +0.352 C 
ENDROOT
BRANCH   1   4
ATOM      2  O   LIG    1       29.448   1.404  29.283  0.00  0.00    -0.270 OA
ATOM      3  C   LIG    1       30.484   1.450  28.646  0.00  0.00    +0.252 C 
ATOM      4  N   LIG    1       30.647   1.538  27.299  0.00  0.00    -0.200 N 
ATOM      5  C   LIG    1       31.968   1.571  26.980  0.00  0.00    +0.252 C 
ATOM      6  O   LIG    1       32.524   1.647  25.900  0.00  0.00    -0.270 OA
ATOM      7  C   LIG    1       32.705   1.495  28.246  0.00  0.00    +0.023 C 
ATOM      8  C   LIG    1       34.170   1.498  28.375  0.00  0.00    +0.041 C 
ATOM      9  C   LIG    1       34.669   1.335  29.817  0.00  0.00    +0.005 C 
ATOM     10  C   LIG    1       33.654   1.368  30.976  0.00  0.00    +0.005 C 
ATOM     11  C   LIG    1       32.149   1.318  30.669  0.00  0.00    +0.041 C 
ATOM     12  C   LIG    1       31.825   1.419  29.237  0.00  0.00    +0.023 C 
ENDBRANCH   1   4
BRANCH   1  13
ATOM     13  O   LIG    1       28.797   0.367  26.459  0.00  0.00    -0.444 OA
BRANCH  13  14
ATOM     14  C   LIG    1       29.322  -0.666  25.769  0.00  0.00    +0.313 C 
ATOM     15  O   LIG    1       30.226  -0.594  24.946  0.00  0.00    -0.250 OA
BRANCH  14  16
ATOM     16  C   LIG    1       28.684  -1.931  26.199  0.00  0.00    +0.111 C 
ATOM     17  C   LIG    1       27.903  -2.150  27.484  0.00  0.00    -0.014 C 
ATOM     18  C   LIG    1       26.747  -3.125  27.415  0.00  0.00    +0.012 C 
ATOM     19  C   LIG    1       27.643  -1.012  28.441  0.00  0.00    +0.012 C 
ATOM     20  C   LIG    1       29.291  -2.746  27.329  0.00  0.00    +0.032 C 
BRANCH  20  21
ATOM     21  C   LIG    1       30.464  -2.229  28.052  0.00  0.00    -0.023 C 
ATOM     22  C   LIG    1       31.756  -2.342  27.685  0.00  0.00    -0.079 C 
ATOM     23  C   LIG    1       32.862  -1.759  28.521  0.00  0.00    +0.038 C 
ATOM     24  C   LIG    1       32.217  -3.050  26.440  0.00  0.00    +0.038 C 
ENDBRANCH  20  21
ENDBRANCH  14  16
ENDBRANCH  13  14
ENDBRANCH   1  13
TORSDOF 5
ENDMDL
MODEL 7
REMARK VINA RESULT:      -7.2      1.006      2.315
REMARK  Name = 
REMARK                            x       y       z     vdW  Elec       q    Type
REMARK                         _______ _______ _______ _____ _____    ______ ____
ROOT
ATOM      1  C   LIG    1       33.267  -3.560  23.328  0.00  0.00    +0.352 C 
ENDROOT
BRANCH   1   4
ATOM      2  O   LIG    1       35.380  -2.785  21.496  0.00  0.00    -0.270 OA
ATOM      3  C   LIG    1       34.217  -2.901  21.159  0.00  0.00    +0.252 C 
ATOM      4  N   LIG    1       33.146  -3.249  21.920  0.00  0.00    -0.200 N 
ATOM      5  C   LIG    1       32.012  -3.260  21.170  0.00  0.00    +0.252 C 
ATOM      6  O   LIG    1       30.860  -3.513  21.473  0.00  0.00    -0.270 OA
ATOM      7  C   LIG    1       32.408  -2.884  19.810  0.00  0.00    +0.023 C 
ATOM      8  C   LIG    1       31.494  -2.769  18.662  0.00  0.00    +0.041 C 
ATOM      9  C   LIG    1       32.195  -2.430  17.340  0.00  0.00    +0.005 C 
ATOM     10  C   LIG    1       33.693  -2.068  17.348  0.00  0.00    +0.005 C 
ATOM     11  C   LIG    1       34.519  -2.287  18.626  0.00  0.00    +0.041 C 
ATOM     12  C   LIG    1       33.719  -2.674  19.799  0.00  0.00    +0.023 C 
ENDBRANCH   1   4
BRANCH   1  13
ATOM     13  O   LIG    1       32.436  -2.700  24.087  0.00  0.00    -0.444 OA
BRANCH  13  14
ATOM     14  C   LIG    1       32.373  -2.970  25.407  0.00  0.00    +0.313 C 
ATOM     15  O   LIG    1       33.135  -3.701  26.026  0.00  0.00    -0.250 OA
BRANCH  14  16
ATOM     16  C   LIG    1       31.272  -2.197  26.023  0.00  0.00    +0.111 C 
ATOM     17  C   LIG    1       31.053  -0.697  25.907  0.00  0.00    -0.014 C 
ATOM     18  C   LIG    1       29.616  -0.223  25.893  0.00  0.00    +0.012 C 
ATOM     19  C   LIG    1       31.952   0.156  25.047  0.00  0.00    +0.012 C 
ATOM     20  C   LIG    1       31.548  -1.293  27.214  0.00  0.00    +0.032 C 
BRANCH  20  21
ATOM     21  C   LIG    1       32.929  -1.120  27.694  0.00  0.00    -0.023 C 
ATOM     22  C   LIG    1       33.429  -0.056  28.353  0.00  0.00    -0.079 C 
ATOM     23  C   LIG    1       34.867  -0.013  28.792  0.00  0.00    +0.038 C 
ATOM     24  C   LIG    1       32.629   1.168  28.705  0.00  0.00    +0.038 C 
ENDBRANCH  20  21
ENDBRANCH  14  16
ENDBRANCH  13  14
ENDBRANCH   1  13
TORSDOF 5
ENDMDL
MODEL 8
REMARK VINA RESULT:      -7.1      6.008      8.109
REMARK  Name = 
REMARK                            x       y       z     vdW  Elec       q    Type
REMARK                         _______ _______ _______ _____ _____    ______ ____
ROOT
ATOM      1  C   LIG    1       36.857  -1.839  15.455  0.00  0.00    +0.352 C 
ENDROOT
BRANCH   1   4
ATOM      2  O   LIG    1       35.616  -4.461  15.372  0.00  0.00    -0.270 OA
ATOM      3  C   LIG    1       35.065  -3.478  15.830  0.00  0.00    +0.252 C 
ATOM      4  N   LIG    1       35.537  -2.206  15.920  0.00  0.00    -0.200 N 
ATOM      5  C   LIG    1       34.610  -1.393  16.491  0.00  0.00    +0.252 C 
ATOM      6  O   LIG    1       34.643  -0.203  16.743  0.00  0.00    -0.270 OA
ATOM      7  C   LIG    1       33.446  -2.232  16.791  0.00  0.00    +0.023 C 
ATOM      8  C   LIG    1       32.201  -1.763  17.420  0.00  0.00    +0.041 C 
ATOM      9  C   LIG    1       31.178  -2.876  17.682  0.00  0.00    +0.005 C 
ATOM     10  C   LIG    1       31.438  -4.289  17.125  0.00  0.00    +0.005 C 
ATOM     11  C   LIG    1       32.815  -4.630  16.533  0.00  0.00    +0.041 C 
ATOM     12  C   LIG    1       33.716  -3.474  16.403  0.00  0.00    +0.023 C 
ENDBRANCH   1   4
BRANCH   1  13
ATOM     13  O   LIG    1       37.654  -1.417  16.547  0.00  0.00    -0.444 OA
BRANCH  13  14
ATOM     14  C   LIG    1       38.411  -2.377  17.118  0.00  0.00    +0.313 C 
ATOM     15  O   LIG    1       38.543  -3.523  16.711  0.00  0.00    -0.250 OA
BRANCH  14  16
ATOM     16  C   LIG    1       39.119  -1.822  18.294  0.00  0.00    +0.111 C 
ATOM     17  C   LIG    1       39.768  -2.623  19.411  0.00  0.00    -0.014 C 
ATOM     18  C   LIG    1       41.015  -2.029  20.032  0.00  0.00    +0.012 C 
ATOM     19  C   LIG    1       39.805  -4.130  19.369  0.00  0.00    +0.012 C 
ATOM     20  C   LIG    1       38.472  -1.874  19.668  0.00  0.00    +0.032 C 
BRANCH  20  21
ATOM     21  C   LIG    1       37.180  -2.558  19.840  0.00  0.00    -0.023 C 
ATOM     22  C   LIG    1       35.966  -1.980  19.942  0.00  0.00    -0.079 C 
ATOM     23  C   LIG    1       34.719  -2.804  20.112  0.00  0.00    +0.038 C 
ATOM     24  C   LIG    1       35.736  -0.494  19.905  0.00  0.00    +0.038 C 
ENDBRANCH  20  21
ENDBRANCH  14  16
ENDBRANCH  13  14
ENDBRANCH   1  13
TORSDOF 5
ENDMDL
MODEL 9
REMARK VINA RESULT:      -7.0      1.962      7.611
REMARK  Name = 
REMARK                            x       y       z     vdW  Elec       q    Type
REMARK                         _______ _______ _______ _____ _____    ______ ____
ROOT
ATOM      1  C   LIG    1       33.552  -2.856  23.968  0.00  0.00    +0.352 C 
ENDROOT
BRANCH   1   4
ATOM      2  O   LIG    1       32.865  -3.678  26.665  0.00  0.00    -0.270 OA
ATOM      3  C   LIG    1       32.281  -2.792  26.070  0.00  0.00    +0.252 C 
ATOM      4  N   LIG    1       32.506  -2.324  24.814  0.00  0.00    -0.200 N 
ATOM      5  C   LIG    1       31.632  -1.328  24.512  0.00  0.00    +0.252 C 
ATOM      6  O   LIG    1       31.503  -0.661  23.502  0.00  0.00    -0.270 OA
ATOM      7  C   LIG    1       30.778  -1.151  25.691  0.00  0.00    +0.023 C 
ATOM      8  C   LIG    1       29.688  -0.170  25.809  0.00  0.00    +0.041 C 
ATOM      9  C   LIG    1       29.009  -0.156  27.185  0.00  0.00    +0.005 C 
ATOM     10  C   LIG    1       29.373  -1.238  28.219  0.00  0.00    +0.005 C 
ATOM     11  C   LIG    1       30.574  -2.162  27.960  0.00  0.00    +0.041 C 
ATOM     12  C   LIG    1       31.165  -2.017  26.620  0.00  0.00    +0.023 C 
ENDBRANCH   1   4
BRANCH   1  13
ATOM     13  O   LIG    1       33.061  -3.958  23.225  0.00  0.00    -0.444 OA
BRANCH  13  14
ATOM     14  C   LIG    1       32.703  -3.685  21.953  0.00  0.00    +0.313 C 
ATOM     15  O   LIG    1       31.603  -3.297  21.585  0.00  0.00    -0.250 OA
BRANCH  14  16
ATOM     16  C   LIG    1       33.867  -3.868  21.056  0.00  0.00    +0.111 C 
ATOM     17  C   LIG    1       34.668  -2.762  20.389  0.00  0.00    -0.014 C 
ATOM     18  C   LIG    1       36.148  -3.021  20.196  0.00  0.00    +0.012 C 
ATOM     19  C   LIG    1       34.367  -1.309  20.661  0.00  0.00    +0.012 C 
ATOM     20  C   LIG    1       33.726  -3.621  19.563  0.00  0.00    +0.032 C 
BRANCH  20  21
ATOM     21  C   LIG    1       32.454  -3.113  19.026  0.00  0.00    -0.023 C 
ATOM     22  C   LIG    1       32.287  -2.346  17.929  0.00  0.00    -0.079 C 
ATOM     23  C   LIG    1       30.920  -1.899  17.487  0.00  0.00    +0.038 C 
ATOM     24  C   LIG    1       33.416  -1.864  17.060  0.00  0.00    +0.038 C 
ENDBRANCH  20  21
ENDBRANCH  14  16
ENDBRANCH  13  14
ENDBRANCH   1  13
TORSDOF 5
ENDMDL
