MODEL 1
REMARK VINA RESULT:      -7.5      0.000      0.000
REMARK  Name = 
REMARK                            x       y       z     vdW  Elec       q    Type
REMARK                         _______ _______ _______ _____ _____    ______ ____
ROOT
ATOM      1  C   LIG    1       68.232  49.804  98.186  0.00  0.00    +0.352 C 
ENDROOT
BRANCH   1   4
ATOM      2  O   LIG    1       70.455  48.463  96.889  0.00  0.00    -0.270 OA
ATOM      3  C   LIG    1       69.470  48.850  96.289  0.00  0.00    +0.252 C 
ATOM      4  N   LIG    1       68.376  49.490  96.781  0.00  0.00    -0.200 N 
ATOM      5  C   LIG    1       67.493  49.760  95.783  0.00  0.00    +0.252 C 
ATOM      6  O   LIG    1       66.410  50.314  95.808  0.00  0.00    -0.270 OA
ATOM      7  C   LIG    1       68.088  49.240  94.548  0.00  0.00    +0.023 C 
ATOM      8  C   LIG    1       67.471  49.313  93.214  0.00  0.00    +0.041 C 
ATOM      9  C   LIG    1       68.286  48.621  92.113  0.00  0.00    +0.005 C 
ATOM     10  C   LIG    1       69.699  48.096  92.433  0.00  0.00    +0.005 C 
ATOM     11  C   LIG    1       70.178  48.049  93.893  0.00  0.00    +0.041 C 
ATOM     12  C   LIG    1       69.261  48.694  94.847  0.00  0.00    +0.023 C 
ENDBRANCH   1   4
BRANCH   1  13
ATOM     13  O   LIG    1       67.185  49.035  98.750  0.00  0.00    -0.444 OA
BRANCH  13  14
ATOM     14  C   LIG    1       67.573  47.930  99.421  0.00  0.00    +0.313 C 
ATOM     15  O   LIG    1       68.663  47.758  99.949  0.00  0.00    -0.250 OA
BRANCH  14  16
ATOM     16  C   LIG    1       66.453  46.964  99.481  0.00  0.00    +0.111 C 
ATOM     17  C   LIG    1       66.530  45.533  99.991  0.00  0.00    -0.014 C 
ATOM     18  C   LIG    1       65.296  44.997 100.686  0.00  0.00    +0.012 C 
ATOM     19  C   LIG    1       67.807  44.981 100.573  0.00  0.00    +0.012 C 
ATOM     20  C   LIG    1       66.395  45.802  98.502  0.00  0.00    +0.032 C 
BRANCH  20  21
ATOM     21  C   LIG    1       67.500  45.592  97.553  0.00  0.00    -0.023 C 
ATOM     22  C   LIG    1       67.437  45.669  96.208  0.00  0.00    -0.079 C 
ATOM     23  C   LIG    1       68.653  45.434  95.354  0.00  0.00    +0.038 C 
ATOM     24  C   LIG    1       66.182  45.982  95.441  0.00  0.00    +0.038 C 
ENDBRANCH  20  21
ENDBRANCH  14  16
ENDBRANCH  13  14
ENDBRANCH   1  13
TORSDOF 5
ENDMDL
MODEL 2
REMARK VINA RESULT:      -7.3      1.631      5.402
REMARK  Name = 
REMARK                            x       y       z     vdW  Elec       q    Type
REMARK                         _______ _______ _______ _____ _____    ______ ____
ROOT
ATOM      1  C   LIG    1       69.578  49.499  99.075  0.00  0.00    +0.352 C 
ENDROOT
BRANCH   1   4
ATOM      2  O   LIG    1       66.904  49.318 100.188  0.00  0.00    -0.270 OA
ATOM      3  C   LIG    1       67.548  48.345  99.841  0.00  0.00    +0.252 C 
ATOM      4  N   LIG    1       68.800  48.303  99.315  0.00  0.00    -0.200 N 
ATOM      5  C   LIG    1       69.169  47.019  99.066  0.00  0.00    +0.252 C 
ATOM      6  O   LIG    1       70.199  46.562  98.604  0.00  0.00    -0.270 OA
ATOM      7  C   LIG    1       68.041  46.174  99.471  0.00  0.00    +0.023 C 
ATOM      8  C   LIG    1       68.003  44.706  99.375  0.00  0.00    +0.041 C 
ATOM      9  C   LIG    1       66.666  44.089  99.804  0.00  0.00    +0.005 C 
ATOM     10  C   LIG    1       65.590  44.985 100.447  0.00  0.00    +0.005 C 
ATOM     11  C   LIG    1       65.765  46.513 100.428  0.00  0.00    +0.041 C 
ATOM     12  C   LIG    1       67.074  46.961  99.928  0.00  0.00    +0.023 C 
ENDBRANCH   1   4
BRANCH   1  13
ATOM     13  O   LIG    1       69.091  50.170  97.926  0.00  0.00    -0.444 OA
BRANCH  13  14
ATOM     14  C   LIG    1       69.045  49.431  96.799  0.00  0.00    +0.313 C 
ATOM     15  O   LIG    1       70.001  49.141  96.092  0.00  0.00    -0.250 OA
BRANCH  14  16
ATOM     16  C   LIG    1       67.661  48.960  96.565  0.00  0.00    +0.111 C 
ATOM     17  C   LIG    1       67.257  47.616  95.983  0.00  0.00    -0.014 C 
ATOM     18  C   LIG    1       65.971  47.012  96.506  0.00  0.00    +0.012 C 
ATOM     19  C   LIG    1       68.291  46.570  95.646  0.00  0.00    +0.012 C 
ATOM     20  C   LIG    1       67.113  48.877  95.150  0.00  0.00    +0.032 C 
BRANCH  20  21
ATOM     21  C   LIG    1       67.991  49.181  94.009  0.00  0.00    -0.023 C 
ATOM     22  C   LIG    1       67.901  48.677  92.761  0.00  0.00    -0.079 C 
ATOM     23  C   LIG    1       68.868  49.079  91.682  0.00  0.00    +0.038 C 
ATOM     24  C   LIG    1       66.858  47.682  92.330  0.00  0.00    +0.038 C 
ENDBRANCH  20  21
ENDBRANCH  14  16
ENDBRANCH  13  14
ENDBRANCH   1  13
TORSDOF 5
ENDMDL
MODEL 3
REMARK VINA RESULT:      -7.2      0.120      1.816
REMARK  Name = 
REMARK                            x       y       z     vdW  Elec       q    Type
REMARK                         _______ _______ _______ _____ _____    ______ ____
ROOT
ATOM      1  C   LIG    1       68.251  49.738  98.101  0.00  0.00    +0.352 C 
ENDROOT
BRANCH   1   4
ATOM      2  O   LIG    1       66.550  50.360  95.833  0.00  0.00    -0.270 OA
ATOM      3  C   LIG    1       67.601  49.755  95.731  0.00  0.00    +0.252 C 
ATOM      4  N   LIG    1       68.475  49.403  96.711  0.00  0.00    -0.200 N 
ATOM      5  C   LIG    1       69.531  48.727  96.188  0.00  0.00    +0.252 C 
ATOM      6  O   LIG    1       70.513  48.246  96.724  0.00  0.00    -0.270 OA
ATOM      7  C   LIG    1       69.302  48.649  94.742  0.00  0.00    +0.023 C 
ATOM      8  C   LIG    1       70.201  48.001  93.774  0.00  0.00    +0.041 C 
ATOM      9  C   LIG    1       69.746  48.134  92.315  0.00  0.00    +0.005 C 
ATOM     10  C   LIG    1       68.363  48.738  92.006  0.00  0.00    +0.005 C 
ATOM     11  C   LIG    1       67.564  49.419  93.129  0.00  0.00    +0.041 C 
ATOM     12  C   LIG    1       68.157  49.263  94.467  0.00  0.00    +0.023 C 
ENDBRANCH   1   4
BRANCH   1  13
ATOM     13  O   LIG    1       67.187  48.961  98.621  0.00  0.00    -0.444 OA
BRANCH  13  14
ATOM     14  C   LIG    1       67.554  47.910  99.382  0.00  0.00    +0.313 C 
ATOM     15  O   LIG    1       68.625  47.783  99.962  0.00  0.00    -0.250 OA
BRANCH  14  16
ATOM     16  C   LIG    1       66.438  46.941  99.469  0.00  0.00    +0.111 C 
ATOM     17  C   LIG    1       66.522  45.522 100.006  0.00  0.00    -0.014 C 
ATOM     18  C   LIG    1       65.295  44.995 100.719  0.00  0.00    +0.012 C 
ATOM     19  C   LIG    1       67.805  44.984 100.590  0.00  0.00    +0.012 C 
ATOM     20  C   LIG    1       66.376  45.761  98.513  0.00  0.00    +0.032 C 
BRANCH  20  21
ATOM     21  C   LIG    1       67.476  45.536  97.561  0.00  0.00    -0.023 C 
ATOM     22  C   LIG    1       67.426  45.672  96.220  0.00  0.00    -0.079 C 
ATOM     23  C   LIG    1       68.634  45.412  95.362  0.00  0.00    +0.038 C 
ATOM     24  C   LIG    1       66.193  46.079  95.462  0.00  0.00    +0.038 C 
ENDBRANCH  20  21
ENDBRANCH  14  16
ENDBRANCH  13  14
ENDBRANCH   1  13
TORSDOF 5
ENDMDL
MODEL 4
REMARK VINA RESULT:      -7.2      1.904      3.868
REMARK  Name = 
REMARK                            x       y       z     vdW  Elec       q    Type
REMARK                         _______ _______ _______ _____ _____    ______ ____
ROOT
ATOM      1  C   LIG    1       67.134  45.415  97.479  0.00  0.00    +0.352 C 
ENDROOT
BRANCH   1   4
ATOM      2  O   LIG    1       65.544  46.171  95.173  0.00  0.00    -0.270 OA
ATOM      3  C   LIG    1       66.726  46.438  95.282  0.00  0.00    +0.252 C 
ATOM      4  N   LIG    1       67.571  46.137  96.303  0.00  0.00    -0.200 N 
ATOM      5  C   LIG    1       68.819  46.608  96.044  0.00  0.00    +0.252 C 
ATOM      6  O   LIG    1       69.845  46.544  96.695  0.00  0.00    -0.270 OA
ATOM      7  C   LIG    1       68.752  47.270  94.737  0.00  0.00    +0.023 C 
ATOM      8  C   LIG    1       69.881  47.928  94.061  0.00  0.00    +0.041 C 
ATOM      9  C   LIG    1       69.506  48.603  92.736  0.00  0.00    +0.005 C 
ATOM     10  C   LIG    1       68.096  48.390  92.151  0.00  0.00    +0.005 C 
ATOM     11  C   LIG    1       67.012  47.717  93.009  0.00  0.00    +0.041 C 
ATOM     12  C   LIG    1       67.508  47.174  94.285  0.00  0.00    +0.023 C 
ENDBRANCH   1   4
BRANCH   1  13
ATOM     13  O   LIG    1       67.934  45.774  98.592  0.00  0.00    -0.444 OA
BRANCH  13  14
ATOM     14  C   LIG    1       67.447  46.773  99.357  0.00  0.00    +0.313 C 
ATOM     15  O   LIG    1       66.318  46.833  99.825  0.00  0.00    -0.250 OA
BRANCH  14  16
ATOM     16  C   LIG    1       68.509  47.774  99.606  0.00  0.00    +0.111 C 
ATOM     17  C   LIG    1       68.324  49.133 100.263  0.00  0.00    -0.014 C 
ATOM     18  C   LIG    1       69.479  49.640 101.101  0.00  0.00    +0.012 C 
ATOM     19  C   LIG    1       66.983  49.559 100.807  0.00  0.00    +0.012 C 
ATOM     20  C   LIG    1       68.574  49.040  98.768  0.00  0.00    +0.032 C 
BRANCH  20  21
ATOM     21  C   LIG    1       67.527  49.308  97.769  0.00  0.00    -0.023 C 
ATOM     22  C   LIG    1       67.660  50.010  96.625  0.00  0.00    -0.079 C 
ATOM     23  C   LIG    1       66.500  50.204  95.687  0.00  0.00    +0.038 C 
ATOM     24  C   LIG    1       68.942  50.659  96.181  0.00  0.00    +0.038 C 
ENDBRANCH  20  21
ENDBRANCH  14  16
ENDBRANCH  13  14
ENDBRANCH   1  13
TORSDOF 5
ENDMDL
MODEL 5
REMARK VINA RESULT:      -6.8      1.312      5.826
REMARK  Name = 
REMARK                            x       y       z     vdW  Elec       q    Type
REMARK                         _______ _______ _______ _____ _____    ______ ____
ROOT
ATOM      1  C   LIG    1       69.528  49.354  98.470  0.00  0.00    +0.352 C 
ENDROOT
BRANCH   1   4
ATOM      2  O   LIG    1       66.844  49.345  99.573  0.00  0.00    -0.270 OA
ATOM      3  C   LIG    1       67.484  48.330  99.372  0.00  0.00    +0.252 C 
ATOM      4  N   LIG    1       68.741  48.207  98.868  0.00  0.00    -0.200 N 
ATOM      5  C   LIG    1       69.103  46.899  98.804  0.00  0.00    +0.252 C 
ATOM      6  O   LIG    1       70.134  46.376  98.420  0.00  0.00    -0.270 OA
ATOM      7  C   LIG    1       67.967  46.126  99.314  0.00  0.00    +0.023 C 
ATOM      8  C   LIG    1       67.919  44.659  99.423  0.00  0.00    +0.041 C 
ATOM      9  C   LIG    1       66.575  44.115  99.922  0.00  0.00    +0.005 C 
ATOM     10  C   LIG    1       65.499  45.098 100.424  0.00  0.00    +0.005 C 
ATOM     11  C   LIG    1       65.684  46.607 100.193  0.00  0.00    +0.041 C 
ATOM     12  C   LIG    1       67.001  46.974  99.648  0.00  0.00    +0.023 C 
ENDBRANCH   1   4
BRANCH   1  13
ATOM     13  O   LIG    1       70.069  49.145  97.177  0.00  0.00    -0.444 OA
BRANCH  13  14
ATOM     14  C   LIG    1       69.207  49.319  96.154  0.00  0.00    +0.313 C 
ATOM     15  O   LIG    1       68.222  50.045  96.160  0.00  0.00    -0.250 OA
BRANCH  14  16
ATOM     16  C   LIG    1       69.663  48.539  94.980  0.00  0.00    +0.111 C 
ATOM     17  C   LIG    1       69.013  48.525  93.606  0.00  0.00    -0.014 C 
ATOM     18  C   LIG    1       69.942  48.359  92.421  0.00  0.00    +0.012 C 
ATOM     19  C   LIG    1       67.830  49.407  93.294  0.00  0.00    +0.012 C 
ATOM     20  C   LIG    1       68.878  47.321  94.522  0.00  0.00    +0.032 C 
BRANCH  20  21
ATOM     21  C   LIG    1       67.616  46.972  95.194  0.00  0.00    -0.023 C 
ATOM     22  C   LIG    1       67.298  45.788  95.755  0.00  0.00    -0.079 C 
ATOM     23  C   LIG    1       65.965  45.568  96.418  0.00  0.00    +0.038 C 
ATOM     24  C   LIG    1       68.212  44.594  95.773  0.00  0.00    +0.038 C 
ENDBRANCH  20  21
ENDBRANCH  14  16
ENDBRANCH  13  14
ENDBRANCH   1  13
TORSDOF 5
ENDMDL
MODEL 6
REMARK VINA RESULT:      -6.7      1.221      5.792
REMARK  Name = 
REMARK                            x       y       z     vdW  Elec       q    Type
REMARK                         _______ _______ _______ _____ _____    ______ ____
ROOT
ATOM      1  C   LIG    1       68.724  49.990  97.632  0.00  0.00    +0.352 C 
ENDROOT
BRANCH   1   4
ATOM      2  O   LIG    1       70.057  48.707  99.868  0.00  0.00    -0.270 OA
ATOM      3  C   LIG    1       68.993  48.323  99.419  0.00  0.00    +0.252 C 
ATOM      4  N   LIG    1       68.279  48.834  98.381  0.00  0.00    -0.200 N 
ATOM      5  C   LIG    1       67.142  48.115  98.185  0.00  0.00    +0.252 C 
ATOM      6  O   LIG    1       66.250  48.245  97.367  0.00  0.00    -0.270 OA
ATOM      7  C   LIG    1       67.140  47.054  99.196  0.00  0.00    +0.023 C 
ATOM      8  C   LIG    1       66.089  46.036  99.356  0.00  0.00    +0.041 C 
ATOM      9  C   LIG    1       66.311  45.093 100.546  0.00  0.00    +0.005 C 
ATOM     10  C   LIG    1       67.638  45.158 101.326  0.00  0.00    +0.005 C 
ATOM     11  C   LIG    1       68.615  46.317 101.066  0.00  0.00    +0.041 C 
ATOM     12  C   LIG    1       68.237  47.178  99.934  0.00  0.00    +0.023 C 
ENDBRANCH   1   4
BRANCH   1  13
ATOM     13  O   LIG    1       69.476  49.576  96.505  0.00  0.00    -0.444 OA
BRANCH  13  14
ATOM     14  C   LIG    1       68.790  49.501  95.346  0.00  0.00    +0.313 C 
ATOM     15  O   LIG    1       67.717  50.041  95.111  0.00  0.00    -0.250 OA
BRANCH  14  16
ATOM     16  C   LIG    1       69.560  48.710  94.360  0.00  0.00    +0.111 C 
ATOM     17  C   LIG    1       69.206  48.512  92.895  0.00  0.00    -0.014 C 
ATOM     18  C   LIG    1       70.366  48.389  91.930  0.00  0.00    +0.012 C 
ATOM     19  C   LIG    1       68.014  49.205  92.281  0.00  0.00    +0.012 C 
ATOM     20  C   LIG    1       69.031  47.368  93.879  0.00  0.00    +0.032 C 
BRANCH  20  21
ATOM     21  C   LIG    1       67.709  46.902  94.329  0.00  0.00    -0.023 C 
ATOM     22  C   LIG    1       67.457  45.993  95.292  0.00  0.00    -0.079 C 
ATOM     23  C   LIG    1       66.049  45.610  95.657  0.00  0.00    +0.038 C 
ATOM     24  C   LIG    1       68.524  45.281  96.077  0.00  0.00    +0.038 C 
ENDBRANCH  20  21
ENDBRANCH  14  16
ENDBRANCH  13  14
ENDBRANCH   1  13
TORSDOF 5
ENDMDL
MODEL 7
REMARK VINA RESULT:      -6.6      1.971      3.718
REMARK  Name = 
REMARK                            x       y       z     vdW  Elec       q    Type
REMARK                         _______ _______ _______ _____ _____    ______ ____
ROOT
ATOM      1  C   LIG    1       66.621  45.760  96.534  0.00  0.00    +0.352 C 
ENDROOT
BRANCH   1   4
ATOM      2  O   LIG    1       65.621  46.692  93.974  0.00  0.00    -0.270 OA
ATOM      3  C   LIG    1       66.740  46.941  94.382  0.00  0.00    +0.252 C 
ATOM      4  N   LIG    1       67.319  46.561  95.551  0.00  0.00    -0.200 N 
ATOM      5  C   LIG    1       68.589  47.038  95.631  0.00  0.00    +0.252 C 
ATOM      6  O   LIG    1       69.430  46.920  96.503  0.00  0.00    -0.270 OA
ATOM      7  C   LIG    1       68.830  47.792  94.397  0.00  0.00    +0.023 C 
ATOM      8  C   LIG    1       70.082  48.488  94.059  0.00  0.00    +0.041 C 
ATOM      9  C   LIG    1       70.028  49.258  92.733  0.00  0.00    +0.005 C 
ATOM     10  C   LIG    1       68.800  49.099  91.815  0.00  0.00    +0.005 C 
ATOM     11  C   LIG    1       67.549  48.375  92.340  0.00  0.00    +0.041 C 
ATOM     12  C   LIG    1       67.730  47.740  93.654  0.00  0.00    +0.023 C 
ENDBRANCH   1   4
BRANCH   1  13
ATOM     13  O   LIG    1       65.942  46.602  97.449  0.00  0.00    -0.444 OA
BRANCH  13  14
ATOM     14  C   LIG    1       66.205  46.374  98.752  0.00  0.00    +0.313 C 
ATOM     15  O   LIG    1       65.433  46.560  99.683  0.00  0.00    -0.250 OA
BRANCH  14  16
ATOM     16  C   LIG    1       67.562  45.799  98.894  0.00  0.00    +0.111 C 
ATOM     17  C   LIG    1       68.158  45.210 100.162  0.00  0.00    -0.014 C 
ATOM     18  C   LIG    1       69.118  44.052  99.983  0.00  0.00    +0.012 C 
ATOM     19  C   LIG    1       67.342  45.093 101.426  0.00  0.00    +0.012 C 
ATOM     20  C   LIG    1       68.636  46.559  99.656  0.00  0.00    +0.032 C 
BRANCH  20  21
ATOM     21  C   LIG    1       68.297  47.825 100.326  0.00  0.00    -0.023 C 
ATOM     22  C   LIG    1       68.833  49.038 100.082  0.00  0.00    -0.079 C 
ATOM     23  C   LIG    1       68.388  50.257 100.843  0.00  0.00    +0.038 C 
ATOM     24  C   LIG    1       69.906  49.293  99.059  0.00  0.00    +0.038 C 
ENDBRANCH  20  21
ENDBRANCH  14  16
ENDBRANCH  13  14
ENDBRANCH   1  13
TORSDOF 5
ENDMDL
MODEL 8
REMARK VINA RESULT:      -6.4      1.975      3.320
REMARK  Name = 
REMARK                            x       y       z     vdW  Elec       q    Type
REMARK                         _______ _______ _______ _____ _____    ______ ____
ROOT
ATOM      1  C   LIG    1       66.676  45.753  96.534  0.00  0.00    +0.352 C 
ENDROOT
BRANCH   1   4
ATOM      2  O   LIG    1       69.350  46.880  96.525  0.00  0.00    -0.270 OA
ATOM      3  C   LIG    1       68.560  47.034  95.613  0.00  0.00    +0.252 C 
ATOM      4  N   LIG    1       67.289  46.564  95.505  0.00  0.00    -0.200 N 
ATOM      5  C   LIG    1       66.732  46.962  94.331  0.00  0.00    +0.252 C 
ATOM      6  O   LIG    1       65.627  46.756  93.864  0.00  0.00    -0.270 OA
ATOM      7  C   LIG    1       67.749  47.755  93.634  0.00  0.00    +0.023 C 
ATOM      8  C   LIG    1       67.576  48.387  92.316  0.00  0.00    +0.041 C 
ATOM      9  C   LIG    1       68.833  49.095  91.795  0.00  0.00    +0.005 C 
ATOM     10  C   LIG    1       70.055  49.247  92.722  0.00  0.00    +0.005 C 
ATOM     11  C   LIG    1       70.095  48.483  94.055  0.00  0.00    +0.041 C 
ATOM     12  C   LIG    1       68.838  47.796  94.392  0.00  0.00    +0.023 C 
ENDBRANCH   1   4
BRANCH   1  13
ATOM     13  O   LIG    1       65.950  46.575  97.431  0.00  0.00    -0.444 OA
BRANCH  13  14
ATOM     14  C   LIG    1       66.203  46.369  98.740  0.00  0.00    +0.313 C 
ATOM     15  O   LIG    1       65.428  46.586  99.662  0.00  0.00    -0.250 OA
BRANCH  14  16
ATOM     16  C   LIG    1       67.550  45.777  98.902  0.00  0.00    +0.111 C 
ATOM     17  C   LIG    1       68.121  45.184 100.180  0.00  0.00    -0.014 C 
ATOM     18  C   LIG    1       69.068  44.014 100.017  0.00  0.00    +0.012 C 
ATOM     19  C   LIG    1       67.287  45.082 101.433  0.00  0.00    +0.012 C 
ATOM     20  C   LIG    1       68.623  46.526  99.675  0.00  0.00    +0.032 C 
BRANCH  20  21
ATOM     21  C   LIG    1       68.292  47.798 100.337  0.00  0.00    -0.023 C 
ATOM     22  C   LIG    1       68.829  49.008 100.079  0.00  0.00    -0.079 C 
ATOM     23  C   LIG    1       68.392  50.234 100.832  0.00  0.00    +0.038 C 
ATOM     24  C   LIG    1       69.896  49.252  99.047  0.00  0.00    +0.038 C 
ENDBRANCH  20  21
ENDBRANCH  14  16
ENDBRANCH  13  14
ENDBRANCH   1  13
TORSDOF 5
ENDMDL
MODEL 9
REMARK VINA RESULT:      -6.4      1.229      5.927
REMARK  Name = 
REMARK                            x       y       z     vdW  Elec       q    Type
REMARK                         _______ _______ _______ _____ _____    ______ ____
ROOT
ATOM      1  C   LIG    1       68.526  50.210  97.669  0.00  0.00    +0.352 C 
ENDROOT
BRANCH   1   4
ATOM      2  O   LIG    1       66.360  48.321  97.264  0.00  0.00    -0.270 OA
ATOM      3  C   LIG    1       67.173  48.219  98.164  0.00  0.00    +0.252 C 
ATOM      4  N   LIG    1       68.220  49.035  98.457  0.00  0.00    -0.200 N 
ATOM      5  C   LIG    1       68.889  48.579  99.548  0.00  0.00    +0.252 C 
ATOM      6  O   LIG    1       69.867  49.020 100.123  0.00  0.00    -0.270 OA
ATOM      7  C   LIG    1       68.200  47.360  99.982  0.00  0.00    +0.023 C 
ATOM      8  C   LIG    1       68.588  46.530 101.133  0.00  0.00    +0.041 C 
ATOM      9  C   LIG    1       67.730  45.270 101.310  0.00  0.00    +0.005 C 
ATOM     10  C   LIG    1       66.477  45.078 100.432  0.00  0.00    +0.005 C 
ATOM     11  C   LIG    1       66.239  46.014  99.235  0.00  0.00    +0.041 C 
ATOM     12  C   LIG    1       67.181  47.141  99.157  0.00  0.00    +0.023 C 
ENDBRANCH   1   4
BRANCH   1  13
ATOM     13  O   LIG    1       69.333  49.853  96.561  0.00  0.00    -0.444 OA
BRANCH  13  14
ATOM     14  C   LIG    1       68.671  49.644  95.404  0.00  0.00    +0.313 C 
ATOM     15  O   LIG    1       67.591  50.131  95.098  0.00  0.00    -0.250 OA
BRANCH  14  16
ATOM     16  C   LIG    1       69.478  48.776  94.516  0.00  0.00    +0.111 C 
ATOM     17  C   LIG    1       69.152  48.417  93.076  0.00  0.00    -0.014 C 
ATOM     18  C   LIG    1       70.331  48.228  92.144  0.00  0.00    +0.012 C 
ATOM     19  C   LIG    1       67.953  49.009  92.378  0.00  0.00    +0.012 C 
ATOM     20  C   LIG    1       68.993  47.378  94.171  0.00  0.00    +0.032 C 
BRANCH  20  21
ATOM     21  C   LIG    1       67.677  46.923  94.650  0.00  0.00    -0.023 C 
ATOM     22  C   LIG    1       67.420  45.824  95.387  0.00  0.00    -0.079 C 
ATOM     23  C   LIG    1       66.020  45.479  95.815  0.00  0.00    +0.038 C 
ATOM     24  C   LIG    1       68.473  44.852  95.843  0.00  0.00    +0.038 C 
ENDBRANCH  20  21
ENDBRANCH  14  16
ENDBRANCH  13  14
ENDBRANCH   1  13
TORSDOF 5
ENDMDL
