MODEL 1
REMARK VINA RESULT:      -8.7      0.000      0.000
REMARK  Name = 
REMARK                            x       y       z     vdW  Elec       q    Type
REMARK                         _______ _______ _______ _____ _____    ______ ____
ROOT
ATOM      1  C   LIG    1       39.701  29.408   8.245  0.00  0.00    +0.352 C 
ENDROOT
BRANCH   1   4
ATOM      2  O   LIG    1       37.894  30.811  10.030  0.00  0.00    -0.270 OA
ATOM      3  C   LIG    1       38.360  31.314   9.026  0.00  0.00    +0.252 C 
ATOM      4  N   LIG    1       39.206  30.762   8.116  0.00  0.00    -0.200 N 
ATOM      5  C   LIG    1       39.490  31.651   7.128  0.00  0.00    +0.252 C 
ATOM      6  O   LIG    1       40.194  31.545   6.141  0.00  0.00    -0.270 OA
ATOM      7  C   LIG    1       38.756  32.879   7.447  0.00  0.00    +0.023 C 
ATOM      8  C   LIG    1       38.774  34.111   6.644  0.00  0.00    +0.041 C 
ATOM      9  C   LIG    1       37.969  35.265   7.256  0.00  0.00    +0.005 C 
ATOM     10  C   LIG    1       37.097  35.004   8.499  0.00  0.00    +0.005 C 
ATOM     11  C   LIG    1       37.229  33.670   9.252  0.00  0.00    +0.041 C 
ATOM     12  C   LIG    1       38.086  32.682   8.578  0.00  0.00    +0.023 C 
ENDBRANCH   1   4
BRANCH   1  13
ATOM     13  O   LIG    1       41.072  29.427   8.603  0.00  0.00    -0.444 OA
BRANCH  13  14
ATOM     14  C   LIG    1       41.351  29.983   9.800  0.00  0.00    +0.313 C 
ATOM     15  O   LIG    1       41.860  31.081   9.980  0.00  0.00    -0.250 OA
BRANCH  14  16
ATOM     16  C   LIG    1       40.890  29.088  10.886  0.00  0.00    +0.111 C 
ATOM     17  C   LIG    1       41.618  28.815  12.193  0.00  0.00    -0.014 C 
ATOM     18  C   LIG    1       40.752  28.567  13.410  0.00  0.00    +0.012 C 
ATOM     19  C   LIG    1       42.902  29.530  12.533  0.00  0.00    +0.012 C 
ATOM     20  C   LIG    1       41.574  27.749  11.112  0.00  0.00    +0.032 C 
BRANCH  20  21
ATOM     21  C   LIG    1       42.750  27.386  10.306  0.00  0.00    -0.023 C 
ATOM     22  C   LIG    1       43.575  26.338  10.505  0.00  0.00    -0.079 C 
ATOM     23  C   LIG    1       44.745  26.080   9.595  0.00  0.00    +0.038 C 
ATOM     24  C   LIG    1       43.423  25.349  11.628  0.00  0.00    +0.038 C 
ENDBRANCH  20  21
ENDBRANCH  14  16
ENDBRANCH  13  14
ENDBRANCH   1  13
TORSDOF 5
ENDMDL
MODEL 2
REMARK VINA RESULT:      -8.6      1.206      3.391
REMARK  Name = 
REMARK                            x       y       z     vdW  Elec       q    Type
REMARK                         _______ _______ _______ _____ _____    ______ ____
ROOT
ATOM      1  C   LIG    1       41.167  29.497   8.095  0.00  0.00    +0.352 C 
ENDROOT
BRANCH   1   4
ATOM      2  O   LIG    1       40.605  31.471   6.044  0.00  0.00    -0.270 OA
ATOM      3  C   LIG    1       40.066  31.473   7.135  0.00  0.00    +0.252 C 
ATOM      4  N   LIG    1       40.248  30.612   8.171  0.00  0.00    -0.200 N 
ATOM      5  C   LIG    1       39.460  30.959   9.223  0.00  0.00    +0.252 C 
ATOM      6  O   LIG    1       39.332  30.453  10.322  0.00  0.00    -0.270 OA
ATOM      7  C   LIG    1       38.711  32.149   8.808  0.00  0.00    +0.023 C 
ATOM      8  C   LIG    1       37.732  32.867   9.640  0.00  0.00    +0.041 C 
ATOM      9  C   LIG    1       37.045  34.036   8.923  0.00  0.00    +0.005 C 
ATOM     10  C   LIG    1       37.541  34.466   7.528  0.00  0.00    +0.005 C 
ATOM     11  C   LIG    1       38.541  33.577   6.772  0.00  0.00    +0.041 C 
ATOM     12  C   LIG    1       39.066  32.454   7.566  0.00  0.00    +0.023 C 
ENDBRANCH   1   4
BRANCH   1  13
ATOM     13  O   LIG    1       40.446  28.278   8.065  0.00  0.00    -0.444 OA
BRANCH  13  14
ATOM     14  C   LIG    1       40.840  27.349   8.960  0.00  0.00    +0.313 C 
ATOM     15  O   LIG    1       40.125  26.497   9.472  0.00  0.00    -0.250 OA
BRANCH  14  16
ATOM     16  C   LIG    1       42.297  27.468   9.196  0.00  0.00    +0.111 C 
ATOM     17  C   LIG    1       43.146  26.542  10.052  0.00  0.00    -0.014 C 
ATOM     18  C   LIG    1       44.571  26.316   9.594  0.00  0.00    +0.012 C 
ATOM     19  C   LIG    1       42.549  25.320  10.706  0.00  0.00    +0.012 C 
ATOM     20  C   LIG    1       42.815  27.939  10.545  0.00  0.00    +0.032 C 
BRANCH  20  21
ATOM     21  C   LIG    1       41.867  28.192  11.642  0.00  0.00    -0.023 C 
ATOM     22  C   LIG    1       42.114  28.862  12.786  0.00  0.00    -0.079 C 
ATOM     23  C   LIG    1       41.045  29.051  13.828  0.00  0.00    +0.038 C 
ATOM     24  C   LIG    1       43.445  29.470  13.135  0.00  0.00    +0.038 C 
ENDBRANCH  20  21
ENDBRANCH  14  16
ENDBRANCH  13  14
ENDBRANCH   1  13
TORSDOF 5
ENDMDL
MODEL 3
REMARK VINA RESULT:      -8.6      0.061      1.814
REMARK  Name = 
REMARK                            x       y       z     vdW  Elec       q    Type
REMARK                         _______ _______ _______ _____ _____    ______ ____
ROOT
ATOM      1  C   LIG    1       39.711  29.392   8.245  0.00  0.00    +0.352 C 
ENDROOT
BRANCH   1   4
ATOM      2  O   LIG    1       40.157  31.400   6.198  0.00  0.00    -0.270 OA
ATOM      3  C   LIG    1       39.462  31.592   7.178  0.00  0.00    +0.252 C 
ATOM      4  N   LIG    1       39.183  30.739   8.199  0.00  0.00    -0.200 N 
ATOM      5  C   LIG    1       38.369  31.334   9.109  0.00  0.00    +0.252 C 
ATOM      6  O   LIG    1       37.899  30.916  10.151  0.00  0.00    -0.270 OA
ATOM      7  C   LIG    1       38.109  32.689   8.613  0.00  0.00    +0.023 C 
ATOM      8  C   LIG    1       37.268  33.692   9.286  0.00  0.00    +0.041 C 
ATOM      9  C   LIG    1       37.113  35.002   8.502  0.00  0.00    +0.005 C 
ATOM     10  C   LIG    1       37.955  35.227   7.231  0.00  0.00    +0.005 C 
ATOM     11  C   LIG    1       38.749  34.057   6.630  0.00  0.00    +0.041 C 
ATOM     12  C   LIG    1       38.754  32.843   7.463  0.00  0.00    +0.023 C 
ENDBRANCH   1   4
BRANCH   1  13
ATOM     13  O   LIG    1       41.079  29.421   8.614  0.00  0.00    -0.444 OA
BRANCH  13  14
ATOM     14  C   LIG    1       41.345  29.980   9.812  0.00  0.00    +0.313 C 
ATOM     15  O   LIG    1       41.843  31.083   9.995  0.00  0.00    -0.250 OA
BRANCH  14  16
ATOM     16  C   LIG    1       40.887  29.081  10.896  0.00  0.00    +0.111 C 
ATOM     17  C   LIG    1       41.614  28.807  12.202  0.00  0.00    -0.014 C 
ATOM     18  C   LIG    1       40.748  28.553  13.417  0.00  0.00    +0.012 C 
ATOM     19  C   LIG    1       42.895  29.525  12.546  0.00  0.00    +0.012 C 
ATOM     20  C   LIG    1       41.574  27.743  11.119  0.00  0.00    +0.032 C 
BRANCH  20  21
ATOM     21  C   LIG    1       42.753  27.386  10.312  0.00  0.00    -0.023 C 
ATOM     22  C   LIG    1       43.581  26.340  10.509  0.00  0.00    -0.079 C 
ATOM     23  C   LIG    1       44.753  26.088   9.600  0.00  0.00    +0.038 C 
ATOM     24  C   LIG    1       43.431  25.348  11.629  0.00  0.00    +0.038 C 
ENDBRANCH  20  21
ENDBRANCH  14  16
ENDBRANCH  13  14
ENDBRANCH   1  13
TORSDOF 5
ENDMDL
MODEL 4
REMARK VINA RESULT:      -8.4      1.590      2.109
REMARK  Name = 
REMARK                            x       y       z     vdW  Elec       q    Type
REMARK                         _______ _______ _______ _____ _____    ______ ____
ROOT
ATOM      1  C   LIG    1       39.789  29.598   7.373  0.00  0.00    +0.352 C 
ENDROOT
BRANCH   1   4
ATOM      2  O   LIG    1       37.943  30.592   9.379  0.00  0.00    -0.270 OA
ATOM      3  C   LIG    1       38.405  31.290   8.496  0.00  0.00    +0.252 C 
ATOM      4  N   LIG    1       39.267  30.941   7.504  0.00  0.00    -0.200 N 
ATOM      5  C   LIG    1       39.540  32.010   6.711  0.00  0.00    +0.252 C 
ATOM      6  O   LIG    1       40.252  32.112   5.729  0.00  0.00    -0.270 OA
ATOM      7  C   LIG    1       38.779  33.139   7.257  0.00  0.00    +0.023 C 
ATOM      8  C   LIG    1       38.777  34.505   6.708  0.00  0.00    +0.041 C 
ATOM      9  C   LIG    1       37.946  35.502   7.525  0.00  0.00    +0.005 C 
ATOM     10  C   LIG    1       37.072  34.988   8.686  0.00  0.00    +0.005 C 
ATOM     11  C   LIG    1       37.227  33.536   9.166  0.00  0.00    +0.041 C 
ATOM     12  C   LIG    1       38.107  32.714   8.320  0.00  0.00    +0.023 C 
ENDBRANCH   1   4
BRANCH   1  13
ATOM     13  O   LIG    1       40.860  29.403   8.279  0.00  0.00    -0.444 OA
BRANCH  13  14
ATOM     14  C   LIG    1       41.216  28.119   8.489  0.00  0.00    +0.313 C 
ATOM     15  O   LIG    1       42.345  27.660   8.376  0.00  0.00    -0.250 OA
BRANCH  14  16
ATOM     16  C   LIG    1       40.040  27.343   8.944  0.00  0.00    +0.111 C 
ATOM     17  C   LIG    1       39.359  27.457  10.298  0.00  0.00    -0.014 C 
ATOM     18  C   LIG    1       37.861  27.238  10.322  0.00  0.00    +0.012 C 
ATOM     19  C   LIG    1       39.810  28.478  11.313  0.00  0.00    +0.012 C 
ATOM     20  C   LIG    1       40.208  26.240   9.976  0.00  0.00    +0.032 C 
BRANCH  20  21
ATOM     21  C   LIG    1       41.527  26.007  10.587  0.00  0.00    -0.023 C 
ATOM     22  C   LIG    1       41.775  25.453  11.791  0.00  0.00    -0.079 C 
ATOM     23  C   LIG    1       43.181  25.269  12.293  0.00  0.00    +0.038 C 
ATOM     24  C   LIG    1       40.705  24.980  12.736  0.00  0.00    +0.038 C 
ENDBRANCH  20  21
ENDBRANCH  14  16
ENDBRANCH  13  14
ENDBRANCH   1  13
TORSDOF 5
ENDMDL
MODEL 5
REMARK VINA RESULT:      -8.4      2.101      6.608
REMARK  Name = 
REMARK                            x       y       z     vdW  Elec       q    Type
REMARK                         _______ _______ _______ _____ _____    ______ ____
ROOT
ATOM      1  C   LIG    1       38.526  27.507   8.338  0.00  0.00    +0.352 C 
ENDROOT
BRANCH   1   4
ATOM      2  O   LIG    1       38.088  25.862  10.687  0.00  0.00    -0.270 OA
ATOM      3  C   LIG    1       39.191  26.224  10.325  0.00  0.00    +0.252 C 
ATOM      4  N   LIG    1       39.521  26.994   9.254  0.00  0.00    -0.200 N 
ATOM      5  C   LIG    1       40.866  27.180   9.196  0.00  0.00    +0.252 C 
ATOM      6  O   LIG    1       41.550  27.800   8.403  0.00  0.00    -0.270 OA
ATOM      7  C   LIG    1       41.436  26.458  10.338  0.00  0.00    +0.023 C 
ATOM      8  C   LIG    1       42.869  26.386  10.665  0.00  0.00    +0.041 C 
ATOM      9  C   LIG    1       43.187  25.498  11.876  0.00  0.00    +0.005 C 
ATOM     10  C   LIG    1       42.031  24.933  12.724  0.00  0.00    +0.005 C 
ATOM     11  C   LIG    1       40.586  25.057  12.216  0.00  0.00    +0.041 C 
ATOM     12  C   LIG    1       40.443  25.885  11.008  0.00  0.00    +0.023 C 
ENDBRANCH   1   4
BRANCH   1  13
ATOM     13  O   LIG    1       37.994  28.723   8.833  0.00  0.00    -0.444 OA
BRANCH  13  14
ATOM     14  C   LIG    1       38.372  29.835   8.169  0.00  0.00    +0.313 C 
ATOM     15  O   LIG    1       39.020  29.865   7.131  0.00  0.00    -0.250 OA
BRANCH  14  16
ATOM     16  C   LIG    1       37.831  31.033   8.850  0.00  0.00    +0.111 C 
ATOM     17  C   LIG    1       38.218  32.476   8.570  0.00  0.00    -0.014 C 
ATOM     18  C   LIG    1       37.125  33.512   8.732  0.00  0.00    +0.012 C 
ATOM     19  C   LIG    1       39.183  32.823   7.463  0.00  0.00    +0.012 C 
ATOM     20  C   LIG    1       38.691  31.798   9.843  0.00  0.00    +0.032 C 
BRANCH  20  21
ATOM     21  C   LIG    1       40.091  31.396  10.057  0.00  0.00    -0.023 C 
ATOM     22  C   LIG    1       40.538  30.427  10.880  0.00  0.00    -0.079 C 
ATOM     23  C   LIG    1       42.005  30.116  10.999  0.00  0.00    +0.038 C 
ATOM     24  C   LIG    1       39.646  29.582  11.747  0.00  0.00    +0.038 C 
ENDBRANCH  20  21
ENDBRANCH  14  16
ENDBRANCH  13  14
ENDBRANCH   1  13
TORSDOF 5
ENDMDL
MODEL 6
REMARK VINA RESULT:      -8.3      1.315      2.034
REMARK  Name = 
REMARK                            x       y       z     vdW  Elec       q    Type
REMARK                         _______ _______ _______ _____ _____    ______ ____
ROOT
ATOM      1  C   LIG    1       40.160  29.446   7.790  0.00  0.00    +0.352 C 
ENDROOT
BRANCH   1   4
ATOM      2  O   LIG    1       38.350  30.509   9.793  0.00  0.00    -0.270 OA
ATOM      3  C   LIG    1       38.703  31.139   8.813  0.00  0.00    +0.252 C 
ATOM      4  N   LIG    1       39.535  30.751   7.811  0.00  0.00    -0.200 N 
ATOM      5  C   LIG    1       39.673  31.744   6.894  0.00  0.00    +0.252 C 
ATOM      6  O   LIG    1       40.319  31.791   5.863  0.00  0.00    -0.270 OA
ATOM      7  C   LIG    1       38.850  32.863   7.364  0.00  0.00    +0.023 C 
ATOM      8  C   LIG    1       38.703  34.155   6.676  0.00  0.00    +0.041 C 
ATOM      9  C   LIG    1       37.837  35.169   7.434  0.00  0.00    +0.005 C 
ATOM     10  C   LIG    1       37.074  34.720   8.695  0.00  0.00    +0.005 C 
ATOM     11  C   LIG    1       37.377  33.346   9.316  0.00  0.00    +0.041 C 
ATOM     12  C   LIG    1       38.276  32.507   8.507  0.00  0.00    +0.023 C 
ENDBRANCH   1   4
BRANCH   1  13
ATOM     13  O   LIG    1       41.286  29.434   8.650  0.00  0.00    -0.444 OA
BRANCH  13  14
ATOM     14  C   LIG    1       41.275  28.481   9.605  0.00  0.00    +0.313 C 
ATOM     15  O   LIG    1       40.947  27.312   9.449  0.00  0.00    -0.250 OA
BRANCH  14  16
ATOM     16  C   LIG    1       41.784  29.043  10.877  0.00  0.00    +0.111 C 
ATOM     17  C   LIG    1       43.060  28.630  11.593  0.00  0.00    -0.014 C 
ATOM     18  C   LIG    1       43.795  29.720  12.344  0.00  0.00    +0.012 C 
ATOM     19  C   LIG    1       43.995  27.610  10.993  0.00  0.00    +0.012 C 
ATOM     20  C   LIG    1       41.709  28.225  12.156  0.00  0.00    +0.032 C 
BRANCH  20  21
ATOM     21  C   LIG    1       41.211  26.841  12.108  0.00  0.00    -0.023 C 
ATOM     22  C   LIG    1       41.357  25.894  13.057  0.00  0.00    -0.079 C 
ATOM     23  C   LIG    1       40.790  24.513  12.879  0.00  0.00    +0.038 C 
ATOM     24  C   LIG    1       42.087  26.111  14.355  0.00  0.00    +0.038 C 
ENDBRANCH  20  21
ENDBRANCH  14  16
ENDBRANCH  13  14
ENDBRANCH   1  13
TORSDOF 5
ENDMDL
MODEL 7
REMARK VINA RESULT:      -8.3      1.330      2.744
REMARK  Name = 
REMARK                            x       y       z     vdW  Elec       q    Type
REMARK                         _______ _______ _______ _____ _____    ______ ____
ROOT
ATOM      1  C   LIG    1       39.940  29.281   7.817  0.00  0.00    +0.352 C 
ENDROOT
BRANCH   1   4
ATOM      2  O   LIG    1       40.288  31.508   5.990  0.00  0.00    -0.270 OA
ATOM      3  C   LIG    1       39.592  31.567   6.986  0.00  0.00    +0.252 C 
ATOM      4  N   LIG    1       39.357  30.601   7.913  0.00  0.00    -0.200 N 
ATOM      5  C   LIG    1       38.524  31.064   8.883  0.00  0.00    +0.252 C 
ATOM      6  O   LIG    1       38.080  30.519   9.876  0.00  0.00    -0.270 OA
ATOM      7  C   LIG    1       38.205  32.451   8.532  0.00  0.00    +0.023 C 
ATOM      8  C   LIG    1       37.328  33.342   9.308  0.00  0.00    +0.041 C 
ATOM      9  C   LIG    1       37.114  34.719   8.665  0.00  0.00    +0.005 C 
ATOM     10  C   LIG    1       37.937  35.111   7.423  0.00  0.00    +0.005 C 
ATOM     11  C   LIG    1       38.775  34.044   6.700  0.00  0.00    +0.041 C 
ATOM     12  C   LIG    1       38.835  32.751   7.402  0.00  0.00    +0.023 C 
ENDBRANCH   1   4
BRANCH   1  13
ATOM     13  O   LIG    1       41.054  29.179   8.686  0.00  0.00    -0.444 OA
BRANCH  13  14
ATOM     14  C   LIG    1       40.920  28.299   9.700  0.00  0.00    +0.313 C 
ATOM     15  O   LIG    1       40.446  27.174   9.615  0.00  0.00    -0.250 OA
BRANCH  14  16
ATOM     16  C   LIG    1       41.494  28.872  10.938  0.00  0.00    +0.111 C 
ATOM     17  C   LIG    1       42.855  28.546  11.531  0.00  0.00    -0.014 C 
ATOM     18  C   LIG    1       43.568  29.674  12.247  0.00  0.00    +0.012 C 
ATOM     19  C   LIG    1       43.810  27.616  10.824  0.00  0.00    +0.012 C 
ATOM     20  C   LIG    1       41.594  28.024  12.196  0.00  0.00    +0.032 C 
BRANCH  20  21
ATOM     21  C   LIG    1       41.201  26.606  12.152  0.00  0.00    -0.023 C 
ATOM     22  C   LIG    1       41.346  25.696  13.136  0.00  0.00    -0.079 C 
ATOM     23  C   LIG    1       40.894  24.272  12.958  0.00  0.00    +0.038 C 
ATOM     24  C   LIG    1       41.962  25.996  14.475  0.00  0.00    +0.038 C 
ENDBRANCH  20  21
ENDBRANCH  14  16
ENDBRANCH  13  14
ENDBRANCH   1  13
TORSDOF 5
ENDMDL
MODEL 8
REMARK VINA RESULT:      -8.3      2.054      7.577
REMARK  Name = 
REMARK                            x       y       z     vdW  Elec       q    Type
REMARK                         _______ _______ _______ _____ _____    ______ ____
ROOT
ATOM      1  C   LIG    1       42.279  30.271  10.808  0.00  0.00    +0.352 C 
ENDROOT
BRANCH   1   4
ATOM      2  O   LIG    1       42.247  27.595   9.686  0.00  0.00    -0.270 OA
ATOM      3  C   LIG    1       42.091  27.822  10.871  0.00  0.00    +0.252 C 
ATOM      4  N   LIG    1       42.081  29.022  11.510  0.00  0.00    -0.200 N 
ATOM      5  C   LIG    1       41.870  28.851  12.842  0.00  0.00    +0.252 C 
ATOM      6  O   LIG    1       41.790  29.663  13.745  0.00  0.00    -0.270 OA
ATOM      7  C   LIG    1       41.736  27.408  13.062  0.00  0.00    +0.023 C 
ATOM      8  C   LIG    1       41.499  26.767  14.365  0.00  0.00    +0.041 C 
ATOM      9  C   LIG    1       41.476  25.234  14.310  0.00  0.00    +0.005 C 
ATOM     10  C   LIG    1       41.512  24.525  12.942  0.00  0.00    +0.005 C 
ATOM     11  C   LIG    1       41.815  25.339  11.673  0.00  0.00    +0.041 C 
ATOM     12  C   LIG    1       41.872  26.793  11.892  0.00  0.00    +0.023 C 
ENDBRANCH   1   4
BRANCH   1  13
ATOM     13  O   LIG    1       41.038  30.933  10.637  0.00  0.00    -0.444 OA
BRANCH  13  14
ATOM     14  C   LIG    1       40.339  30.580   9.539  0.00  0.00    +0.313 C 
ATOM     15  O   LIG    1       40.780  30.512   8.399  0.00  0.00    -0.250 OA
BRANCH  14  16
ATOM     16  C   LIG    1       38.955  30.221   9.921  0.00  0.00    +0.111 C 
ATOM     17  C   LIG    1       37.957  29.456   9.066  0.00  0.00    -0.014 C 
ATOM     18  C   LIG    1       36.993  28.550   9.801  0.00  0.00    +0.012 C 
ATOM     19  C   LIG    1       38.347  28.911   7.714  0.00  0.00    +0.012 C 
ATOM     20  C   LIG    1       37.777  30.947   9.291  0.00  0.00    +0.032 C 
BRANCH  20  21
ATOM     21  C   LIG    1       38.016  31.945   8.236  0.00  0.00    -0.023 C 
ATOM     22  C   LIG    1       37.681  33.250   8.266  0.00  0.00    -0.079 C 
ATOM     23  C   LIG    1       37.990  34.165   7.112  0.00  0.00    +0.038 C 
ATOM     24  C   LIG    1       36.976  33.911   9.419  0.00  0.00    +0.038 C 
ENDBRANCH  20  21
ENDBRANCH  14  16
ENDBRANCH  13  14
ENDBRANCH   1  13
TORSDOF 5
ENDMDL
MODEL 9
REMARK VINA RESULT:      -8.2      2.040      7.291
REMARK  Name = 
REMARK                            x       y       z     vdW  Elec       q    Type
REMARK                         _______ _______ _______ _____ _____    ______ ____
ROOT
ATOM      1  C   LIG    1       41.970  28.464   8.649  0.00  0.00    +0.352 C 
ENDROOT
BRANCH   1   4
ATOM      2  O   LIG    1       42.341  29.649  11.271  0.00  0.00    -0.270 OA
ATOM      3  C   LIG    1       42.032  28.484  11.106  0.00  0.00    +0.252 C 
ATOM      4  N   LIG    1       41.835  27.818   9.937  0.00  0.00    -0.200 N 
ATOM      5  C   LIG    1       41.505  26.522  10.177  0.00  0.00    +0.252 C 
ATOM      6  O   LIG    1       41.256  25.609   9.411  0.00  0.00    -0.270 OA
ATOM      7  C   LIG    1       41.491  26.357  11.633  0.00  0.00    +0.023 C 
ATOM      8  C   LIG    1       41.180  25.106  12.343  0.00  0.00    +0.041 C 
ATOM      9  C   LIG    1       41.168  25.243  13.871  0.00  0.00    +0.005 C 
ATOM     10  C   LIG    1       41.642  26.560  14.516  0.00  0.00    +0.005 C 
ATOM     11  C   LIG    1       41.886  27.794  13.632  0.00  0.00    +0.041 C 
ATOM     12  C   LIG    1       41.799  27.524  12.188  0.00  0.00    +0.023 C 
ENDBRANCH   1   4
BRANCH   1  13
ATOM     13  O   LIG    1       40.690  28.739   8.109  0.00  0.00    -0.444 OA
BRANCH  13  14
ATOM     14  C   LIG    1       40.245  30.000   8.286  0.00  0.00    +0.313 C 
ATOM     15  O   LIG    1       40.535  30.967   7.594  0.00  0.00    -0.250 OA
BRANCH  14  16
ATOM     16  C   LIG    1       39.291  30.039   9.418  0.00  0.00    +0.111 C 
ATOM     17  C   LIG    1       37.819  29.664   9.364  0.00  0.00    -0.014 C 
ATOM     18  C   LIG    1       37.236  29.033  10.610  0.00  0.00    +0.012 C 
ATOM     19  C   LIG    1       37.198  29.125   8.099  0.00  0.00    +0.012 C 
ATOM     20  C   LIG    1       38.227  31.122   9.481  0.00  0.00    +0.032 C 
BRANCH  20  21
ATOM     21  C   LIG    1       38.091  32.077   8.369  0.00  0.00    -0.023 C 
ATOM     22  C   LIG    1       37.598  33.330   8.434  0.00  0.00    -0.079 C 
ATOM     23  C   LIG    1       37.521  34.205   7.213  0.00  0.00    +0.038 C 
ATOM     24  C   LIG    1       37.082  33.966   9.696  0.00  0.00    +0.038 C 
ENDBRANCH  20  21
ENDBRANCH  14  16
ENDBRANCH  13  14
ENDBRANCH   1  13
TORSDOF 5
ENDMDL
