MODEL 1
REMARK VINA RESULT:      -8.4      0.000      0.000
REMARK  Name = 
REMARK                            x       y       z     vdW  Elec       q    Type
REMARK                         _______ _______ _______ _____ _____    ______ ____
ROOT
ATOM      1  C   LIG    1        3.414  -0.953  20.652  0.00  0.00    +0.352 C 
ENDROOT
BRANCH   1   4
ATOM      2  O   LIG    1        2.223   0.228  23.020  0.00  0.00    -0.270 OA
ATOM      3  C   LIG    1        2.639   0.886  22.085  0.00  0.00    +0.252 C 
ATOM      4  N   LIG    1        3.207   0.452  20.929  0.00  0.00    -0.200 N 
ATOM      5  C   LIG    1        3.532   1.503  20.132  0.00  0.00    +0.252 C 
ATOM      6  O   LIG    1        4.049   1.538  19.031  0.00  0.00    -0.270 OA
ATOM      7  C   LIG    1        3.131   2.714  20.856  0.00  0.00    +0.023 C 
ATOM      8  C   LIG    1        3.299   4.091  20.364  0.00  0.00    +0.041 C 
ATOM      9  C   LIG    1        2.856   5.168  21.363  0.00  0.00    +0.005 C 
ATOM     10  C   LIG    1        2.135   4.747  22.658  0.00  0.00    +0.005 C 
ATOM     11  C   LIG    1        2.084   3.262  23.051  0.00  0.00    +0.041 C 
ATOM     12  C   LIG    1        2.604   2.350  22.019  0.00  0.00    +0.023 C 
ENDBRANCH   1   4
BRANCH   1  13
ATOM     13  O   LIG    1        4.759  -1.307  20.920  0.00  0.00    -0.444 OA
BRANCH  13  14
ATOM     14  C   LIG    1        5.531  -1.517  19.834  0.00  0.00    +0.313 C 
ATOM     15  O   LIG    1        5.143  -1.921  18.746  0.00  0.00    -0.250 OA
BRANCH  14  16
ATOM     16  C   LIG    1        6.928  -1.127  20.131  0.00  0.00    +0.111 C 
ATOM     17  C   LIG    1        8.176  -1.681  19.462  0.00  0.00    -0.014 C 
ATOM     18  C   LIG    1        9.334  -0.720  19.292  0.00  0.00    +0.012 C 
ATOM     19  C   LIG    1        8.077  -2.674  18.331  0.00  0.00    +0.012 C 
ATOM     20  C   LIG    1        7.841  -2.077  20.889  0.00  0.00    +0.032 C 
BRANCH  20  21
ATOM     21  C   LIG    1        7.358  -3.421  21.248  0.00  0.00    -0.023 C 
ATOM     22  C   LIG    1        8.111  -4.503  21.530  0.00  0.00    -0.079 C 
ATOM     23  C   LIG    1        7.483  -5.822  21.889  0.00  0.00    +0.038 C 
ATOM     24  C   LIG    1        9.615  -4.509  21.511  0.00  0.00    +0.038 C 
ENDBRANCH  20  21
ENDBRANCH  14  16
ENDBRANCH  13  14
ENDBRANCH   1  13
TORSDOF 5
ENDMDL
MODEL 2
REMARK VINA RESULT:      -8.4      0.125      1.817
REMARK  Name = 
REMARK                            x       y       z     vdW  Elec       q    Type
REMARK                         _______ _______ _______ _____ _____    ______ ____
ROOT
ATOM      1  C   LIG    1        3.342  -0.895  20.693  0.00  0.00    +0.352 C 
ENDROOT
BRANCH   1   4
ATOM      2  O   LIG    1        3.968   1.464  19.124  0.00  0.00    -0.270 OA
ATOM      3  C   LIG    1        3.474   1.515  20.234  0.00  0.00    +0.252 C 
ATOM      4  N   LIG    1        3.142   0.489  21.062  0.00  0.00    -0.200 N 
ATOM      5  C   LIG    1        2.618   0.964  22.223  0.00  0.00    +0.252 C 
ATOM      6  O   LIG    1        2.206   0.379  23.208  0.00  0.00    -0.270 OA
ATOM      7  C   LIG    1        2.619   2.426  22.114  0.00  0.00    +0.023 C 
ATOM      8  C   LIG    1        2.133   3.354  23.148  0.00  0.00    +0.041 C 
ATOM      9  C   LIG    1        2.186   4.830  22.735  0.00  0.00    +0.005 C 
ATOM     10  C   LIG    1        2.880   5.222  21.416  0.00  0.00    +0.005 C 
ATOM     11  C   LIG    1        3.291   4.126  20.420  0.00  0.00    +0.041 C 
ATOM     12  C   LIG    1        3.123   2.756  20.931  0.00  0.00    +0.023 C 
ENDBRANCH   1   4
BRANCH   1  13
ATOM     13  O   LIG    1        4.665  -1.293  21.003  0.00  0.00    -0.444 OA
BRANCH  13  14
ATOM     14  C   LIG    1        5.449  -1.578  19.942  0.00  0.00    +0.313 C 
ATOM     15  O   LIG    1        5.073  -2.062  18.883  0.00  0.00    -0.250 OA
BRANCH  14  16
ATOM     16  C   LIG    1        6.841  -1.161  20.223  0.00  0.00    +0.111 C 
ATOM     17  C   LIG    1        8.090  -1.679  19.528  0.00  0.00    -0.014 C 
ATOM     18  C   LIG    1        9.224  -0.691  19.352  0.00  0.00    +0.012 C 
ATOM     19  C   LIG    1        7.996  -2.660  18.385  0.00  0.00    +0.012 C 
ATOM     20  C   LIG    1        7.786  -2.101  20.954  0.00  0.00    +0.032 C 
BRANCH  20  21
ATOM     21  C   LIG    1        7.338  -3.459  21.303  0.00  0.00    -0.023 C 
ATOM     22  C   LIG    1        8.119  -4.531  21.548  0.00  0.00    -0.079 C 
ATOM     23  C   LIG    1        7.526  -5.867  21.901  0.00  0.00    +0.038 C 
ATOM     24  C   LIG    1        9.622  -4.507  21.490  0.00  0.00    +0.038 C 
ENDBRANCH  20  21
ENDBRANCH  14  16
ENDBRANCH  13  14
ENDBRANCH   1  13
TORSDOF 5
ENDMDL
MODEL 3
REMARK VINA RESULT:      -8.0      0.953      2.319
REMARK  Name = 
REMARK                            x       y       z     vdW  Elec       q    Type
REMARK                         _______ _______ _______ _____ _____    ______ ____
ROOT
ATOM      1  C   LIG    1        3.478  -0.798  20.879  0.00  0.00    +0.352 C 
ENDROOT
BRANCH   1   4
ATOM      2  O   LIG    1        2.382   0.432  23.268  0.00  0.00    -0.270 OA
ATOM      3  C   LIG    1        2.723   1.068  22.288  0.00  0.00    +0.252 C 
ATOM      4  N   LIG    1        3.241   0.610  21.118  0.00  0.00    -0.200 N 
ATOM      5  C   LIG    1        3.487   1.641  20.268  0.00  0.00    +0.252 C 
ATOM      6  O   LIG    1        3.940   1.651  19.139  0.00  0.00    -0.270 OA
ATOM      7  C   LIG    1        3.087   2.865  20.971  0.00  0.00    +0.023 C 
ATOM      8  C   LIG    1        3.182   4.227  20.422  0.00  0.00    +0.041 C 
ATOM      9  C   LIG    1        2.761   5.325  21.407  0.00  0.00    +0.005 C 
ATOM     10  C   LIG    1        2.126   4.930  22.755  0.00  0.00    +0.005 C 
ATOM     11  C   LIG    1        2.146   3.459  23.201  0.00  0.00    +0.041 C 
ATOM     12  C   LIG    1        2.637   2.527  22.174  0.00  0.00    +0.023 C 
ENDBRANCH   1   4
BRANCH   1  13
ATOM     13  O   LIG    1        4.867  -1.070  20.927  0.00  0.00    -0.444 OA
BRANCH  13  14
ATOM     14  C   LIG    1        5.393  -1.606  19.806  0.00  0.00    +0.313 C 
ATOM     15  O   LIG    1        5.463  -1.057  18.714  0.00  0.00    -0.250 OA
BRANCH  14  16
ATOM     16  C   LIG    1        5.936  -2.951  20.102  0.00  0.00    +0.111 C 
ATOM     17  C   LIG    1        7.004  -3.280  21.132  0.00  0.00    -0.014 C 
ATOM     18  C   LIG    1        6.882  -4.620  21.826  0.00  0.00    +0.012 C 
ATOM     19  C   LIG    1        7.572  -2.212  22.034  0.00  0.00    +0.012 C 
ATOM     20  C   LIG    1        7.340  -3.322  19.652  0.00  0.00    +0.032 C 
BRANCH  20  21
ATOM     21  C   LIG    1        8.188  -2.310  19.001  0.00  0.00    -0.023 C 
ATOM     22  C   LIG    1        9.506  -2.410  18.733  0.00  0.00    -0.079 C 
ATOM     23  C   LIG    1       10.253  -1.295  18.054  0.00  0.00    +0.038 C 
ATOM     24  C   LIG    1       10.346  -3.609  19.079  0.00  0.00    +0.038 C 
ENDBRANCH  20  21
ENDBRANCH  14  16
ENDBRANCH  13  14
ENDBRANCH   1  13
TORSDOF 5
ENDMDL
MODEL 4
REMARK VINA RESULT:      -8.0      1.056      3.051
REMARK  Name = 
REMARK                            x       y       z     vdW  Elec       q    Type
REMARK                         _______ _______ _______ _____ _____    ______ ____
ROOT
ATOM      1  C   LIG    1        3.451  -1.187  20.070  0.00  0.00    +0.352 C 
ENDROOT
BRANCH   1   4
ATOM      2  O   LIG    1        4.187   1.327  18.820  0.00  0.00    -0.270 OA
ATOM      3  C   LIG    1        3.621   1.259  19.895  0.00  0.00    +0.252 C 
ATOM      4  N   LIG    1        3.233   0.150  20.579  0.00  0.00    -0.200 N 
ATOM      5  C   LIG    1        2.636   0.496  21.750  0.00  0.00    +0.252 C 
ATOM      6  O   LIG    1        2.159  -0.191  22.634  0.00  0.00    -0.270 OA
ATOM      7  C   LIG    1        2.648   1.962  21.807  0.00  0.00    +0.023 C 
ATOM      8  C   LIG    1        2.099   2.772  22.905  0.00  0.00    +0.041 C 
ATOM      9  C   LIG    1        2.184   4.285  22.665  0.00  0.00    +0.005 C 
ATOM     10  C   LIG    1        2.964   4.816  21.446  0.00  0.00    +0.005 C 
ATOM     11  C   LIG    1        3.435   3.834  20.361  0.00  0.00    +0.041 C 
ATOM     12  C   LIG    1        3.229   2.417  20.703  0.00  0.00    +0.023 C 
ENDBRANCH   1   4
BRANCH   1  13
ATOM     13  O   LIG    1        4.124  -1.970  21.039  0.00  0.00    -0.444 OA
BRANCH  13  14
ATOM     14  C   LIG    1        5.471  -1.932  20.983  0.00  0.00    +0.313 C 
ATOM     15  O   LIG    1        6.166  -0.931  21.102  0.00  0.00    -0.250 OA
BRANCH  14  16
ATOM     16  C   LIG    1        6.004  -3.303  20.814  0.00  0.00    +0.111 C 
ATOM     17  C   LIG    1        7.245  -3.872  21.483  0.00  0.00    -0.014 C 
ATOM     18  C   LIG    1        7.209  -5.345  21.831  0.00  0.00    +0.012 C 
ATOM     19  C   LIG    1        8.034  -3.061  22.480  0.00  0.00    +0.012 C 
ATOM     20  C   LIG    1        7.267  -3.536  20.002  0.00  0.00    +0.032 C 
BRANCH  20  21
ATOM     21  C   LIG    1        8.007  -2.386  19.459  0.00  0.00    -0.023 C 
ATOM     22  C   LIG    1        9.288  -2.373  19.038  0.00  0.00    -0.079 C 
ATOM     23  C   LIG    1        9.923  -1.120  18.498  0.00  0.00    +0.038 C 
ATOM     24  C   LIG    1       10.195  -3.573  19.069  0.00  0.00    +0.038 C 
ENDBRANCH  20  21
ENDBRANCH  14  16
ENDBRANCH  13  14
ENDBRANCH   1  13
TORSDOF 5
ENDMDL
MODEL 5
REMARK VINA RESULT:      -8.0      2.626      4.191
REMARK  Name = 
REMARK                            x       y       z     vdW  Elec       q    Type
REMARK                         _______ _______ _______ _____ _____    ______ ____
ROOT
ATOM      1  C   LIG    1        3.039  -0.269  20.868  0.00  0.00    +0.352 C 
ENDROOT
BRANCH   1   4
ATOM      2  O   LIG    1        2.187  -3.042  20.924  0.00  0.00    -0.270 OA
ATOM      3  C   LIG    1        1.986  -2.266  21.839  0.00  0.00    +0.252 C 
ATOM      4  N   LIG    1        2.329  -0.953  21.927  0.00  0.00    -0.200 N 
ATOM      5  C   LIG    1        1.919  -0.432  23.113  0.00  0.00    +0.252 C 
ATOM      6  O   LIG    1        2.029   0.691  23.569  0.00  0.00    -0.270 OA
ATOM      7  C   LIG    1        1.257  -1.519  23.841  0.00  0.00    +0.023 C 
ATOM      8  C   LIG    1        0.658  -1.402  25.180  0.00  0.00    +0.041 C 
ATOM      9  C   LIG    1        0.098  -2.721  25.729  0.00  0.00    +0.005 C 
ATOM     10  C   LIG    1        0.037  -3.957  24.811  0.00  0.00    +0.005 C 
ATOM     11  C   LIG    1        0.754  -3.929  23.451  0.00  0.00    +0.041 C 
ATOM     12  C   LIG    1        1.299  -2.612  23.087  0.00  0.00    +0.023 C 
ENDBRANCH   1   4
BRANCH   1  13
ATOM     13  O   LIG    1        4.433  -0.308  21.115  0.00  0.00    -0.444 OA
BRANCH  13  14
ATOM     14  C   LIG    1        5.151  -1.072  20.266  0.00  0.00    +0.313 C 
ATOM     15  O   LIG    1        4.694  -1.861  19.450  0.00  0.00    -0.250 OA
BRANCH  14  16
ATOM     16  C   LIG    1        6.592  -0.770  20.421  0.00  0.00    +0.111 C 
ATOM     17  C   LIG    1        7.734  -1.438  19.671  0.00  0.00    -0.014 C 
ATOM     18  C   LIG    1        8.934  -0.571  19.355  0.00  0.00    +0.012 C 
ATOM     19  C   LIG    1        7.466  -2.467  18.600  0.00  0.00    +0.012 C 
ATOM     20  C   LIG    1        7.504  -1.753  21.139  0.00  0.00    +0.032 C 
BRANCH  20  21
ATOM     21  C   LIG    1        6.966  -3.042  21.601  0.00  0.00    -0.023 C 
ATOM     22  C   LIG    1        7.657  -4.182  21.803  0.00  0.00    -0.079 C 
ATOM     23  C   LIG    1        6.978  -5.435  22.285  0.00  0.00    +0.038 C 
ATOM     24  C   LIG    1        9.137  -4.320  21.570  0.00  0.00    +0.038 C 
ENDBRANCH  20  21
ENDBRANCH  14  16
ENDBRANCH  13  14
ENDBRANCH   1  13
TORSDOF 5
ENDMDL
MODEL 6
REMARK VINA RESULT:      -7.9      2.482      3.915
REMARK  Name = 
REMARK                            x       y       z     vdW  Elec       q    Type
REMARK                         _______ _______ _______ _____ _____    ______ ____
ROOT
ATOM      1  C   LIG    1        3.222  -0.046  20.881  0.00  0.00    +0.352 C 
ENDROOT
BRANCH   1   4
ATOM      2  O   LIG    1        1.717   1.080  23.092  0.00  0.00    -0.270 OA
ATOM      3  C   LIG    1        1.789  -0.115  22.876  0.00  0.00    +0.252 C 
ATOM      4  N   LIG    1        2.461  -0.758  21.884  0.00  0.00    -0.200 N 
ATOM      5  C   LIG    1        2.297  -2.103  21.991  0.00  0.00    +0.252 C 
ATOM      6  O   LIG    1        2.730  -3.014  21.310  0.00  0.00    -0.270 OA
ATOM      7  C   LIG    1        1.440  -2.328  23.159  0.00  0.00    +0.023 C 
ATOM      8  C   LIG    1        1.000  -3.644  23.647  0.00  0.00    +0.041 C 
ATOM      9  C   LIG    1        0.047  -3.576  24.848  0.00  0.00    +0.005 C 
ATOM     10  C   LIG    1       -0.213  -2.220  25.532  0.00  0.00    +0.005 C 
ATOM     11  C   LIG    1        0.283  -0.926  24.865  0.00  0.00    +0.041 C 
ATOM     12  C   LIG    1        1.133  -1.147  23.684  0.00  0.00    +0.023 C 
ENDBRANCH   1   4
BRANCH   1  13
ATOM     13  O   LIG    1        4.609  -0.209  21.119  0.00  0.00    -0.444 OA
BRANCH  13  14
ATOM     14  C   LIG    1        5.278  -0.918  20.187  0.00  0.00    +0.313 C 
ATOM     15  O   LIG    1        4.773  -1.620  19.321  0.00  0.00    -0.250 OA
BRANCH  14  16
ATOM     16  C   LIG    1        6.732  -0.675  20.322  0.00  0.00    +0.111 C 
ATOM     17  C   LIG    1        7.837  -1.410  19.581  0.00  0.00    -0.014 C 
ATOM     18  C   LIG    1        9.070  -0.603  19.234  0.00  0.00    +0.012 C 
ATOM     19  C   LIG    1        7.517  -2.453  18.540  0.00  0.00    +0.012 C 
ATOM     20  C   LIG    1        7.607  -1.676  21.059  0.00  0.00    +0.032 C 
BRANCH  20  21
ATOM     21  C   LIG    1        7.019  -2.929  21.558  0.00  0.00    -0.023 C 
ATOM     22  C   LIG    1        7.667  -4.087  21.801  0.00  0.00    -0.079 C 
ATOM     23  C   LIG    1        6.939  -5.297  22.318  0.00  0.00    +0.038 C 
ATOM     24  C   LIG    1        9.141  -4.287  21.580  0.00  0.00    +0.038 C 
ENDBRANCH  20  21
ENDBRANCH  14  16
ENDBRANCH  13  14
ENDBRANCH   1  13
TORSDOF 5
ENDMDL
MODEL 7
REMARK VINA RESULT:      -7.8      4.906      8.258
REMARK  Name = 
REMARK                            x       y       z     vdW  Elec       q    Type
REMARK                         _______ _______ _______ _____ _____    ______ ____
ROOT
ATOM      1  C   LIG    1        9.143  -4.109  23.626  0.00  0.00    +0.352 C 
ENDROOT
BRANCH   1   4
ATOM      2  O   LIG    1       11.443  -3.251  25.174  0.00  0.00    -0.270 OA
ATOM      3  C   LIG    1       10.417  -3.666  25.680  0.00  0.00    +0.252 C 
ATOM      4  N   LIG    1        9.284  -4.097  25.066  0.00  0.00    -0.200 N 
ATOM      5  C   LIG    1        8.362  -4.487  25.985  0.00  0.00    +0.252 C 
ATOM      6  O   LIG    1        7.237  -4.931  25.845  0.00  0.00    -0.270 OA
ATOM      7  C   LIG    1        8.972  -4.279  27.302  0.00  0.00    +0.023 C 
ATOM      8  C   LIG    1        8.324  -4.567  28.592  0.00  0.00    +0.041 C 
ATOM      9  C   LIG    1        9.170  -4.183  29.813  0.00  0.00    +0.005 C 
ATOM     10  C   LIG    1       10.628  -3.726  29.610  0.00  0.00    +0.005 C 
ATOM     11  C   LIG    1       11.139  -3.427  28.191  0.00  0.00    +0.041 C 
ATOM     12  C   LIG    1       10.192  -3.786  27.123  0.00  0.00    +0.023 C 
ENDBRANCH   1   4
BRANCH   1  13
ATOM     13  O   LIG    1        8.320  -3.034  23.211  0.00  0.00    -0.444 OA
BRANCH  13  14
ATOM     14  C   LIG    1        7.535  -3.283  22.143  0.00  0.00    +0.313 C 
ATOM     15  O   LIG    1        7.210  -4.390  21.734  0.00  0.00    -0.250 OA
BRANCH  14  16
ATOM     16  C   LIG    1        7.063  -2.006  21.560  0.00  0.00    +0.111 C 
ATOM     17  C   LIG    1        6.027  -1.851  20.459  0.00  0.00    -0.014 C 
ATOM     18  C   LIG    1        5.143  -0.624  20.531  0.00  0.00    +0.012 C 
ATOM     19  C   LIG    1        5.307  -3.050  19.893  0.00  0.00    +0.012 C 
ATOM     20  C   LIG    1        7.494  -1.601  20.160  0.00  0.00    +0.032 C 
BRANCH  20  21
ATOM     21  C   LIG    1        8.310  -2.524  19.353  0.00  0.00    -0.023 C 
ATOM     22  C   LIG    1        9.402  -2.213  18.626  0.00  0.00    -0.079 C 
ATOM     23  C   LIG    1       10.147  -3.262  17.847  0.00  0.00    +0.038 C 
ATOM     24  C   LIG    1        9.971  -0.826  18.513  0.00  0.00    +0.038 C 
ENDBRANCH  20  21
ENDBRANCH  14  16
ENDBRANCH  13  14
ENDBRANCH   1  13
TORSDOF 5
ENDMDL
MODEL 8
REMARK VINA RESULT:      -7.8      4.890      8.115
REMARK  Name = 
REMARK                            x       y       z     vdW  Elec       q    Type
REMARK                         _______ _______ _______ _____ _____    ______ ____
ROOT
ATOM      1  C   LIG    1        9.118  -4.178  23.600  0.00  0.00    +0.352 C 
ENDROOT
BRANCH   1   4
ATOM      2  O   LIG    1        7.280  -4.990  25.693  0.00  0.00    -0.270 OA
ATOM      3  C   LIG    1        8.377  -4.515  25.918  0.00  0.00    +0.252 C 
ATOM      4  N   LIG    1        9.318  -4.096  25.031  0.00  0.00    -0.200 N 
ATOM      5  C   LIG    1       10.411  -3.621  25.683  0.00  0.00    +0.252 C 
ATOM      6  O   LIG    1       11.453  -3.158  25.257  0.00  0.00    -0.270 OA
ATOM      7  C   LIG    1       10.134  -3.756  27.116  0.00  0.00    +0.023 C 
ATOM      8  C   LIG    1       11.051  -3.365  28.198  0.00  0.00    +0.041 C 
ATOM      9  C   LIG    1       10.529  -3.688  29.604  0.00  0.00    +0.005 C 
ATOM     10  C   LIG    1        9.084  -4.196  29.777  0.00  0.00    +0.005 C 
ATOM     11  C   LIG    1        8.270  -4.603  28.538  0.00  0.00    +0.041 C 
ATOM     12  C   LIG    1        8.927  -4.292  27.259  0.00  0.00    +0.023 C 
ENDBRANCH   1   4
BRANCH   1  13
ATOM     13  O   LIG    1        8.381  -3.056  23.149  0.00  0.00    -0.444 OA
BRANCH  13  14
ATOM     14  C   LIG    1        7.487  -3.304  22.170  0.00  0.00    +0.313 C 
ATOM     15  O   LIG    1        7.075  -4.408  21.837  0.00  0.00    -0.250 OA
BRANCH  14  16
ATOM     16  C   LIG    1        7.019  -2.027  21.584  0.00  0.00    +0.111 C 
ATOM     17  C   LIG    1        5.990  -1.872  20.476  0.00  0.00    -0.014 C 
ATOM     18  C   LIG    1        5.106  -0.644  20.542  0.00  0.00    +0.012 C 
ATOM     19  C   LIG    1        5.272  -3.071  19.906  0.00  0.00    +0.012 C 
ATOM     20  C   LIG    1        7.459  -1.624  20.186  0.00  0.00    +0.032 C 
BRANCH  20  21
ATOM     21  C   LIG    1        8.279  -2.547  19.384  0.00  0.00    -0.023 C 
ATOM     22  C   LIG    1        9.375  -2.238  18.662  0.00  0.00    -0.079 C 
ATOM     23  C   LIG    1       10.124  -3.288  17.888  0.00  0.00    +0.038 C 
ATOM     24  C   LIG    1        9.945  -0.850  18.551  0.00  0.00    +0.038 C 
ENDBRANCH  20  21
ENDBRANCH  14  16
ENDBRANCH  13  14
ENDBRANCH   1  13
TORSDOF 5
ENDMDL
MODEL 9
REMARK VINA RESULT:      -7.6      2.567      4.605
REMARK  Name = 
REMARK                            x       y       z     vdW  Elec       q    Type
REMARK                         _______ _______ _______ _____ _____    ______ ____
ROOT
ATOM      1  C   LIG    1        3.379  -0.134  20.814  0.00  0.00    +0.352 C 
ENDROOT
BRANCH   1   4
ATOM      2  O   LIG    1        2.642  -2.935  21.005  0.00  0.00    -0.270 OA
ATOM      3  C   LIG    1        2.295  -2.098  21.818  0.00  0.00    +0.252 C 
ATOM      4  N   LIG    1        2.570  -0.767  21.834  0.00  0.00    -0.200 N 
ATOM      5  C   LIG    1        1.992  -0.174  22.911  0.00  0.00    +0.252 C 
ATOM      6  O   LIG    1        1.997   0.987  23.278  0.00  0.00    -0.270 OA
ATOM      7  C   LIG    1        1.288  -1.232  23.643  0.00  0.00    +0.023 C 
ATOM      8  C   LIG    1        0.521  -1.038  24.883  0.00  0.00    +0.041 C 
ATOM      9  C   LIG    1       -0.050  -2.336  25.471  0.00  0.00    +0.005 C 
ATOM     10  C   LIG    1        0.057  -3.644  24.663  0.00  0.00    +0.005 C 
ATOM     11  C   LIG    1        0.939  -3.688  23.404  0.00  0.00    +0.041 C 
ATOM     12  C   LIG    1        1.471  -2.378  22.997  0.00  0.00    +0.023 C 
ENDBRANCH   1   4
BRANCH   1  13
ATOM     13  O   LIG    1        4.735  -0.513  20.969  0.00  0.00    -0.444 OA
BRANCH  13  14
ATOM     14  C   LIG    1        5.349  -0.945  19.848  0.00  0.00    +0.313 C 
ATOM     15  O   LIG    1        5.629  -0.259  18.874  0.00  0.00    -0.250 OA
BRANCH  14  16
ATOM     16  C   LIG    1        5.695  -2.377  19.989  0.00  0.00    +0.111 C 
ATOM     17  C   LIG    1        6.724  -2.962  20.943  0.00  0.00    -0.014 C 
ATOM     18  C   LIG    1        6.423  -4.335  21.503  0.00  0.00    +0.012 C 
ATOM     19  C   LIG    1        7.461  -2.085  21.926  0.00  0.00    +0.012 C 
ATOM     20  C   LIG    1        7.020  -2.897  19.455  0.00  0.00    +0.032 C 
BRANCH  20  21
ATOM     21  C   LIG    1        7.994  -1.955  18.878  0.00  0.00    -0.023 C 
ATOM     22  C   LIG    1        9.314  -2.163  18.702  0.00  0.00    -0.079 C 
ATOM     23  C   LIG    1       10.198  -1.110  18.092  0.00  0.00    +0.038 C 
ATOM     24  C   LIG    1       10.025  -3.431  19.090  0.00  0.00    +0.038 C 
ENDBRANCH  20  21
ENDBRANCH  14  16
ENDBRANCH  13  14
ENDBRANCH   1  13
TORSDOF 5
ENDMDL
