MODEL 1
REMARK VINA RESULT:      -9.1      0.000      0.000
REMARK  Name = 
REMARK                            x       y       z     vdW  Elec       q    Type
REMARK                         _______ _______ _______ _____ _____    ______ ____
ROOT
ATOM      1  C   LIG    1       11.274   3.241  30.826  0.00  0.00    +0.352 C 
ENDROOT
BRANCH   1   4
ATOM      2  O   LIG    1       13.247   3.782  32.883  0.00  0.00    -0.270 OA
ATOM      3  C   LIG    1       12.220   3.165  33.093  0.00  0.00    +0.252 C 
ATOM      4  N   LIG    1       11.229   2.847  32.218  0.00  0.00    -0.200 N 
ATOM      5  C   LIG    1       10.249   2.143  32.842  0.00  0.00    +0.252 C 
ATOM      6  O   LIG    1        9.209   1.677  32.416  0.00  0.00    -0.270 OA
ATOM      7  C   LIG    1       10.661   2.007  34.243  0.00  0.00    +0.023 C 
ATOM      8  C   LIG    1        9.893   1.312  35.289  0.00  0.00    +0.041 C 
ATOM      9  C   LIG    1       10.530   1.389  36.683  0.00  0.00    +0.005 C 
ATOM     10  C   LIG    1       11.940   1.990  36.839  0.00  0.00    +0.005 C 
ATOM     11  C   LIG    1       12.588   2.722  35.652  0.00  0.00    +0.041 C 
ATOM     12  C   LIG    1       11.830   2.617  34.395  0.00  0.00    +0.023 C 
ENDBRANCH   1   4
BRANCH   1  13
ATOM     13  O   LIG    1       11.723   2.159  30.031  0.00  0.00    -0.444 OA
BRANCH  13  14
ATOM     14  C   LIG    1       11.018   1.937  28.902  0.00  0.00    +0.313 C 
ATOM     15  O   LIG    1       11.330   2.306  27.778  0.00  0.00    -0.250 OA
BRANCH  14  16
ATOM     16  C   LIG    1        9.825   1.117  29.211  0.00  0.00    +0.111 C 
ATOM     17  C   LIG    1        9.044   0.262  28.226  0.00  0.00    -0.014 C 
ATOM     18  C   LIG    1        8.433  -1.011  28.774  0.00  0.00    +0.012 C 
ATOM     19  C   LIG    1        9.494   0.117  26.793  0.00  0.00    +0.012 C 
ATOM     20  C   LIG    1        8.451   1.563  28.737  0.00  0.00    +0.032 C 
BRANCH  20  21
ATOM     21  C   LIG    1        8.324   2.763  27.896  0.00  0.00    -0.023 C 
ATOM     22  C   LIG    1        7.312   3.058  27.055  0.00  0.00    -0.079 C 
ATOM     23  C   LIG    1        7.307   4.331  26.252  0.00  0.00    +0.038 C 
ATOM     24  C   LIG    1        6.118   2.171  26.831  0.00  0.00    +0.038 C 
ENDBRANCH  20  21
ENDBRANCH  14  16
ENDBRANCH  13  14
ENDBRANCH   1  13
TORSDOF 5
ENDMDL
MODEL 2
REMARK VINA RESULT:      -9.1      0.091      1.816
REMARK  Name = 
REMARK                            x       y       z     vdW  Elec       q    Type
REMARK                         _______ _______ _______ _____ _____    ______ ____
ROOT
ATOM      1  C   LIG    1       11.149   3.171  30.831  0.00  0.00    +0.352 C 
ENDROOT
BRANCH   1   4
ATOM      2  O   LIG    1        9.184   1.743  32.418  0.00  0.00    -0.270 OA
ATOM      3  C   LIG    1       10.232   2.161  32.875  0.00  0.00    +0.252 C 
ATOM      4  N   LIG    1       11.221   2.842  32.239  0.00  0.00    -0.200 N 
ATOM      5  C   LIG    1       12.228   3.137  33.102  0.00  0.00    +0.252 C 
ATOM      6  O   LIG    1       13.277   3.730  32.928  0.00  0.00    -0.270 OA
ATOM      7  C   LIG    1       11.837   2.588  34.404  0.00  0.00    +0.023 C 
ATOM      8  C   LIG    1       12.636   2.674  35.636  0.00  0.00    +0.041 C 
ATOM      9  C   LIG    1       12.014   1.946  36.834  0.00  0.00    +0.005 C 
ATOM     10  C   LIG    1       10.588   1.373  36.714  0.00  0.00    +0.005 C 
ATOM     11  C   LIG    1        9.906   1.318  35.338  0.00  0.00    +0.041 C 
ATOM     12  C   LIG    1       10.652   2.003  34.270  0.00  0.00    +0.023 C 
ENDBRANCH   1   4
BRANCH   1  13
ATOM     13  O   LIG    1       11.714   2.126  30.060  0.00  0.00    -0.444 OA
BRANCH  13  14
ATOM     14  C   LIG    1       11.058   1.826  28.920  0.00  0.00    +0.313 C 
ATOM     15  O   LIG    1       11.428   2.100  27.786  0.00  0.00    -0.250 OA
BRANCH  14  16
ATOM     16  C   LIG    1        9.835   1.053  29.236  0.00  0.00    +0.111 C 
ATOM     17  C   LIG    1        9.030   0.210  28.260  0.00  0.00    -0.014 C 
ATOM     18  C   LIG    1        8.373  -1.032  28.823  0.00  0.00    +0.012 C 
ATOM     19  C   LIG    1        9.480   0.029  26.831  0.00  0.00    +0.012 C 
ATOM     20  C   LIG    1        8.479   1.538  28.749  0.00  0.00    +0.032 C 
BRANCH  20  21
ATOM     21  C   LIG    1        8.397   2.730  27.889  0.00  0.00    -0.023 C 
ATOM     22  C   LIG    1        7.409   3.036  27.024  0.00  0.00    -0.079 C 
ATOM     23  C   LIG    1        7.450   4.298  26.205  0.00  0.00    +0.038 C 
ATOM     24  C   LIG    1        6.201   2.173  26.787  0.00  0.00    +0.038 C 
ENDBRANCH  20  21
ENDBRANCH  14  16
ENDBRANCH  13  14
ENDBRANCH   1  13
TORSDOF 5
ENDMDL
MODEL 3
REMARK VINA RESULT:      -8.8      4.288      7.416
REMARK  Name = 
REMARK                            x       y       z     vdW  Elec       q    Type
REMARK                         _______ _______ _______ _____ _____    ______ ____
ROOT
ATOM      1  C   LIG    1        6.585   3.516  25.747  0.00  0.00    +0.352 C 
ENDROOT
BRANCH   1   4
ATOM      2  O   LIG    1        7.883   6.066  25.263  0.00  0.00    -0.270 OA
ATOM      3  C   LIG    1        7.022   5.908  26.108  0.00  0.00    +0.252 C 
ATOM      4  N   LIG    1        6.349   4.771  26.428  0.00  0.00    -0.200 N 
ATOM      5  C   LIG    1        5.467   5.006  27.435  0.00  0.00    +0.252 C 
ATOM      6  O   LIG    1        4.689   4.261  28.003  0.00  0.00    -0.270 OA
ATOM      7  C   LIG    1        5.596   6.426  27.779  0.00  0.00    +0.023 C 
ATOM      8  C   LIG    1        4.824   7.119  28.822  0.00  0.00    +0.041 C 
ATOM      9  C   LIG    1        5.113   8.623  28.915  0.00  0.00    +0.005 C 
ATOM     10  C   LIG    1        6.264   9.225  28.085  0.00  0.00    +0.005 C 
ATOM     11  C   LIG    1        6.943   8.373  27.000  0.00  0.00    +0.041 C 
ATOM     12  C   LIG    1        6.516   6.965  26.988  0.00  0.00    +0.023 C 
ENDBRANCH   1   4
BRANCH   1  13
ATOM     13  O   LIG    1        7.758   2.904  26.252  0.00  0.00    -0.444 OA
BRANCH  13  14
ATOM     14  C   LIG    1        7.556   1.823  27.034  0.00  0.00    +0.313 C 
ATOM     15  O   LIG    1        6.636   1.671  27.826  0.00  0.00    -0.250 OA
BRANCH  14  16
ATOM     16  C   LIG    1        8.590   0.802  26.750  0.00  0.00    +0.111 C 
ATOM     17  C   LIG    1        8.996  -0.343  27.664  0.00  0.00    -0.014 C 
ATOM     18  C   LIG    1        9.417  -1.631  26.989  0.00  0.00    +0.012 C 
ATOM     19  C   LIG    1        8.286  -0.582  28.974  0.00  0.00    +0.012 C 
ATOM     20  C   LIG    1        9.924   0.844  27.478  0.00  0.00    +0.032 C 
BRANCH  20  21
ATOM     21  C   LIG    1       10.150   1.850  28.528  0.00  0.00    -0.023 C 
ATOM     22  C   LIG    1       11.337   2.240  29.034  0.00  0.00    -0.079 C 
ATOM     23  C   LIG    1       11.424   3.288  30.109  0.00  0.00    +0.038 C 
ATOM     24  C   LIG    1       12.663   1.681  28.594  0.00  0.00    +0.038 C 
ENDBRANCH  20  21
ENDBRANCH  14  16
ENDBRANCH  13  14
ENDBRANCH   1  13
TORSDOF 5
ENDMDL
MODEL 4
REMARK VINA RESULT:      -8.8      4.361      7.594
REMARK  Name = 
REMARK                            x       y       z     vdW  Elec       q    Type
REMARK                         _______ _______ _______ _____ _____    ______ ____
ROOT
ATOM      1  C   LIG    1        6.483   3.512  25.763  0.00  0.00    +0.352 C 
ENDROOT
BRANCH   1   4
ATOM      2  O   LIG    1        4.654   4.246  27.894  0.00  0.00    -0.270 OA
ATOM      3  C   LIG    1        5.431   5.031  27.383  0.00  0.00    +0.252 C 
ATOM      4  N   LIG    1        6.325   4.810  26.384  0.00  0.00    -0.200 N 
ATOM      5  C   LIG    1        7.006   5.949  26.092  0.00  0.00    +0.252 C 
ATOM      6  O   LIG    1        7.877   6.168  25.270  0.00  0.00    -0.270 OA
ATOM      7  C   LIG    1        6.492   6.985  26.994  0.00  0.00    +0.023 C 
ATOM      8  C   LIG    1        6.950   8.383  27.028  0.00  0.00    +0.041 C 
ATOM      9  C   LIG    1        6.288   9.228  28.124  0.00  0.00    +0.005 C 
ATOM     10  C   LIG    1        5.122   8.634  28.938  0.00  0.00    +0.005 C 
ATOM     11  C   LIG    1        4.798   7.136  28.816  0.00  0.00    +0.041 C 
ATOM     12  C   LIG    1        5.559   6.440  27.766  0.00  0.00    +0.023 C 
ENDBRANCH   1   4
BRANCH   1  13
ATOM     13  O   LIG    1        7.676   2.900  26.219  0.00  0.00    -0.444 OA
BRANCH  13  14
ATOM     14  C   LIG    1        7.508   1.842  27.040  0.00  0.00    +0.313 C 
ATOM     15  O   LIG    1        6.613   1.708  27.863  0.00  0.00    -0.250 OA
BRANCH  14  16
ATOM     16  C   LIG    1        8.542   0.821  26.756  0.00  0.00    +0.111 C 
ATOM     17  C   LIG    1        9.000  -0.279  27.700  0.00  0.00    -0.014 C 
ATOM     18  C   LIG    1        9.408  -1.590  27.063  0.00  0.00    +0.012 C 
ATOM     19  C   LIG    1        8.350  -0.469  29.048  0.00  0.00    +0.012 C 
ATOM     20  C   LIG    1        9.905   0.909  27.423  0.00  0.00    +0.032 C 
BRANCH  20  21
ATOM     21  C   LIG    1       10.162   1.962  28.420  0.00  0.00    -0.023 C 
ATOM     22  C   LIG    1       11.352   2.291  28.961  0.00  0.00    -0.079 C 
ATOM     23  C   LIG    1       11.473   3.398  29.972  0.00  0.00    +0.038 C 
ATOM     24  C   LIG    1       12.647   1.602  28.627  0.00  0.00    +0.038 C 
ENDBRANCH  20  21
ENDBRANCH  14  16
ENDBRANCH  13  14
ENDBRANCH   1  13
TORSDOF 5
ENDMDL
MODEL 5
REMARK VINA RESULT:      -8.6      1.459      2.755
REMARK  Name = 
REMARK                            x       y       z     vdW  Elec       q    Type
REMARK                         _______ _______ _______ _____ _____    ______ ____
ROOT
ATOM      1  C   LIG    1       11.359   1.983  30.409  0.00  0.00    +0.352 C 
ENDROOT
BRANCH   1   4
ATOM      2  O   LIG    1        9.587   0.607  32.249  0.00  0.00    -0.270 OA
ATOM      3  C   LIG    1       10.450   1.384  32.612  0.00  0.00    +0.252 C 
ATOM      4  N   LIG    1       11.331   2.087  31.852  0.00  0.00    -0.200 N 
ATOM      5  C   LIG    1       12.133   2.853  32.637  0.00  0.00    +0.252 C 
ATOM      6  O   LIG    1       13.034   3.618  32.347  0.00  0.00    -0.270 OA
ATOM      7  C   LIG    1       11.719   2.607  34.022  0.00  0.00    +0.023 C 
ATOM      8  C   LIG    1       12.322   3.231  35.211  0.00  0.00    +0.041 C 
ATOM      9  C   LIG    1       11.738   2.733  36.539  0.00  0.00    +0.005 C 
ATOM     10  C   LIG    1       10.503   1.810  36.524  0.00  0.00    +0.005 C 
ATOM     11  C   LIG    1       10.023   1.206  35.195  0.00  0.00    +0.041 C 
ATOM     12  C   LIG    1       10.721   1.731  34.010  0.00  0.00    +0.023 C 
ENDBRANCH   1   4
BRANCH   1  13
ATOM     13  O   LIG    1       10.162   2.507  29.862  0.00  0.00    -0.444 OA
BRANCH  13  14
ATOM     14  C   LIG    1        9.516   1.697  28.998  0.00  0.00    +0.313 C 
ATOM     15  O   LIG    1        9.889   0.588  28.639  0.00  0.00    -0.250 OA
BRANCH  14  16
ATOM     16  C   LIG    1        8.240   2.323  28.585  0.00  0.00    +0.111 C 
ATOM     17  C   LIG    1        7.633   2.288  27.191  0.00  0.00    -0.014 C 
ATOM     18  C   LIG    1        6.121   2.257  27.114  0.00  0.00    +0.012 C 
ATOM     19  C   LIG    1        8.285   1.507  26.077  0.00  0.00    +0.012 C 
ATOM     20  C   LIG    1        8.249   3.572  27.718  0.00  0.00    +0.032 C 
BRANCH  20  21
ATOM     21  C   LIG    1        9.528   4.103  27.218  0.00  0.00    -0.023 C 
ATOM     22  C   LIG    1        9.701   4.969  26.199  0.00  0.00    -0.079 C 
ATOM     23  C   LIG    1       11.073   5.435  25.793  0.00  0.00    +0.038 C 
ATOM     24  C   LIG    1        8.577   5.539  25.379  0.00  0.00    +0.038 C 
ENDBRANCH  20  21
ENDBRANCH  14  16
ENDBRANCH  13  14
ENDBRANCH   1  13
TORSDOF 5
ENDMDL
MODEL 6
REMARK VINA RESULT:      -8.5      1.743      3.192
REMARK  Name = 
REMARK                            x       y       z     vdW  Elec       q    Type
REMARK                         _______ _______ _______ _____ _____    ______ ____
ROOT
ATOM      1  C   LIG    1       10.469   2.403  29.219  0.00  0.00    +0.352 C 
ENDROOT
BRANCH   1   4
ATOM      2  O   LIG    1        8.902   1.181  31.333  0.00  0.00    -0.270 OA
ATOM      3  C   LIG    1        9.944   1.775  31.536  0.00  0.00    +0.252 C 
ATOM      4  N   LIG    1       10.758   2.388  30.636  0.00  0.00    -0.200 N 
ATOM      5  C   LIG    1       11.828   2.945  31.263  0.00  0.00    +0.252 C 
ATOM      6  O   LIG    1       12.770   3.575  30.821  0.00  0.00    -0.270 OA
ATOM      7  C   LIG    1       11.672   2.653  32.692  0.00  0.00    +0.023 C 
ATOM      8  C   LIG    1       12.608   3.068  33.749  0.00  0.00    +0.041 C 
ATOM      9  C   LIG    1       12.233   2.561  35.147  0.00  0.00    +0.005 C 
ATOM     10  C   LIG    1       10.879   1.855  35.358  0.00  0.00    +0.005 C 
ATOM     11  C   LIG    1       10.036   1.451  34.138  0.00  0.00    +0.041 C 
ATOM     12  C   LIG    1       10.556   1.954  32.856  0.00  0.00    +0.023 C 
ENDBRANCH   1   4
BRANCH   1  13
ATOM     13  O   LIG    1       10.278   3.735  28.777  0.00  0.00    -0.444 OA
BRANCH  13  14
ATOM     14  C   LIG    1        9.506   3.878  27.681  0.00  0.00    +0.313 C 
ATOM     15  O   LIG    1        9.819   4.466  26.654  0.00  0.00    -0.250 OA
BRANCH  14  16
ATOM     16  C   LIG    1        8.226   3.159  27.875  0.00  0.00    +0.111 C 
ATOM     17  C   LIG    1        7.204   2.840  26.795  0.00  0.00    -0.014 C 
ATOM     18  C   LIG    1        6.439   1.543  26.952  0.00  0.00    +0.012 C 
ATOM     19  C   LIG    1        7.463   3.187  25.350  0.00  0.00    +0.012 C 
ATOM     20  C   LIG    1        6.910   3.919  27.823  0.00  0.00    +0.032 C 
BRANCH  20  21
ATOM     21  C   LIG    1        6.908   5.353  27.492  0.00  0.00    -0.023 C 
ATOM     22  C   LIG    1        5.902   6.228  27.692  0.00  0.00    -0.079 C 
ATOM     23  C   LIG    1        6.037   7.676  27.309  0.00  0.00    +0.038 C 
ATOM     24  C   LIG    1        4.575   5.860  28.297  0.00  0.00    +0.038 C 
ENDBRANCH  20  21
ENDBRANCH  14  16
ENDBRANCH  13  14
ENDBRANCH   1  13
TORSDOF 5
ENDMDL
MODEL 7
REMARK VINA RESULT:      -8.5      1.330      1.913
REMARK  Name = 
REMARK                            x       y       z     vdW  Elec       q    Type
REMARK                         _______ _______ _______ _____ _____    ______ ____
ROOT
ATOM      1  C   LIG    1       11.372   2.438  30.601  0.00  0.00    +0.352 C 
ENDROOT
BRANCH   1   4
ATOM      2  O   LIG    1       13.127   3.606  32.594  0.00  0.00    -0.270 OA
ATOM      3  C   LIG    1       12.164   2.918  32.877  0.00  0.00    +0.252 C 
ATOM      4  N   LIG    1       11.278   2.316  32.039  0.00  0.00    -0.200 N 
ATOM      5  C   LIG    1       10.344   1.628  32.748  0.00  0.00    +0.252 C 
ATOM      6  O   LIG    1        9.395   0.963  32.377  0.00  0.00    -0.270 OA
ATOM      7  C   LIG    1       10.673   1.816  34.164  0.00  0.00    +0.023 C 
ATOM      8  C   LIG    1        9.920   1.245  35.292  0.00  0.00    +0.041 C 
ATOM      9  C   LIG    1       10.448   1.667  36.670  0.00  0.00    +0.005 C 
ATOM     10  C   LIG    1       11.767   2.458  36.765  0.00  0.00    +0.005 C 
ATOM     11  C   LIG    1       12.407   3.024  35.487  0.00  0.00    +0.041 C 
ATOM     12  C   LIG    1       11.752   2.586  34.244  0.00  0.00    +0.023 C 
ENDBRANCH   1   4
BRANCH   1  13
ATOM     13  O   LIG    1       10.088   2.677  30.051  0.00  0.00    -0.444 OA
BRANCH  13  14
ATOM     14  C   LIG    1        9.653   1.751  29.171  0.00  0.00    +0.313 C 
ATOM     15  O   LIG    1       10.218   0.701  28.897  0.00  0.00    -0.250 OA
BRANCH  14  16
ATOM     16  C   LIG    1        8.341   2.163  28.621  0.00  0.00    +0.111 C 
ATOM     17  C   LIG    1        7.833   1.888  27.215  0.00  0.00    -0.014 C 
ATOM     18  C   LIG    1        6.343   1.663  27.067  0.00  0.00    +0.012 C 
ATOM     19  C   LIG    1        8.640   1.066  26.241  0.00  0.00    +0.012 C 
ATOM     20  C   LIG    1        8.262   3.291  27.606  0.00  0.00    +0.032 C 
BRANCH  20  21
ATOM     21  C   LIG    1        9.499   3.912  27.107  0.00  0.00    -0.023 C 
ATOM     22  C   LIG    1        9.598   4.909  26.204  0.00  0.00    -0.079 C 
ATOM     23  C   LIG    1       10.935   5.455  25.784  0.00  0.00    +0.038 C 
ATOM     24  C   LIG    1        8.417   5.557  25.534  0.00  0.00    +0.038 C 
ENDBRANCH  20  21
ENDBRANCH  14  16
ENDBRANCH  13  14
ENDBRANCH   1  13
TORSDOF 5
ENDMDL
MODEL 8
REMARK VINA RESULT:      -8.4      2.126      4.265
REMARK  Name = 
REMARK                            x       y       z     vdW  Elec       q    Type
REMARK                         _______ _______ _______ _____ _____    ______ ____
ROOT
ATOM      1  C   LIG    1        9.519   1.688  28.384  0.00  0.00    +0.352 C 
ENDROOT
BRANCH   1   4
ATOM      2  O   LIG    1        8.766   0.505  30.925  0.00  0.00    -0.270 OA
ATOM      3  C   LIG    1        9.669   1.312  30.808  0.00  0.00    +0.252 C 
ATOM      4  N   LIG    1       10.109   1.935  29.683  0.00  0.00    -0.200 N 
ATOM      5  C   LIG    1       11.139   2.773  29.972  0.00  0.00    +0.252 C 
ATOM      6  O   LIG    1       11.797   3.503  29.254  0.00  0.00    -0.270 OA
ATOM      7  C   LIG    1       11.370   2.666  31.416  0.00  0.00    +0.023 C 
ATOM      8  C   LIG    1       12.399   3.402  32.167  0.00  0.00    +0.041 C 
ATOM      9  C   LIG    1       12.463   3.039  33.656  0.00  0.00    +0.005 C 
ATOM     10  C   LIG    1       11.380   2.123  34.259  0.00  0.00    +0.005 C 
ATOM     11  C   LIG    1       10.400   1.391  33.326  0.00  0.00    +0.041 C 
ATOM     12  C   LIG    1       10.501   1.795  31.915  0.00  0.00    +0.023 C 
ENDBRANCH   1   4
BRANCH   1  13
ATOM     13  O   LIG    1        8.573   2.698  28.083  0.00  0.00    -0.444 OA
BRANCH  13  14
ATOM     14  C   LIG    1        7.690   2.394  27.110  0.00  0.00    +0.313 C 
ATOM     15  O   LIG    1        6.945   1.423  27.095  0.00  0.00    -0.250 OA
BRANCH  14  16
ATOM     16  C   LIG    1        7.705   3.450  26.073  0.00  0.00    +0.111 C 
ATOM     17  C   LIG    1        8.271   4.852  26.229  0.00  0.00    -0.014 C 
ATOM     18  C   LIG    1        8.895   5.470  24.995  0.00  0.00    +0.012 C 
ATOM     19  C   LIG    1        8.964   5.275  27.500  0.00  0.00    +0.012 C 
ATOM     20  C   LIG    1        6.768   4.642  26.184  0.00  0.00    +0.032 C 
BRANCH  20  21
ATOM     21  C   LIG    1        5.910   4.786  27.371  0.00  0.00    -0.023 C 
ATOM     22  C   LIG    1        5.492   5.939  27.932  0.00  0.00    -0.079 C 
ATOM     23  C   LIG    1        4.608   5.941  29.149  0.00  0.00    +0.038 C 
ATOM     24  C   LIG    1        5.859   7.305  27.421  0.00  0.00    +0.038 C 
ENDBRANCH  20  21
ENDBRANCH  14  16
ENDBRANCH  13  14
ENDBRANCH   1  13
TORSDOF 5
ENDMDL
MODEL 9
REMARK VINA RESULT:      -8.4      2.388      4.224
REMARK  Name = 
REMARK                            x       y       z     vdW  Elec       q    Type
REMARK                         _______ _______ _______ _____ _____    ______ ____
ROOT
ATOM      1  C   LIG    1        9.671   1.959  27.896  0.00  0.00    +0.352 C 
ENDROOT
BRANCH   1   4
ATOM      2  O   LIG    1       11.602   3.764  29.090  0.00  0.00    -0.270 OA
ATOM      3  C   LIG    1       10.997   2.922  29.726  0.00  0.00    +0.252 C 
ATOM      4  N   LIG    1       10.079   2.023  29.282  0.00  0.00    -0.200 N 
ATOM      5  C   LIG    1        9.637   1.248  30.307  0.00  0.00    +0.252 C 
ATOM      6  O   LIG    1        8.828   0.338  30.325  0.00  0.00    -0.270 OA
ATOM      7  C   LIG    1       10.341   1.703  31.509  0.00  0.00    +0.023 C 
ATOM      8  C   LIG    1       10.168   1.141  32.858  0.00  0.00    +0.041 C 
ATOM      9  C   LIG    1       10.980   1.862  33.942  0.00  0.00    +0.005 C 
ATOM     10  C   LIG    1       12.004   2.938  33.531  0.00  0.00    +0.005 C 
ATOM     11  C   LIG    1       12.027   3.448  32.081  0.00  0.00    +0.041 C 
ATOM     12  C   LIG    1       11.147   2.702  31.167  0.00  0.00    +0.023 C 
ENDBRANCH   1   4
BRANCH   1  13
ATOM     13  O   LIG    1        8.781   3.022  27.603  0.00  0.00    -0.444 OA
BRANCH  13  14
ATOM     14  C   LIG    1        7.528   2.653  27.265  0.00  0.00    +0.313 C 
ATOM     15  O   LIG    1        6.943   1.654  27.661  0.00  0.00    -0.250 OA
BRANCH  14  16
ATOM     16  C   LIG    1        6.928   3.677  26.381  0.00  0.00    +0.111 C 
ATOM     17  C   LIG    1        7.131   5.180  26.481  0.00  0.00    -0.014 C 
ATOM     18  C   LIG    1        7.131   5.951  25.178  0.00  0.00    +0.012 C 
ATOM     19  C   LIG    1        8.071   5.773  27.502  0.00  0.00    +0.012 C 
ATOM     20  C   LIG    1        5.806   4.565  26.894  0.00  0.00    +0.032 C 
BRANCH  20  21
ATOM     21  C   LIG    1        5.381   4.463  28.300  0.00  0.00    -0.023 C 
ATOM     22  C   LIG    1        4.710   5.392  29.012  0.00  0.00    -0.079 C 
ATOM     23  C   LIG    1        4.333   5.154  30.448  0.00  0.00    +0.038 C 
ATOM     24  C   LIG    1        4.287   6.727  28.464  0.00  0.00    +0.038 C 
ENDBRANCH  20  21
ENDBRANCH  14  16
ENDBRANCH  13  14
ENDBRANCH   1  13
TORSDOF 5
ENDMDL
