MODEL 1
REMARK VINA RESULT:      -2.2      0.000      0.000
REMARK  Name = 
REMARK                            x       y       z     vdW  Elec       q    Type
REMARK                         _______ _______ _______ _____ _____    ______ ____
ROOT
ATOM      1  C   LIG    1       16.152   6.255  54.535  0.00  0.00    +0.352 C 
ENDROOT
BRANCH   1   4
ATOM      2  O   LIG    1       16.103   6.992  51.729  0.00  0.00    -0.270 OA
ATOM      3  C   LIG    1       17.119   6.664  52.313  0.00  0.00    +0.252 C 
ATOM      4  N   LIG    1       17.267   6.296  53.614  0.00  0.00    -0.200 N 
ATOM      5  C   LIG    1       18.565   5.996  53.880  0.00  0.00    +0.252 C 
ATOM      6  O   LIG    1       19.102   5.629  54.908  0.00  0.00    -0.270 OA
ATOM      7  C   LIG    1       19.304   6.197  52.629  0.00  0.00    +0.023 C 
ATOM      8  C   LIG    1       20.751   5.990  52.457  0.00  0.00    +0.041 C 
ATOM      9  C   LIG    1       21.268   6.346  51.057  0.00  0.00    +0.005 C 
ATOM     10  C   LIG    1       20.261   6.694  49.944  0.00  0.00    +0.005 C 
ATOM     11  C   LIG    1       18.783   6.919  50.301  0.00  0.00    +0.041 C 
ATOM     12  C   LIG    1       18.447   6.598  51.698  0.00  0.00    +0.023 C 
ENDBRANCH   1   4
BRANCH   1  13
ATOM     13  O   LIG    1       15.104   5.470  53.994  0.00  0.00    -0.444 OA
BRANCH  13  14
ATOM     14  C   LIG    1       15.261   4.135  54.106  0.00  0.00    +0.313 C 
ATOM     15  O   LIG    1       15.563   3.532  55.128  0.00  0.00    -0.250 OA
BRANCH  14  16
ATOM     16  C   LIG    1       14.953   3.485  52.813  0.00  0.00    +0.111 C 
ATOM     17  C   LIG    1       14.813   1.991  52.571  0.00  0.00    -0.014 C 
ATOM     18  C   LIG    1       13.805   1.567  51.523  0.00  0.00    +0.012 C 
ATOM     19  C   LIG    1       14.912   1.005  53.708  0.00  0.00    +0.012 C 
ATOM     20  C   LIG    1       16.037   2.730  52.061  0.00  0.00    +0.032 C 
BRANCH  20  21
ATOM     21  C   LIG    1       17.370   2.573  52.666  0.00  0.00    -0.023 C 
ATOM     22  C   LIG    1       18.561   2.725  52.052  0.00  0.00    -0.079 C 
ATOM     23  C   LIG    1       19.854   2.538  52.796  0.00  0.00    +0.038 C 
ATOM     24  C   LIG    1       18.718   3.081  50.599  0.00  0.00    +0.038 C 
ENDBRANCH  20  21
ENDBRANCH  14  16
ENDBRANCH  13  14
ENDBRANCH   1  13
TORSDOF 5
ENDMDL
MODEL 2
REMARK VINA RESULT:      -2.2      3.197      5.434
REMARK  Name = 
REMARK                            x       y       z     vdW  Elec       q    Type
REMARK                         _______ _______ _______ _____ _____    ______ ____
ROOT
ATOM      1  C   LIG    1       18.720   3.290  52.737  0.00  0.00    +0.352 C 
ENDROOT
BRANCH   1   4
ATOM      2  O   LIG    1       17.797   4.435  55.238  0.00  0.00    -0.270 OA
ATOM      3  C   LIG    1       18.277   3.321  55.154  0.00  0.00    +0.252 C 
ATOM      4  N   LIG    1       18.746   2.681  54.049  0.00  0.00    -0.200 N 
ATOM      5  C   LIG    1       19.209   1.446  54.374  0.00  0.00    +0.252 C 
ATOM      6  O   LIG    1       19.704   0.574  53.683  0.00  0.00    -0.270 OA
ATOM      7  C   LIG    1       19.011   1.292  55.819  0.00  0.00    +0.023 C 
ATOM      8  C   LIG    1       19.371   0.099  56.602  0.00  0.00    +0.041 C 
ATOM      9  C   LIG    1       18.983   0.187  58.084  0.00  0.00    +0.005 C 
ATOM     10  C   LIG    1       18.448   1.518  58.648  0.00  0.00    +0.005 C 
ATOM     11  C   LIG    1       18.080   2.658  57.685  0.00  0.00    +0.041 C 
ATOM     12  C   LIG    1       18.453   2.404  56.284  0.00  0.00    +0.023 C 
ENDBRANCH   1   4
BRANCH   1  13
ATOM     13  O   LIG    1       17.863   2.557  51.880  0.00  0.00    -0.444 OA
BRANCH  13  14
ATOM     14  C   LIG    1       16.549   2.843  51.991  0.00  0.00    +0.313 C 
ATOM     15  O   LIG    1       16.076   3.904  52.376  0.00  0.00    -0.250 OA
BRANCH  14  16
ATOM     16  C   LIG    1       15.746   1.695  51.514  0.00  0.00    +0.111 C 
ATOM     17  C   LIG    1       14.265   1.467  51.772  0.00  0.00    -0.014 C 
ATOM     18  C   LIG    1       13.486   0.778  50.672  0.00  0.00    +0.012 C 
ATOM     19  C   LIG    1       13.438   2.487  52.515  0.00  0.00    +0.012 C 
ATOM     20  C   LIG    1       15.299   0.619  52.490  0.00  0.00    +0.032 C 
BRANCH  20  21
ATOM     21  C   LIG    1       15.593   0.769  53.925  0.00  0.00    -0.023 C 
ATOM     22  C   LIG    1       14.976   0.143  54.947  0.00  0.00    -0.079 C 
ATOM     23  C   LIG    1       15.382   0.387  56.375  0.00  0.00    +0.038 C 
ATOM     24  C   LIG    1       13.844  -0.833  54.775  0.00  0.00    +0.038 C 
ENDBRANCH  20  21
ENDBRANCH  14  16
ENDBRANCH  13  14
ENDBRANCH   1  13
TORSDOF 5
ENDMDL
MODEL 3
REMARK VINA RESULT:      -2.1      2.132      5.519
REMARK  Name = 
REMARK                            x       y       z     vdW  Elec       q    Type
REMARK                         _______ _______ _______ _____ _____    ______ ____
ROOT
ATOM      1  C   LIG    1       16.282   3.079  55.149  0.00  0.00    +0.352 C 
ENDROOT
BRANCH   1   4
ATOM      2  O   LIG    1       14.469   3.788  52.997  0.00  0.00    -0.270 OA
ATOM      3  C   LIG    1       14.922   2.668  53.143  0.00  0.00    +0.252 C 
ATOM      4  N   LIG    1       15.769   2.217  54.106  0.00  0.00    -0.200 N 
ATOM      5  C   LIG    1       16.036   0.896  53.926  0.00  0.00    +0.252 C 
ATOM      6  O   LIG    1       16.735   0.131  54.564  0.00  0.00    -0.270 OA
ATOM      7  C   LIG    1       15.288   0.478  52.736  0.00  0.00    +0.023 C 
ATOM      8  C   LIG    1       15.286  -0.879  52.169  0.00  0.00    +0.041 C 
ATOM      9  C   LIG    1       14.471  -1.013  50.876  0.00  0.00    +0.005 C 
ATOM     10  C   LIG    1       13.610   0.172  50.398  0.00  0.00    +0.005 C 
ATOM     11  C   LIG    1       13.764   1.544  51.076  0.00  0.00    +0.041 C 
ATOM     12  C   LIG    1       14.629   1.531  52.266  0.00  0.00    +0.023 C 
ENDBRANCH   1   4
BRANCH   1  13
ATOM     13  O   LIG    1       17.663   3.319  54.943  0.00  0.00    -0.444 OA
BRANCH  13  14
ATOM     14  C   LIG    1       17.972   4.532  54.440  0.00  0.00    +0.313 C 
ATOM     15  O   LIG    1       18.115   5.561  55.087  0.00  0.00    -0.250 OA
BRANCH  14  16
ATOM     16  C   LIG    1       18.178   4.429  52.978  0.00  0.00    +0.111 C 
ATOM     17  C   LIG    1       18.877   3.293  52.248  0.00  0.00    -0.014 C 
ATOM     18  C   LIG    1       18.352   2.950  50.870  0.00  0.00    +0.012 C 
ATOM     19  C   LIG    1       19.380   2.081  52.993  0.00  0.00    +0.012 C 
ATOM     20  C   LIG    1       19.562   4.642  52.386  0.00  0.00    +0.032 C 
BRANCH  20  21
ATOM     21  C   LIG    1       20.711   4.862  53.279  0.00  0.00    -0.023 C 
ATOM     22  C   LIG    1       22.011   4.652  52.992  0.00  0.00    -0.079 C 
ATOM     23  C   LIG    1       23.091   4.925  54.003  0.00  0.00    +0.038 C 
ATOM     24  C   LIG    1       22.507   4.130  51.671  0.00  0.00    +0.038 C 
ENDBRANCH  20  21
ENDBRANCH  14  16
ENDBRANCH  13  14
ENDBRANCH   1  13
TORSDOF 5
ENDMDL
MODEL 4
REMARK VINA RESULT:      -2.0      2.028      3.688
REMARK  Name = 
REMARK                            x       y       z     vdW  Elec       q    Type
REMARK                         _______ _______ _______ _____ _____    ______ ____
ROOT
ATOM      1  C   LIG    1       17.040   1.952  52.506  0.00  0.00    +0.352 C 
ENDROOT
BRANCH   1   4
ATOM      2  O   LIG    1       18.460   2.739  50.101  0.00  0.00    -0.270 OA
ATOM      3  C   LIG    1       18.815   3.061  51.219  0.00  0.00    +0.252 C 
ATOM      4  N   LIG    1       18.241   2.753  52.412  0.00  0.00    -0.200 N 
ATOM      5  C   LIG    1       18.947   3.300  53.437  0.00  0.00    +0.252 C 
ATOM      6  O   LIG    1       18.767   3.256  54.640  0.00  0.00    -0.270 OA
ATOM      7  C   LIG    1       20.070   4.022  52.831  0.00  0.00    +0.023 C 
ATOM      8  C   LIG    1       21.096   4.771  53.574  0.00  0.00    +0.041 C 
ATOM      9  C   LIG    1       22.112   5.490  52.677  0.00  0.00    +0.005 C 
ATOM     10  C   LIG    1       22.095   5.235  51.158  0.00  0.00    +0.005 C 
ATOM     11  C   LIG    1       20.922   4.465  50.531  0.00  0.00    +0.041 C 
ATOM     12  C   LIG    1       19.991   3.885  51.512  0.00  0.00    +0.023 C 
ENDBRANCH   1   4
BRANCH   1  13
ATOM     13  O   LIG    1       16.265   2.369  53.616  0.00  0.00    -0.444 OA
BRANCH  13  14
ATOM     14  C   LIG    1       15.280   3.248  53.338  0.00  0.00    +0.313 C 
ATOM     15  O   LIG    1       14.369   3.075  52.539  0.00  0.00    -0.250 OA
BRANCH  14  16
ATOM     16  C   LIG    1       15.424   4.447  54.194  0.00  0.00    +0.111 C 
ATOM     17  C   LIG    1       14.593   5.718  54.105  0.00  0.00    -0.014 C 
ATOM     18  C   LIG    1       14.322   6.440  55.408  0.00  0.00    +0.012 C 
ATOM     19  C   LIG    1       13.447   5.833  53.131  0.00  0.00    +0.012 C 
ATOM     20  C   LIG    1       16.035   5.719  53.628  0.00  0.00    +0.032 C 
BRANCH  20  21
ATOM     21  C   LIG    1       16.401   5.781  52.204  0.00  0.00    -0.023 C 
ATOM     22  C   LIG    1       17.426   6.468  51.661  0.00  0.00    -0.079 C 
ATOM     23  C   LIG    1       17.691   6.440  50.181  0.00  0.00    +0.038 C 
ATOM     24  C   LIG    1       18.383   7.317  52.453  0.00  0.00    +0.038 C 
ENDBRANCH  20  21
ENDBRANCH  14  16
ENDBRANCH  13  14
ENDBRANCH   1  13
TORSDOF 5
ENDMDL
MODEL 5
REMARK VINA RESULT:      -2.0      2.259      3.269
REMARK  Name = 
REMARK                            x       y       z     vdW  Elec       q    Type
REMARK                         _______ _______ _______ _____ _____    ______ ____
ROOT
ATOM      1  C   LIG    1       18.975   2.887  55.426  0.00  0.00    +0.352 C 
ENDROOT
BRANCH   1   4
ATOM      2  O   LIG    1       19.778   5.512  54.485  0.00  0.00    -0.270 OA
ATOM      3  C   LIG    1       20.242   4.477  54.045  0.00  0.00    +0.252 C 
ATOM      4  N   LIG    1       19.946   3.198  54.398  0.00  0.00    -0.200 N 
ATOM      5  C   LIG    1       20.678   2.319  53.666  0.00  0.00    +0.252 C 
ATOM      6  O   LIG    1       20.705   1.102  53.677  0.00  0.00    -0.270 OA
ATOM      7  C   LIG    1       21.517   3.120  52.768  0.00  0.00    +0.023 C 
ATOM      8  C   LIG    1       22.475   2.577  51.793  0.00  0.00    +0.041 C 
ATOM      9  C   LIG    1       23.271   3.650  51.038  0.00  0.00    +0.005 C 
ATOM     10  C   LIG    1       22.893   5.134  51.211  0.00  0.00    +0.005 C 
ATOM     11  C   LIG    1       21.899   5.541  52.311  0.00  0.00    +0.041 C 
ATOM     12  C   LIG    1       21.262   4.404  52.995  0.00  0.00    +0.023 C 
ENDBRANCH   1   4
BRANCH   1  13
ATOM     13  O   LIG    1       17.667   3.154  54.953  0.00  0.00    -0.444 OA
BRANCH  13  14
ATOM     14  C   LIG    1       16.998   2.089  54.466  0.00  0.00    +0.313 C 
ATOM     15  O   LIG    1       17.320   0.917  54.600  0.00  0.00    -0.250 OA
BRANCH  14  16
ATOM     16  C   LIG    1       15.764   2.544  53.785  0.00  0.00    +0.111 C 
ATOM     17  C   LIG    1       14.932   1.736  52.802  0.00  0.00    -0.014 C 
ATOM     18  C   LIG    1       13.438   1.980  52.820  0.00  0.00    +0.012 C 
ATOM     19  C   LIG    1       15.280   0.304  52.480  0.00  0.00    +0.012 C 
ATOM     20  C   LIG    1       15.791   2.886  52.305  0.00  0.00    +0.032 C 
BRANCH  20  21
ATOM     21  C   LIG    1       17.026   2.679  51.531  0.00  0.00    -0.023 C 
ATOM     22  C   LIG    1       17.881   3.629  51.101  0.00  0.00    -0.079 C 
ATOM     23  C   LIG    1       19.116   3.275  50.319  0.00  0.00    +0.038 C 
ATOM     24  C   LIG    1       17.693   5.101  51.344  0.00  0.00    +0.038 C 
ENDBRANCH  20  21
ENDBRANCH  14  16
ENDBRANCH  13  14
ENDBRANCH   1  13
TORSDOF 5
ENDMDL
MODEL 6
REMARK VINA RESULT:      -2.0      2.633      3.840
REMARK  Name = 
REMARK                            x       y       z     vdW  Elec       q    Type
REMARK                         _______ _______ _______ _____ _____    ______ ____
ROOT
ATOM      1  C   LIG    1       18.677   3.209  53.180  0.00  0.00    +0.352 C 
ENDROOT
BRANCH   1   4
ATOM      2  O   LIG    1       19.433   5.220  51.229  0.00  0.00    -0.270 OA
ATOM      3  C   LIG    1       20.196   4.360  51.628  0.00  0.00    +0.252 C 
ATOM      4  N   LIG    1       19.959   3.369  52.529  0.00  0.00    -0.200 N 
ATOM      5  C   LIG    1       21.071   2.607  52.702  0.00  0.00    +0.252 C 
ATOM      6  O   LIG    1       21.268   1.636  53.408  0.00  0.00    -0.270 OA
ATOM      7  C   LIG    1       22.105   3.173  51.829  0.00  0.00    +0.023 C 
ATOM      8  C   LIG    1       23.478   2.660  51.698  0.00  0.00    +0.041 C 
ATOM      9  C   LIG    1       24.367   3.494  50.767  0.00  0.00    +0.005 C 
ATOM     10  C   LIG    1       23.739   4.631  49.938  0.00  0.00    +0.005 C 
ATOM     11  C   LIG    1       22.297   5.075  50.230  0.00  0.00    +0.041 C 
ATOM     12  C   LIG    1       21.588   4.218  51.194  0.00  0.00    +0.023 C 
ENDBRANCH   1   4
BRANCH   1  13
ATOM     13  O   LIG    1       17.862   2.324  52.433  0.00  0.00    -0.444 OA
BRANCH  13  14
ATOM     14  C   LIG    1       16.605   2.753  52.196  0.00  0.00    +0.313 C 
ATOM     15  O   LIG    1       16.202   3.901  52.331  0.00  0.00    -0.250 OA
BRANCH  14  16
ATOM     16  C   LIG    1       15.783   1.634  51.682  0.00  0.00    +0.111 C 
ATOM     17  C   LIG    1       14.271   1.515  51.776  0.00  0.00    -0.014 C 
ATOM     18  C   LIG    1       13.575   0.819  50.626  0.00  0.00    +0.012 C 
ATOM     19  C   LIG    1       13.438   2.624  52.369  0.00  0.00    +0.012 C 
ATOM     20  C   LIG    1       15.156   0.643  52.649  0.00  0.00    +0.032 C 
BRANCH  20  21
ATOM     21  C   LIG    1       15.295   0.851  54.099  0.00  0.00    -0.023 C 
ATOM     22  C   LIG    1       16.215   0.294  54.912  0.00  0.00    -0.079 C 
ATOM     23  C   LIG    1       16.246   0.599  56.385  0.00  0.00    +0.038 C 
ATOM     24  C   LIG    1       17.274  -0.669  54.449  0.00  0.00    +0.038 C 
ENDBRANCH  20  21
ENDBRANCH  14  16
ENDBRANCH  13  14
ENDBRANCH   1  13
TORSDOF 5
ENDMDL
MODEL 7
REMARK VINA RESULT:      -1.9      1.969      5.668
REMARK  Name = 
REMARK                            x       y       z     vdW  Elec       q    Type
REMARK                         _______ _______ _______ _____ _____    ______ ____
ROOT
ATOM      1  C   LIG    1       16.640   3.452  55.213  0.00  0.00    +0.352 C 
ENDROOT
BRANCH   1   4
ATOM      2  O   LIG    1       17.017   0.603  54.807  0.00  0.00    -0.270 OA
ATOM      3  C   LIG    1       16.274   1.280  54.122  0.00  0.00    +0.252 C 
ATOM      4  N   LIG    1       16.019   2.613  54.210  0.00  0.00    -0.200 N 
ATOM      5  C   LIG    1       15.131   2.993  53.255  0.00  0.00    +0.252 C 
ATOM      6  O   LIG    1       14.654   4.084  53.000  0.00  0.00    -0.270 OA
ATOM      7  C   LIG    1       14.794   1.785  52.495  0.00  0.00    +0.023 C 
ATOM      8  C   LIG    1       13.859   1.731  51.360  0.00  0.00    +0.041 C 
ATOM      9  C   LIG    1       13.640   0.320  50.800  0.00  0.00    +0.005 C 
ATOM     10  C   LIG    1       14.510  -0.842  51.316  0.00  0.00    +0.005 C 
ATOM     11  C   LIG    1       15.408  -0.630  52.546  0.00  0.00    +0.041 C 
ATOM     12  C   LIG    1       15.468   0.765  53.011  0.00  0.00    +0.023 C 
ENDBRANCH   1   4
BRANCH   1  13
ATOM     13  O   LIG    1       18.005   3.657  54.894  0.00  0.00    -0.444 OA
BRANCH  13  14
ATOM     14  C   LIG    1       18.287   4.818  54.268  0.00  0.00    +0.313 C 
ATOM     15  O   LIG    1       18.499   5.894  54.812  0.00  0.00    -0.250 OA
BRANCH  14  16
ATOM     16  C   LIG    1       18.365   4.591  52.807  0.00  0.00    +0.111 C 
ATOM     17  C   LIG    1       18.995   3.392  52.117  0.00  0.00    -0.014 C 
ATOM     18  C   LIG    1       18.351   2.941  50.824  0.00  0.00    +0.012 C 
ATOM     19  C   LIG    1       19.558   2.242  52.915  0.00  0.00    +0.012 C 
ATOM     20  C   LIG    1       19.692   4.741  52.082  0.00  0.00    +0.032 C 
BRANCH  20  21
ATOM     21  C   LIG    1       20.915   5.024  52.851  0.00  0.00    -0.023 C 
ATOM     22  C   LIG    1       22.186   4.788  52.466  0.00  0.00    -0.079 C 
ATOM     23  C   LIG    1       23.349   5.132  53.355  0.00  0.00    +0.038 C 
ATOM     24  C   LIG    1       22.564   4.166  51.150  0.00  0.00    +0.038 C 
ENDBRANCH  20  21
ENDBRANCH  14  16
ENDBRANCH  13  14
ENDBRANCH   1  13
TORSDOF 5
ENDMDL
MODEL 8
REMARK VINA RESULT:      -1.9      2.251      4.894
REMARK  Name = 
REMARK                            x       y       z     vdW  Elec       q    Type
REMARK                         _______ _______ _______ _____ _____    ______ ____
ROOT
ATOM      1  C   LIG    1       16.981   3.536  51.940  0.00  0.00    +0.352 C 
ENDROOT
BRANCH   1   4
ATOM      2  O   LIG    1       16.190   5.221  54.165  0.00  0.00    -0.270 OA
ATOM      3  C   LIG    1       16.643   5.662  53.125  0.00  0.00    +0.252 C 
ATOM      4  N   LIG    1       17.042   4.979  52.019  0.00  0.00    -0.200 N 
ATOM      5  C   LIG    1       17.484   5.838  51.063  0.00  0.00    +0.252 C 
ATOM      6  O   LIG    1       17.916   5.629  49.945  0.00  0.00    -0.270 OA
ATOM      7  C   LIG    1       17.352   7.188  51.621  0.00  0.00    +0.023 C 
ATOM      8  C   LIG    1       17.718   8.432  50.926  0.00  0.00    +0.041 C 
ATOM      9  C   LIG    1       17.543   9.695  51.778  0.00  0.00    +0.005 C 
ATOM     10  C   LIG    1       16.857   9.591  53.154  0.00  0.00    +0.005 C 
ATOM     11  C   LIG    1       16.579   8.206  53.761  0.00  0.00    +0.041 C 
ATOM     12  C   LIG    1       16.857   7.085  52.849  0.00  0.00    +0.023 C 
ENDBRANCH   1   4
BRANCH   1  13
ATOM     13  O   LIG    1       18.106   3.043  51.233  0.00  0.00    -0.444 OA
BRANCH  13  14
ATOM     14  C   LIG    1       19.198   2.792  51.984  0.00  0.00    +0.313 C 
ATOM     15  O   LIG    1       19.244   2.058  52.962  0.00  0.00    -0.250 OA
BRANCH  14  16
ATOM     16  C   LIG    1       20.369   3.495  51.412  0.00  0.00    +0.111 C 
ATOM     17  C   LIG    1       21.786   3.472  51.962  0.00  0.00    -0.014 C 
ATOM     18  C   LIG    1       22.907   3.542  50.947  0.00  0.00    +0.012 C 
ATOM     19  C   LIG    1       22.143   2.627  53.160  0.00  0.00    +0.012 C 
ATOM     20  C   LIG    1       20.936   4.722  52.106  0.00  0.00    +0.032 C 
BRANCH  20  21
ATOM     21  C   LIG    1       20.372   5.156  53.395  0.00  0.00    -0.023 C 
ATOM     22  C   LIG    1       20.269   6.422  53.848  0.00  0.00    -0.079 C 
ATOM     23  C   LIG    1       19.664   6.726  55.191  0.00  0.00    +0.038 C 
ATOM     24  C   LIG    1       20.740   7.630  53.085  0.00  0.00    +0.038 C 
ENDBRANCH  20  21
ENDBRANCH  14  16
ENDBRANCH  13  14
ENDBRANCH   1  13
TORSDOF 5
ENDMDL
MODEL 9
REMARK VINA RESULT:      -1.9      2.172      3.296
REMARK  Name = 
REMARK                            x       y       z     vdW  Elec       q    Type
REMARK                         _______ _______ _______ _____ _____    ______ ____
ROOT
ATOM      1  C   LIG    1       17.601   1.912  55.307  0.00  0.00    +0.352 C 
ENDROOT
BRANCH   1   4
ATOM      2  O   LIG    1       16.021   4.325  55.625  0.00  0.00    -0.270 OA
ATOM      3  C   LIG    1       17.188   4.334  55.280  0.00  0.00    +0.252 C 
ATOM      4  N   LIG    1       18.024   3.279  55.093  0.00  0.00    -0.200 N 
ATOM      5  C   LIG    1       19.252   3.707  54.700  0.00  0.00    +0.252 C 
ATOM      6  O   LIG    1       20.264   3.086  54.432  0.00  0.00    -0.270 OA
ATOM      7  C   LIG    1       19.183   5.171  54.634  0.00  0.00    +0.023 C 
ATOM      8  C   LIG    1       20.294   6.056  54.251  0.00  0.00    +0.041 C 
ATOM      9  C   LIG    1       19.958   7.551  54.341  0.00  0.00    +0.005 C 
ATOM     10  C   LIG    1       18.507   7.984  54.627  0.00  0.00    +0.005 C 
ATOM     11  C   LIG    1       17.472   6.933  55.058  0.00  0.00    +0.041 C 
ATOM     12  C   LIG    1       17.958   5.546  54.983  0.00  0.00    +0.023 C 
ENDBRANCH   1   4
BRANCH   1  13
ATOM     13  O   LIG    1       17.778   1.159  54.121  0.00  0.00    -0.444 OA
BRANCH  13  14
ATOM     14  C   LIG    1       16.672   0.545  53.652  0.00  0.00    +0.313 C 
ATOM     15  O   LIG    1       16.492  -0.664  53.596  0.00  0.00    -0.250 OA
BRANCH  14  16
ATOM     16  C   LIG    1       15.664   1.558  53.266  0.00  0.00    +0.111 C 
ATOM     17  C   LIG    1       14.910   1.617  51.947  0.00  0.00    -0.014 C 
ATOM     18  C   LIG    1       13.492   2.143  52.003  0.00  0.00    +0.012 C 
ATOM     19  C   LIG    1       15.088   0.545  50.900  0.00  0.00    +0.012 C 
ATOM     20  C   LIG    1       16.009   2.623  52.238  0.00  0.00    +0.032 C 
BRANCH  20  21
ATOM     21  C   LIG    1       17.317   2.589  51.563  0.00  0.00    -0.023 C 
ATOM     22  C   LIG    1       18.049   3.648  51.162  0.00  0.00    -0.079 C 
ATOM     23  C   LIG    1       19.380   3.469  50.484  0.00  0.00    +0.038 C 
ATOM     24  C   LIG    1       17.622   5.080  51.338  0.00  0.00    +0.038 C 
ENDBRANCH  20  21
ENDBRANCH  14  16
ENDBRANCH  13  14
ENDBRANCH   1  13
TORSDOF 5
ENDMDL
