MODEL 1
REMARK VINA RESULT:      -8.1      0.000      0.000
REMARK  Name = 
REMARK                            x       y       z     vdW  Elec       q    Type
REMARK                         _______ _______ _______ _____ _____    ______ ____
ROOT
ATOM      1  C   LIG    1       28.578   2.813  19.710  0.00  0.00    +0.352 C 
ENDROOT
BRANCH   1   4
ATOM      2  O   LIG    1       31.312   2.196  20.461  0.00  0.00    -0.270 OA
ATOM      3  C   LIG    1       30.347   1.620  20.928  0.00  0.00    +0.252 C 
ATOM      4  N   LIG    1       29.030   1.814  20.654  0.00  0.00    -0.200 N 
ATOM      5  C   LIG    1       28.261   0.962  21.382  0.00  0.00    +0.252 C 
ATOM      6  O   LIG    1       27.053   0.819  21.423  0.00  0.00    -0.270 OA
ATOM      7  C   LIG    1       29.181   0.157  22.191  0.00  0.00    +0.023 C 
ATOM      8  C   LIG    1       28.779  -0.898  23.135  0.00  0.00    +0.041 C 
ATOM      9  C   LIG    1       29.950  -1.527  23.901  0.00  0.00    +0.005 C 
ATOM     10  C   LIG    1       31.395  -1.160  23.510  0.00  0.00    +0.005 C 
ATOM     11  C   LIG    1       31.645   0.002  22.534  0.00  0.00    +0.041 C 
ATOM     12  C   LIG    1       30.422   0.549  21.926  0.00  0.00    +0.023 C 
ENDBRANCH   1   4
BRANCH   1  13
ATOM     13  O   LIG    1       27.541   3.589  20.285  0.00  0.00    -0.444 OA
BRANCH  13  14
ATOM     14  C   LIG    1       26.379   3.604  19.599  0.00  0.00    +0.313 C 
ATOM     15  O   LIG    1       25.272   3.829  20.069  0.00  0.00    -0.250 OA
BRANCH  14  16
ATOM     16  C   LIG    1       26.644   3.365  18.162  0.00  0.00    +0.111 C 
ATOM     17  C   LIG    1       25.610   3.011  17.106  0.00  0.00    -0.014 C 
ATOM     18  C   LIG    1       25.858   3.546  15.712  0.00  0.00    +0.012 C 
ATOM     19  C   LIG    1       24.142   2.941  17.446  0.00  0.00    +0.012 C 
ATOM     20  C   LIG    1       26.584   1.955  17.600  0.00  0.00    +0.032 C 
BRANCH  20  21
ATOM     21  C   LIG    1       26.173   0.840  18.469  0.00  0.00    -0.023 C 
ATOM     22  C   LIG    1       26.368  -0.475  18.245  0.00  0.00    -0.079 C 
ATOM     23  C   LIG    1       25.899  -1.514  19.226  0.00  0.00    +0.038 C 
ATOM     24  C   LIG    1       27.050  -1.028  17.024  0.00  0.00    +0.038 C 
ENDBRANCH  20  21
ENDBRANCH  14  16
ENDBRANCH  13  14
ENDBRANCH   1  13
TORSDOF 5
ENDMDL
MODEL 2
REMARK VINA RESULT:      -8.0      0.983      2.799
REMARK  Name = 
REMARK                            x       y       z     vdW  Elec       q    Type
REMARK                         _______ _______ _______ _____ _____    ______ ____
ROOT
ATOM      1  C   LIG    1       28.211   3.119  20.417  0.00  0.00    +0.352 C 
ENDROOT
BRANCH   1   4
ATOM      2  O   LIG    1       31.008   2.508  20.887  0.00  0.00    -0.270 OA
ATOM      3  C   LIG    1       30.101   1.767  21.216  0.00  0.00    +0.252 C 
ATOM      4  N   LIG    1       28.763   1.940  21.047  0.00  0.00    -0.200 N 
ATOM      5  C   LIG    1       28.079   0.878  21.547  0.00  0.00    +0.252 C 
ATOM      6  O   LIG    1       26.884   0.649  21.589  0.00  0.00    -0.270 OA
ATOM      7  C   LIG    1       29.080  -0.050  22.083  0.00  0.00    +0.023 C 
ATOM      8  C   LIG    1       28.784  -1.339  22.726  0.00  0.00    +0.041 C 
ATOM      9  C   LIG    1       30.024  -2.069  23.259  0.00  0.00    +0.005 C 
ATOM     10  C   LIG    1       31.425  -1.518  22.932  0.00  0.00    +0.005 C 
ATOM     11  C   LIG    1       31.563  -0.127  22.292  0.00  0.00    +0.041 C 
ATOM     12  C   LIG    1       30.283   0.479  21.891  0.00  0.00    +0.023 C 
ENDBRANCH   1   4
BRANCH   1  13
ATOM     13  O   LIG    1       27.821   2.821  19.088  0.00  0.00    -0.444 OA
BRANCH  13  14
ATOM     14  C   LIG    1       26.523   3.045  18.800  0.00  0.00    +0.313 C 
ATOM     15  O   LIG    1       25.984   4.141  18.723  0.00  0.00    -0.250 OA
BRANCH  14  16
ATOM     16  C   LIG    1       25.842   1.758  18.526  0.00  0.00    +0.111 C 
ATOM     17  C   LIG    1       26.474   0.524  17.903  0.00  0.00    -0.014 C 
ATOM     18  C   LIG    1       25.958  -0.815  18.385  0.00  0.00    +0.012 C 
ATOM     19  C   LIG    1       27.944   0.489  17.563  0.00  0.00    +0.012 C 
ATOM     20  C   LIG    1       25.500   1.366  17.098  0.00  0.00    +0.032 C 
BRANCH  20  21
ATOM     21  C   LIG    1       25.926   2.227  15.983  0.00  0.00    -0.023 C 
ATOM     22  C   LIG    1       25.220   3.227  15.418  0.00  0.00    -0.079 C 
ATOM     23  C   LIG    1       25.782   4.036  14.280  0.00  0.00    +0.038 C 
ATOM     24  C   LIG    1       23.835   3.626  15.847  0.00  0.00    +0.038 C 
ENDBRANCH  20  21
ENDBRANCH  14  16
ENDBRANCH  13  14
ENDBRANCH   1  13
TORSDOF 5
ENDMDL
MODEL 3
REMARK VINA RESULT:      -7.9      0.464      1.871
REMARK  Name = 
REMARK                            x       y       z     vdW  Elec       q    Type
REMARK                         _______ _______ _______ _____ _____    ______ ____
ROOT
ATOM      1  C   LIG    1       28.478   2.999  19.891  0.00  0.00    +0.352 C 
ENDROOT
BRANCH   1   4
ATOM      2  O   LIG    1       27.001   1.036  21.436  0.00  0.00    -0.270 OA
ATOM      3  C   LIG    1       28.216   1.085  21.410  0.00  0.00    +0.252 C 
ATOM      4  N   LIG    1       29.015   1.953  20.734  0.00  0.00    -0.200 N 
ATOM      5  C   LIG    1       30.325   1.679  20.971  0.00  0.00    +0.252 C 
ATOM      6  O   LIG    1       31.337   2.218  20.562  0.00  0.00    -0.270 OA
ATOM      7  C   LIG    1       30.353   0.529  21.880  0.00  0.00    +0.023 C 
ATOM      8  C   LIG    1       31.572  -0.111  22.401  0.00  0.00    +0.041 C 
ATOM      9  C   LIG    1       31.303  -1.342  23.275  0.00  0.00    +0.005 C 
ATOM     10  C   LIG    1       29.855  -1.686  23.675  0.00  0.00    +0.005 C 
ATOM     11  C   LIG    1       28.687  -0.947  23.002  0.00  0.00    +0.041 C 
ATOM     12  C   LIG    1       29.101   0.171  22.139  0.00  0.00    +0.023 C 
ENDBRANCH   1   4
BRANCH   1  13
ATOM     13  O   LIG    1       27.074   2.850  19.770  0.00  0.00    -0.444 OA
BRANCH  13  14
ATOM     14  C   LIG    1       26.454   3.786  19.023  0.00  0.00    +0.313 C 
ATOM     15  O   LIG    1       25.921   4.804  19.445  0.00  0.00    -0.250 OA
BRANCH  14  16
ATOM     16  C   LIG    1       26.563   3.434  17.589  0.00  0.00    +0.111 C 
ATOM     17  C   LIG    1       25.414   3.055  16.669  0.00  0.00    -0.014 C 
ATOM     18  C   LIG    1       25.541   3.477  15.220  0.00  0.00    +0.012 C 
ATOM     19  C   LIG    1       23.986   3.079  17.155  0.00  0.00    +0.012 C 
ATOM     20  C   LIG    1       26.389   1.991  17.143  0.00  0.00    +0.032 C 
BRANCH  20  21
ATOM     21  C   LIG    1       26.023   0.962  18.130  0.00  0.00    -0.023 C 
ATOM     22  C   LIG    1       26.359  -0.344  18.099  0.00  0.00    -0.079 C 
ATOM     23  C   LIG    1       25.919  -1.290  19.183  0.00  0.00    +0.038 C 
ATOM     24  C   LIG    1       27.178  -0.976  17.008  0.00  0.00    +0.038 C 
ENDBRANCH  20  21
ENDBRANCH  14  16
ENDBRANCH  13  14
ENDBRANCH   1  13
TORSDOF 5
ENDMDL
MODEL 4
REMARK VINA RESULT:      -7.5      1.367      2.432
REMARK  Name = 
REMARK                            x       y       z     vdW  Elec       q    Type
REMARK                         _______ _______ _______ _____ _____    ______ ____
ROOT
ATOM      1  C   LIG    1       28.657   2.271  19.710  0.00  0.00    +0.352 C 
ENDROOT
BRANCH   1   4
ATOM      2  O   LIG    1       31.362   2.049  20.735  0.00  0.00    -0.270 OA
ATOM      3  C   LIG    1       30.448   1.342  21.113  0.00  0.00    +0.252 C 
ATOM      4  N   LIG    1       29.150   1.347  20.709  0.00  0.00    -0.200 N 
ATOM      5  C   LIG    1       28.441   0.395  21.370  0.00  0.00    +0.252 C 
ATOM      6  O   LIG    1       27.267   0.081  21.295  0.00  0.00    -0.270 OA
ATOM      7  C   LIG    1       29.381  -0.271  22.278  0.00  0.00    +0.023 C 
ATOM      8  C   LIG    1       29.040  -1.371  23.193  0.00  0.00    +0.041 C 
ATOM      9  C   LIG    1       30.207  -1.826  24.080  0.00  0.00    +0.005 C 
ATOM     10  C   LIG    1       31.617  -1.258  23.826  0.00  0.00    +0.005 C 
ATOM     11  C   LIG    1       31.796  -0.074  22.863  0.00  0.00    +0.041 C 
ATOM     12  C   LIG    1       30.574   0.294  22.130  0.00  0.00    +0.023 C 
ENDBRANCH   1   4
BRANCH   1  13
ATOM     13  O   LIG    1       27.954   3.330  20.335  0.00  0.00    -0.444 OA
BRANCH  13  14
ATOM     14  C   LIG    1       27.615   4.357  19.529  0.00  0.00    +0.313 C 
ATOM     15  O   LIG    1       28.365   4.943  18.760  0.00  0.00    -0.250 OA
BRANCH  14  16
ATOM     16  C   LIG    1       26.167   4.639  19.662  0.00  0.00    +0.111 C 
ATOM     17  C   LIG    1       25.185   3.891  20.549  0.00  0.00    -0.014 C 
ATOM     18  C   LIG    1       24.057   4.707  21.144  0.00  0.00    +0.012 C 
ATOM     19  C   LIG    1       25.649   2.788  21.468  0.00  0.00    +0.012 C 
ATOM     20  C   LIG    1       25.147   3.697  19.043  0.00  0.00    +0.032 C 
BRANCH  20  21
ATOM     21  C   LIG    1       25.600   2.459  18.389  0.00  0.00    -0.023 C 
ATOM     22  C   LIG    1       25.685   2.228  17.064  0.00  0.00    -0.079 C 
ATOM     23  C   LIG    1       26.173   0.909  16.529  0.00  0.00    +0.038 C 
ATOM     24  C   LIG    1       25.308   3.232  16.009  0.00  0.00    +0.038 C 
ENDBRANCH  20  21
ENDBRANCH  14  16
ENDBRANCH  13  14
ENDBRANCH   1  13
TORSDOF 5
ENDMDL
MODEL 5
REMARK VINA RESULT:      -7.5      2.213      3.600
REMARK  Name = 
REMARK                            x       y       z     vdW  Elec       q    Type
REMARK                         _______ _______ _______ _____ _____    ______ ____
ROOT
ATOM      1  C   LIG    1       26.842  -0.949  19.907  0.00  0.00    +0.352 C 
ENDROOT
BRANCH   1   4
ATOM      2  O   LIG    1       29.488  -2.079  19.528  0.00  0.00    -0.270 OA
ATOM      3  C   LIG    1       29.099  -1.639  20.594  0.00  0.00    +0.252 C 
ATOM      4  N   LIG    1       27.890  -1.094  20.894  0.00  0.00    -0.200 N 
ATOM      5  C   LIG    1       27.845  -0.726  22.202  0.00  0.00    +0.252 C 
ATOM      6  O   LIG    1       26.955  -0.212  22.854  0.00  0.00    -0.270 OA
ATOM      7  C   LIG    1       29.148  -1.072  22.778  0.00  0.00    +0.023 C 
ATOM      8  C   LIG    1       29.544  -0.847  24.177  0.00  0.00    +0.041 C 
ATOM      9  C   LIG    1       30.995  -1.238  24.485  0.00  0.00    +0.005 C 
ATOM     10  C   LIG    1       31.824  -1.973  23.413  0.00  0.00    +0.005 C 
ATOM     11  C   LIG    1       31.281  -2.086  21.980  0.00  0.00    +0.041 C 
ATOM     12  C   LIG    1       29.897  -1.610  21.822  0.00  0.00    +0.023 C 
ENDBRANCH   1   4
BRANCH   1  13
ATOM     13  O   LIG    1       27.291  -0.132  18.841  0.00  0.00    -0.444 OA
BRANCH  13  14
ATOM     14  C   LIG    1       26.578   0.994  18.633  0.00  0.00    +0.313 C 
ATOM     15  O   LIG    1       26.101   1.355  17.566  0.00  0.00    -0.250 OA
BRANCH  14  16
ATOM     16  C   LIG    1       26.400   1.716  19.914  0.00  0.00    +0.111 C 
ATOM     17  C   LIG    1       26.364   3.224  20.096  0.00  0.00    -0.014 C 
ATOM     18  C   LIG    1       25.460   3.751  21.190  0.00  0.00    +0.012 C 
ATOM     19  C   LIG    1       26.440   4.154  18.911  0.00  0.00    +0.012 C 
ATOM     20  C   LIG    1       27.577   2.433  20.555  0.00  0.00    +0.032 C 
BRANCH  20  21
ATOM     21  C   LIG    1       28.870   2.483  19.854  0.00  0.00    -0.023 C 
ATOM     22  C   LIG    1       30.090   2.275  20.390  0.00  0.00    -0.079 C 
ATOM     23  C   LIG    1       31.337   2.353  19.552  0.00  0.00    +0.038 C 
ATOM     24  C   LIG    1       30.328   1.957  21.841  0.00  0.00    +0.038 C 
ENDBRANCH  20  21
ENDBRANCH  14  16
ENDBRANCH  13  14
ENDBRANCH   1  13
TORSDOF 5
ENDMDL
MODEL 6
REMARK VINA RESULT:      -7.4      1.955      6.761
REMARK  Name = 
REMARK                            x       y       z     vdW  Elec       q    Type
REMARK                         _______ _______ _______ _____ _____    ______ ____
ROOT
ATOM      1  C   LIG    1       27.706  -1.553  19.957  0.00  0.00    +0.352 C 
ENDROOT
BRANCH   1   4
ATOM      2  O   LIG    1       27.109  -1.113  17.152  0.00  0.00    -0.270 OA
ATOM      3  C   LIG    1       26.901  -0.281  18.014  0.00  0.00    +0.252 C 
ATOM      4  N   LIG    1       27.141  -0.367  19.350  0.00  0.00    -0.200 N 
ATOM      5  C   LIG    1       26.774   0.782  19.975  0.00  0.00    +0.252 C 
ATOM      6  O   LIG    1       26.829   1.102  21.148  0.00  0.00    -0.270 OA
ATOM      7  C   LIG    1       26.253   1.675  18.936  0.00  0.00    +0.023 C 
ATOM      8  C   LIG    1       25.738   3.034  19.165  0.00  0.00    +0.041 C 
ATOM      9  C   LIG    1       25.188   3.713  17.904  0.00  0.00    +0.005 C 
ATOM     10  C   LIG    1       25.378   3.033  16.534  0.00  0.00    +0.005 C 
ATOM     11  C   LIG    1       25.892   1.585  16.471  0.00  0.00    +0.041 C 
ATOM     12  C   LIG    1       26.323   1.043  17.770  0.00  0.00    +0.023 C 
ENDBRANCH   1   4
BRANCH   1  13
ATOM     13  O   LIG    1       28.653  -1.186  20.945  0.00  0.00    -0.444 OA
BRANCH  13  14
ATOM     14  C   LIG    1       29.821  -1.860  20.909  0.00  0.00    +0.313 C 
ATOM     15  O   LIG    1       30.161  -2.658  20.046  0.00  0.00    -0.250 OA
BRANCH  14  16
ATOM     16  C   LIG    1       30.673  -1.445  22.046  0.00  0.00    +0.111 C 
ATOM     17  C   LIG    1       30.186  -0.948  23.397  0.00  0.00    -0.014 C 
ATOM     18  C   LIG    1       31.039  -1.305  24.596  0.00  0.00    +0.012 C 
ATOM     19  C   LIG    1       28.714  -0.905  23.727  0.00  0.00    +0.012 C 
ATOM     20  C   LIG    1       30.799   0.026  22.407  0.00  0.00    +0.032 C 
BRANCH  20  21
ATOM     21  C   LIG    1       30.003   1.027  21.679  0.00  0.00    -0.023 C 
ATOM     22  C   LIG    1       30.442   1.876  20.728  0.00  0.00    -0.079 C 
ATOM     23  C   LIG    1       29.513   2.850  20.058  0.00  0.00    +0.038 C 
ATOM     24  C   LIG    1       31.868   1.942  20.254  0.00  0.00    +0.038 C 
ENDBRANCH  20  21
ENDBRANCH  14  16
ENDBRANCH  13  14
ENDBRANCH   1  13
TORSDOF 5
ENDMDL
MODEL 7
REMARK VINA RESULT:      -7.4      1.372      3.024
REMARK  Name = 
REMARK                            x       y       z     vdW  Elec       q    Type
REMARK                         _______ _______ _______ _____ _____    ______ ____
ROOT
ATOM      1  C   LIG    1       28.554   2.199  19.708  0.00  0.00    +0.352 C 
ENDROOT
BRANCH   1   4
ATOM      2  O   LIG    1       27.263   0.081  21.214  0.00  0.00    -0.270 OA
ATOM      3  C   LIG    1       28.439   0.367  21.341  0.00  0.00    +0.252 C 
ATOM      4  N   LIG    1       29.150   1.333  20.702  0.00  0.00    -0.200 N 
ATOM      5  C   LIG    1       30.440   1.339  21.130  0.00  0.00    +0.252 C 
ATOM      6  O   LIG    1       31.381   2.041  20.811  0.00  0.00    -0.270 OA
ATOM      7  C   LIG    1       30.551   0.274  22.132  0.00  0.00    +0.023 C 
ATOM      8  C   LIG    1       31.779  -0.078  22.861  0.00  0.00    +0.041 C 
ATOM      9  C   LIG    1       31.623  -1.283  23.798  0.00  0.00    +0.005 C 
ATOM     10  C   LIG    1       30.222  -1.881  24.034  0.00  0.00    +0.005 C 
ATOM     11  C   LIG    1       29.046  -1.430  23.153  0.00  0.00    +0.041 C 
ATOM     12  C   LIG    1       29.364  -0.307  22.256  0.00  0.00    +0.023 C 
ENDBRANCH   1   4
BRANCH   1  13
ATOM     13  O   LIG    1       27.945   3.312  20.338  0.00  0.00    -0.444 OA
BRANCH  13  14
ATOM     14  C   LIG    1       27.624   4.337  19.521  0.00  0.00    +0.313 C 
ATOM     15  O   LIG    1       28.386   4.906  18.751  0.00  0.00    -0.250 OA
BRANCH  14  16
ATOM     16  C   LIG    1       26.181   4.643  19.646  0.00  0.00    +0.111 C 
ATOM     17  C   LIG    1       25.183   3.914  20.531  0.00  0.00    -0.014 C 
ATOM     18  C   LIG    1       24.065   4.749  21.119  0.00  0.00    +0.012 C 
ATOM     19  C   LIG    1       25.625   2.807  21.457  0.00  0.00    +0.012 C 
ATOM     20  C   LIG    1       25.149   3.715  19.026  0.00  0.00    +0.032 C 
BRANCH  20  21
ATOM     21  C   LIG    1       25.586   2.467  18.380  0.00  0.00    -0.023 C 
ATOM     22  C   LIG    1       25.666   2.226  17.055  0.00  0.00    -0.079 C 
ATOM     23  C   LIG    1       26.136   0.899  16.528  0.00  0.00    +0.038 C 
ATOM     24  C   LIG    1       25.299   3.228  15.995  0.00  0.00    +0.038 C 
ENDBRANCH  20  21
ENDBRANCH  14  16
ENDBRANCH  13  14
ENDBRANCH   1  13
TORSDOF 5
ENDMDL
MODEL 8
REMARK VINA RESULT:      -7.4      1.964      6.802
REMARK  Name = 
REMARK                            x       y       z     vdW  Elec       q    Type
REMARK                         _______ _______ _______ _____ _____    ______ ____
ROOT
ATOM      1  C   LIG    1       27.671  -1.545  20.030  0.00  0.00    +0.352 C 
ENDROOT
BRANCH   1   4
ATOM      2  O   LIG    1       26.787   1.007  21.090  0.00  0.00    -0.270 OA
ATOM      3  C   LIG    1       26.738   0.725  19.907  0.00  0.00    +0.252 C 
ATOM      4  N   LIG    1       27.114  -0.429  19.296  0.00  0.00    -0.200 N 
ATOM      5  C   LIG    1       26.895  -0.353  17.957  0.00  0.00    +0.252 C 
ATOM      6  O   LIG    1       27.092  -1.164  17.070  0.00  0.00    -0.270 OA
ATOM      7  C   LIG    1       26.328   0.975  17.702  0.00  0.00    +0.023 C 
ATOM      8  C   LIG    1       25.938   1.491  16.380  0.00  0.00    +0.041 C 
ATOM      9  C   LIG    1       25.442   2.943  16.401  0.00  0.00    +0.005 C 
ATOM     10  C   LIG    1       25.223   3.649  17.753  0.00  0.00    +0.005 C 
ATOM     11  C   LIG    1       25.730   2.988  19.045  0.00  0.00    +0.041 C 
ATOM     12  C   LIG    1       26.239   1.620  18.859  0.00  0.00    +0.023 C 
ENDBRANCH   1   4
BRANCH   1  13
ATOM     13  O   LIG    1       28.698  -1.093  20.894  0.00  0.00    -0.444 OA
BRANCH  13  14
ATOM     14  C   LIG    1       29.828  -1.830  20.887  0.00  0.00    +0.313 C 
ATOM     15  O   LIG    1       30.132  -2.669  20.051  0.00  0.00    -0.250 OA
BRANCH  14  16
ATOM     16  C   LIG    1       30.691  -1.430  22.022  0.00  0.00    +0.111 C 
ATOM     17  C   LIG    1       30.217  -0.962  23.388  0.00  0.00    -0.014 C 
ATOM     18  C   LIG    1       31.088  -1.336  24.570  0.00  0.00    +0.012 C 
ATOM     19  C   LIG    1       28.750  -0.936  23.737  0.00  0.00    +0.012 C 
ATOM     20  C   LIG    1       30.812   0.035  22.409  0.00  0.00    +0.032 C 
BRANCH  20  21
ATOM     21  C   LIG    1       29.999   1.043  21.710  0.00  0.00    -0.023 C 
ATOM     22  C   LIG    1       30.412   1.885  20.742  0.00  0.00    -0.079 C 
ATOM     23  C   LIG    1       29.468   2.869  20.106  0.00  0.00    +0.038 C 
ATOM     24  C   LIG    1       31.819   1.935  20.214  0.00  0.00    +0.038 C 
ENDBRANCH  20  21
ENDBRANCH  14  16
ENDBRANCH  13  14
ENDBRANCH   1  13
TORSDOF 5
ENDMDL
MODEL 9
REMARK VINA RESULT:      -7.1      1.632      3.480
REMARK  Name = 
REMARK                            x       y       z     vdW  Elec       q    Type
REMARK                         _______ _______ _______ _____ _____    ______ ____
ROOT
ATOM      1  C   LIG    1       26.659   1.244  20.327  0.00  0.00    +0.352 C 
ENDROOT
BRANCH   1   4
ATOM      2  O   LIG    1       26.796  -0.791  22.391  0.00  0.00    -0.270 OA
ATOM      3  C   LIG    1       27.772  -0.190  21.983  0.00  0.00    +0.252 C 
ATOM      4  N   LIG    1       27.834   0.779  21.032  0.00  0.00    -0.200 N 
ATOM      5  C   LIG    1       29.114   1.205  20.867  0.00  0.00    +0.252 C 
ATOM      6  O   LIG    1       29.583   2.048  20.125  0.00  0.00    -0.270 OA
ATOM      7  C   LIG    1       29.935   0.428  21.801  0.00  0.00    +0.023 C 
ATOM      8  C   LIG    1       31.392   0.559  21.960  0.00  0.00    +0.041 C 
ATOM      9  C   LIG    1       32.001  -0.433  22.959  0.00  0.00    +0.005 C 
ATOM     10  C   LIG    1       31.070  -1.314  23.814  0.00  0.00    +0.005 C 
ATOM     11  C   LIG    1       29.568  -1.369  23.489  0.00  0.00    +0.041 C 
ATOM     12  C   LIG    1       29.140  -0.405  22.462  0.00  0.00    +0.023 C 
ENDBRANCH   1   4
BRANCH   1  13
ATOM     13  O   LIG    1       26.482   0.497  19.136  0.00  0.00    -0.444 OA
BRANCH  13  14
ATOM     14  C   LIG    1       26.107   1.211  18.054  0.00  0.00    +0.313 C 
ATOM     15  O   LIG    1       25.323   0.844  17.190  0.00  0.00    -0.250 OA
BRANCH  14  16
ATOM     16  C   LIG    1       26.744   2.547  18.092  0.00  0.00    +0.111 C 
ATOM     17  C   LIG    1       26.241   3.758  18.860  0.00  0.00    -0.014 C 
ATOM     18  C   LIG    1       27.296   4.694  19.412  0.00  0.00    +0.012 C 
ATOM     19  C   LIG    1       25.026   3.667  19.751  0.00  0.00    +0.012 C 
ATOM     20  C   LIG    1       26.113   3.713  17.348  0.00  0.00    +0.032 C 
BRANCH  20  21
ATOM     21  C   LIG    1       24.823   3.529  16.664  0.00  0.00    -0.023 C 
ATOM     22  C   LIG    1       24.566   3.721  15.355  0.00  0.00    -0.079 C 
ATOM     23  C   LIG    1       23.194   3.491  14.784  0.00  0.00    +0.038 C 
ATOM     24  C   LIG    1       25.593   4.179  14.355  0.00  0.00    +0.038 C 
ENDBRANCH  20  21
ENDBRANCH  14  16
ENDBRANCH  13  14
ENDBRANCH   1  13
TORSDOF 5
ENDMDL
