MODEL 1
REMARK VINA RESULT:      -9.4      0.000      0.000
REMARK  Name = 
REMARK                            x       y       z     vdW  Elec       q    Type
REMARK                         _______ _______ _______ _____ _____    ______ ____
ROOT
ATOM      1  C   LIG    1        2.755  20.085  28.458  0.00  0.00    +0.352 C 
ENDROOT
BRANCH   1   4
ATOM      2  O   LIG    1        1.320  20.799  30.877  0.00  0.00    -0.270 OA
ATOM      3  C   LIG    1        1.847  19.715  30.711  0.00  0.00    +0.252 C 
ATOM      4  N   LIG    1        2.545  19.268  29.634  0.00  0.00    -0.200 N 
ATOM      5  C   LIG    1        2.979  17.997  29.841  0.00  0.00    +0.252 C 
ATOM      6  O   LIG    1        3.630  17.253  29.131  0.00  0.00    -0.270 OA
ATOM      7  C   LIG    1        2.508  17.607  31.173  0.00  0.00    +0.023 C 
ATOM      8  C   LIG    1        2.749  16.302  31.810  0.00  0.00    +0.041 C 
ATOM      9  C   LIG    1        2.076  16.143  33.179  0.00  0.00    +0.005 C 
ATOM     10  C   LIG    1        1.394  17.361  33.833  0.00  0.00    +0.005 C 
ATOM     11  C   LIG    1        1.181  18.643  33.012  0.00  0.00    +0.041 C 
ATOM     12  C   LIG    1        1.831  18.625  31.691  0.00  0.00    +0.023 C 
ENDBRANCH   1   4
BRANCH   1  13
ATOM     13  O   LIG    1        4.083  20.579  28.443  0.00  0.00    -0.444 OA
BRANCH  13  14
ATOM     14  C   LIG    1        4.900  20.018  27.528  0.00  0.00    +0.313 C 
ATOM     15  O   LIG    1        4.715  19.997  26.318  0.00  0.00    -0.250 OA
BRANCH  14  16
ATOM     16  C   LIG    1        6.102  19.474  28.198  0.00  0.00    +0.111 C 
ATOM     17  C   LIG    1        6.751  20.021  29.459  0.00  0.00    -0.014 C 
ATOM     18  C   LIG    1        7.393  19.008  30.383  0.00  0.00    +0.012 C 
ATOM     19  C   LIG    1        6.144  21.182  30.207  0.00  0.00    +0.012 C 
ATOM     20  C   LIG    1        7.425  20.218  28.113  0.00  0.00    +0.032 C 
BRANCH  20  21
ATOM     21  C   LIG    1        7.484  21.525  27.437  0.00  0.00    -0.023 C 
ATOM     22  C   LIG    1        7.948  21.774  26.196  0.00  0.00    -0.079 C 
ATOM     23  C   LIG    1        7.946  23.165  25.624  0.00  0.00    +0.038 C 
ATOM     24  C   LIG    1        8.508  20.720  25.280  0.00  0.00    +0.038 C 
ENDBRANCH  20  21
ENDBRANCH  14  16
ENDBRANCH  13  14
ENDBRANCH   1  13
TORSDOF 5
ENDMDL
MODEL 2
REMARK VINA RESULT:      -9.3      0.080      1.815
REMARK  Name = 
REMARK                            x       y       z     vdW  Elec       q    Type
REMARK                         _______ _______ _______ _____ _____    ______ ____
ROOT
ATOM      1  C   LIG    1        2.743  19.945  28.384  0.00  0.00    +0.352 C 
ENDROOT
BRANCH   1   4
ATOM      2  O   LIG    1        3.555  17.254  29.103  0.00  0.00    -0.270 OA
ATOM      3  C   LIG    1        2.925  17.980  29.848  0.00  0.00    +0.252 C 
ATOM      4  N   LIG    1        2.486  19.247  29.625  0.00  0.00    -0.200 N 
ATOM      5  C   LIG    1        1.811  19.715  30.707  0.00  0.00    +0.252 C 
ATOM      6  O   LIG    1        1.267  20.787  30.904  0.00  0.00    -0.270 OA
ATOM      7  C   LIG    1        1.828  18.642  31.706  0.00  0.00    +0.023 C 
ATOM      8  C   LIG    1        1.212  18.716  33.040  0.00  0.00    +0.041 C 
ATOM      9  C   LIG    1        1.448  17.470  33.905  0.00  0.00    +0.005 C 
ATOM     10  C   LIG    1        2.113  16.229  33.278  0.00  0.00    +0.005 C 
ATOM     11  C   LIG    1        2.749  16.333  31.882  0.00  0.00    +0.041 C 
ATOM     12  C   LIG    1        2.493  17.611  31.199  0.00  0.00    +0.023 C 
ENDBRANCH   1   4
BRANCH   1  13
ATOM     13  O   LIG    1        4.053  20.483  28.393  0.00  0.00    -0.444 OA
BRANCH  13  14
ATOM     14  C   LIG    1        4.906  19.950  27.494  0.00  0.00    +0.313 C 
ATOM     15  O   LIG    1        4.756  19.943  26.279  0.00  0.00    -0.250 OA
BRANCH  14  16
ATOM     16  C   LIG    1        6.099  19.419  28.191  0.00  0.00    +0.111 C 
ATOM     17  C   LIG    1        6.713  19.971  29.467  0.00  0.00    -0.014 C 
ATOM     18  C   LIG    1        7.344  18.964  30.404  0.00  0.00    +0.012 C 
ATOM     19  C   LIG    1        6.075  21.124  30.203  0.00  0.00    +0.012 C 
ATOM     20  C   LIG    1        7.415  20.179  28.137  0.00  0.00    +0.032 C 
BRANCH  20  21
ATOM     21  C   LIG    1        7.474  21.487  27.465  0.00  0.00    -0.023 C 
ATOM     22  C   LIG    1        7.935  21.738  26.222  0.00  0.00    -0.079 C 
ATOM     23  C   LIG    1        7.933  23.131  25.654  0.00  0.00    +0.038 C 
ATOM     24  C   LIG    1        8.489  20.686  25.302  0.00  0.00    +0.038 C 
ENDBRANCH  20  21
ENDBRANCH  14  16
ENDBRANCH  13  14
ENDBRANCH   1  13
TORSDOF 5
ENDMDL
MODEL 3
REMARK VINA RESULT:      -9.1      0.745      3.341
REMARK  Name = 
REMARK                            x       y       z     vdW  Elec       q    Type
REMARK                         _______ _______ _______ _____ _____    ______ ____
ROOT
ATOM      1  C   LIG    1        3.113  20.255  28.161  0.00  0.00    +0.352 C 
ENDROOT
BRANCH   1   4
ATOM      2  O   LIG    1        3.965  17.544  28.750  0.00  0.00    -0.270 OA
ATOM      3  C   LIG    1        3.274  18.203  29.504  0.00  0.00    +0.252 C 
ATOM      4  N   LIG    1        2.811  19.470  29.338  0.00  0.00    -0.200 N 
ATOM      5  C   LIG    1        2.064  19.849  30.409  0.00  0.00    +0.252 C 
ATOM      6  O   LIG    1        1.479  20.890  30.643  0.00  0.00    -0.270 OA
ATOM      7  C   LIG    1        2.058  18.713  31.336  0.00  0.00    +0.023 C 
ATOM      8  C   LIG    1        1.369  18.683  32.636  0.00  0.00    +0.041 C 
ATOM      9  C   LIG    1        1.595  17.390  33.430  0.00  0.00    +0.005 C 
ATOM     10  C   LIG    1        2.330  16.210  32.764  0.00  0.00    +0.005 C 
ATOM     11  C   LIG    1        3.037  16.422  31.415  0.00  0.00    +0.041 C 
ATOM     12  C   LIG    1        2.781  17.735  30.802  0.00  0.00    +0.023 C 
ENDBRANCH   1   4
BRANCH   1  13
ATOM     13  O   LIG    1        4.425  20.782  28.254  0.00  0.00    -0.444 OA
BRANCH  13  14
ATOM     14  C   LIG    1        5.231  20.521  27.204  0.00  0.00    +0.313 C 
ATOM     15  O   LIG    1        4.993  19.737  26.295  0.00  0.00    -0.250 OA
BRANCH  14  16
ATOM     16  C   LIG    1        6.438  21.375  27.277  0.00  0.00    +0.111 C 
ATOM     17  C   LIG    1        7.794  21.067  26.663  0.00  0.00    -0.014 C 
ATOM     18  C   LIG    1        8.595  22.251  26.164  0.00  0.00    +0.012 C 
ATOM     19  C   LIG    1        8.006  19.830  25.825  0.00  0.00    +0.012 C 
ATOM     20  C   LIG    1        7.603  20.975  28.167  0.00  0.00    +0.032 C 
BRANCH  20  21
ATOM     21  C   LIG    1        7.564  19.692  28.886  0.00  0.00    -0.023 C 
ATOM     22  C   LIG    1        7.045  19.465  30.110  0.00  0.00    -0.079 C 
ATOM     23  C   LIG    1        7.067  18.094  30.728  0.00  0.00    +0.038 C 
ATOM     24  C   LIG    1        6.412  20.529  30.965  0.00  0.00    +0.038 C 
ENDBRANCH  20  21
ENDBRANCH  14  16
ENDBRANCH  13  14
ENDBRANCH   1  13
TORSDOF 5
ENDMDL
MODEL 4
REMARK VINA RESULT:      -8.8      0.879      2.840
REMARK  Name = 
REMARK                            x       y       z     vdW  Elec       q    Type
REMARK                         _______ _______ _______ _____ _____    ______ ____
ROOT
ATOM      1  C   LIG    1        3.389  20.310  28.760  0.00  0.00    +0.352 C 
ENDROOT
BRANCH   1   4
ATOM      2  O   LIG    1        1.516  20.794  30.923  0.00  0.00    -0.270 OA
ATOM      3  C   LIG    1        2.068  19.724  30.747  0.00  0.00    +0.252 C 
ATOM      4  N   LIG    1        2.960  19.379  29.782  0.00  0.00    -0.200 N 
ATOM      5  C   LIG    1        3.350  18.086  29.932  0.00  0.00    +0.252 C 
ATOM      6  O   LIG    1        4.127  17.408  29.285  0.00  0.00    -0.270 OA
ATOM      7  C   LIG    1        2.634  17.568  31.102  0.00  0.00    +0.023 C 
ATOM      8  C   LIG    1        2.752  16.200  31.632  0.00  0.00    +0.041 C 
ATOM      9  C   LIG    1        1.830  15.912  32.823  0.00  0.00    +0.005 C 
ATOM     10  C   LIG    1        1.032  17.067  33.460  0.00  0.00    +0.005 C 
ATOM     11  C   LIG    1        0.978  18.431  32.753  0.00  0.00    +0.041 C 
ATOM     12  C   LIG    1        1.867  18.538  31.586  0.00  0.00    +0.023 C 
ENDBRANCH   1   4
BRANCH   1  13
ATOM     13  O   LIG    1        3.352  19.685  27.489  0.00  0.00    -0.444 OA
BRANCH  13  14
ATOM     14  C   LIG    1        4.546  19.540  26.879  0.00  0.00    +0.313 C 
ATOM     15  O   LIG    1        4.875  18.606  26.160  0.00  0.00    -0.250 OA
BRANCH  14  16
ATOM     16  C   LIG    1        5.395  20.721  27.156  0.00  0.00    +0.111 C 
ATOM     17  C   LIG    1        6.866  20.870  26.804  0.00  0.00    -0.014 C 
ATOM     18  C   LIG    1        7.336  22.262  26.440  0.00  0.00    +0.012 C 
ATOM     19  C   LIG    1        7.597  19.795  26.038  0.00  0.00    +0.012 C 
ATOM     20  C   LIG    1        6.449  20.661  28.249  0.00  0.00    +0.032 C 
BRANCH  20  21
ATOM     21  C   LIG    1        6.683  19.399  28.970  0.00  0.00    -0.023 C 
ATOM     22  C   LIG    1        6.886  19.249  30.294  0.00  0.00    -0.079 C 
ATOM     23  C   LIG    1        7.108  17.891  30.903  0.00  0.00    +0.038 C 
ATOM     24  C   LIG    1        6.917  20.389  31.275  0.00  0.00    +0.038 C 
ENDBRANCH  20  21
ENDBRANCH  14  16
ENDBRANCH  13  14
ENDBRANCH   1  13
TORSDOF 5
ENDMDL
MODEL 5
REMARK VINA RESULT:      -7.8      2.319      7.452
REMARK  Name = 
REMARK                            x       y       z     vdW  Elec       q    Type
REMARK                         _______ _______ _______ _____ _____    ______ ____
ROOT
ATOM      1  C   LIG    1        5.624  21.293  28.030  0.00  0.00    +0.352 C 
ENDROOT
BRANCH   1   4
ATOM      2  O   LIG    1        6.939  19.234  26.465  0.00  0.00    -0.270 OA
ATOM      3  C   LIG    1        7.256  20.407  26.420  0.00  0.00    +0.252 C 
ATOM      4  N   LIG    1        6.723  21.455  27.103  0.00  0.00    -0.200 N 
ATOM      5  C   LIG    1        7.361  22.610  26.779  0.00  0.00    +0.252 C 
ATOM      6  O   LIG    1        7.189  23.751  27.168  0.00  0.00    -0.270 OA
ATOM      7  C   LIG    1        8.392  22.256  25.798  0.00  0.00    +0.023 C 
ATOM      8  C   LIG    1        9.325  23.204  25.168  0.00  0.00    +0.041 C 
ATOM      9  C   LIG    1       10.248  22.566  24.122  0.00  0.00    +0.005 C 
ATOM     10  C   LIG    1       10.259  21.034  23.955  0.00  0.00    +0.005 C 
ATOM     11  C   LIG    1        9.183  20.187  24.654  0.00  0.00    +0.041 C 
ATOM     12  C   LIG    1        8.328  20.948  25.579  0.00  0.00    +0.023 C 
ENDBRANCH   1   4
BRANCH   1  13
ATOM     13  O   LIG    1        6.103  20.792  29.266  0.00  0.00    -0.444 OA
BRANCH  13  14
ATOM     14  C   LIG    1        5.559  19.626  29.669  0.00  0.00    +0.313 C 
ATOM     15  O   LIG    1        6.171  18.591  29.901  0.00  0.00    -0.250 OA
BRANCH  14  16
ATOM     16  C   LIG    1        4.100  19.792  29.855  0.00  0.00    +0.111 C 
ATOM     17  C   LIG    1        3.167  18.814  30.551  0.00  0.00    -0.014 C 
ATOM     18  C   LIG    1        2.000  19.416  31.306  0.00  0.00    +0.012 C 
ATOM     19  C   LIG    1        3.698  17.564  31.207  0.00  0.00    +0.012 C 
ATOM     20  C   LIG    1        3.128  18.954  29.040  0.00  0.00    +0.032 C 
BRANCH  20  21
ATOM     21  C   LIG    1        3.643  17.916  28.132  0.00  0.00    -0.023 C 
ATOM     22  C   LIG    1        3.768  18.003  26.792  0.00  0.00    -0.079 C 
ATOM     23  C   LIG    1        4.317  16.860  25.982  0.00  0.00    +0.038 C 
ATOM     24  C   LIG    1        3.376  19.211  25.987  0.00  0.00    +0.038 C 
ENDBRANCH  20  21
ENDBRANCH  14  16
ENDBRANCH  13  14
ENDBRANCH   1  13
TORSDOF 5
ENDMDL
MODEL 6
REMARK VINA RESULT:      -7.8      1.651      2.565
REMARK  Name = 
REMARK                            x       y       z     vdW  Elec       q    Type
REMARK                         _______ _______ _______ _____ _____    ______ ____
ROOT
ATOM      1  C   LIG    1        3.394  20.024  29.537  0.00  0.00    +0.352 C 
ENDROOT
BRANCH   1   4
ATOM      2  O   LIG    1        0.970  20.485  31.064  0.00  0.00    -0.270 OA
ATOM      3  C   LIG    1        1.773  19.613  31.338  0.00  0.00    +0.252 C 
ATOM      4  N   LIG    1        2.937  19.305  30.706  0.00  0.00    -0.200 N 
ATOM      5  C   LIG    1        3.555  18.265  31.325  0.00  0.00    +0.252 C 
ATOM      6  O   LIG    1        4.603  17.699  31.075  0.00  0.00    -0.270 OA
ATOM      7  C   LIG    1        2.698  17.881  32.451  0.00  0.00    +0.023 C 
ATOM      8  C   LIG    1        2.980  16.791  33.398  0.00  0.00    +0.041 C 
ATOM      9  C   LIG    1        1.872  16.564  34.435  0.00  0.00    +0.005 C 
ATOM     10  C   LIG    1        0.701  17.562  34.521  0.00  0.00    +0.005 C 
ATOM     11  C   LIG    1        0.524  18.622  33.421  0.00  0.00    +0.041 C 
ATOM     12  C   LIG    1        1.636  18.678  32.458  0.00  0.00    +0.023 C 
ENDBRANCH   1   4
BRANCH   1  13
ATOM     13  O   LIG    1        3.159  19.253  28.372  0.00  0.00    -0.444 OA
BRANCH  13  14
ATOM     14  C   LIG    1        3.295  19.912  27.203  0.00  0.00    +0.313 C 
ATOM     15  O   LIG    1        2.995  21.081  26.999  0.00  0.00    -0.250 OA
BRANCH  14  16
ATOM     16  C   LIG    1        3.926  19.025  26.199  0.00  0.00    +0.111 C 
ATOM     17  C   LIG    1        4.494  17.639  26.458  0.00  0.00    -0.014 C 
ATOM     18  C   LIG    1        4.369  16.636  25.331  0.00  0.00    +0.012 C 
ATOM     19  C   LIG    1        4.390  16.996  27.819  0.00  0.00    +0.012 C 
ATOM     20  C   LIG    1        5.430  18.809  26.210  0.00  0.00    +0.032 C 
BRANCH  20  21
ATOM     21  C   LIG    1        6.245  19.414  27.276  0.00  0.00    -0.023 C 
ATOM     22  C   LIG    1        7.348  20.175  27.119  0.00  0.00    -0.079 C 
ATOM     23  C   LIG    1        8.087  20.736  28.303  0.00  0.00    +0.038 C 
ATOM     24  C   LIG    1        7.943  20.527  25.783  0.00  0.00    +0.038 C 
ENDBRANCH  20  21
ENDBRANCH  14  16
ENDBRANCH  13  14
ENDBRANCH   1  13
TORSDOF 5
ENDMDL
MODEL 7
REMARK VINA RESULT:      -7.6      2.316      7.277
REMARK  Name = 
REMARK                            x       y       z     vdW  Elec       q    Type
REMARK                         _______ _______ _______ _____ _____    ______ ____
ROOT
ATOM      1  C   LIG    1        5.630  21.284  28.000  0.00  0.00    +0.352 C 
ENDROOT
BRANCH   1   4
ATOM      2  O   LIG    1        7.105  23.655  27.210  0.00  0.00    -0.270 OA
ATOM      3  C   LIG    1        7.341  22.547  26.768  0.00  0.00    +0.252 C 
ATOM      4  N   LIG    1        6.722  21.371  27.054  0.00  0.00    -0.200 N 
ATOM      5  C   LIG    1        7.278  20.354  26.345  0.00  0.00    +0.252 C 
ATOM      6  O   LIG    1        7.013  19.166  26.315  0.00  0.00    -0.270 OA
ATOM      7  C   LIG    1        8.349  20.945  25.537  0.00  0.00    +0.023 C 
ATOM      8  C   LIG    1        9.222  20.204  24.613  0.00  0.00    +0.041 C 
ATOM      9  C   LIG    1       10.306  21.067  23.954  0.00  0.00    +0.005 C 
ATOM     10  C   LIG    1       10.281  22.596  24.151  0.00  0.00    +0.005 C 
ATOM     11  C   LIG    1        9.331  23.210  25.192  0.00  0.00    +0.041 C 
ATOM     12  C   LIG    1        8.392  22.248  25.790  0.00  0.00    +0.023 C 
ENDBRANCH   1   4
BRANCH   1  13
ATOM     13  O   LIG    1        6.104  20.796  29.243  0.00  0.00    -0.444 OA
BRANCH  13  14
ATOM     14  C   LIG    1        5.561  19.632  29.653  0.00  0.00    +0.313 C 
ATOM     15  O   LIG    1        6.173  18.599  29.891  0.00  0.00    -0.250 OA
BRANCH  14  16
ATOM     16  C   LIG    1        4.101  19.798  29.838  0.00  0.00    +0.111 C 
ATOM     17  C   LIG    1        3.168  18.822  30.534  0.00  0.00    -0.014 C 
ATOM     18  C   LIG    1        2.001  19.424  31.288  0.00  0.00    +0.012 C 
ATOM     19  C   LIG    1        3.698  17.571  31.191  0.00  0.00    +0.012 C 
ATOM     20  C   LIG    1        3.129  18.961  29.022  0.00  0.00    +0.032 C 
BRANCH  20  21
ATOM     21  C   LIG    1        3.645  17.922  28.116  0.00  0.00    -0.023 C 
ATOM     22  C   LIG    1        3.773  18.008  26.776  0.00  0.00    -0.079 C 
ATOM     23  C   LIG    1        4.322  16.865  25.967  0.00  0.00    +0.038 C 
ATOM     24  C   LIG    1        3.385  19.218  25.970  0.00  0.00    +0.038 C 
ENDBRANCH  20  21
ENDBRANCH  14  16
ENDBRANCH  13  14
ENDBRANCH   1  13
TORSDOF 5
ENDMDL
MODEL 8
REMARK VINA RESULT:      -7.5      1.670      3.009
REMARK  Name = 
REMARK                            x       y       z     vdW  Elec       q    Type
REMARK                         _______ _______ _______ _____ _____    ______ ____
ROOT
ATOM      1  C   LIG    1        5.485  18.275  29.347  0.00  0.00    +0.352 C 
ENDROOT
BRANCH   1   4
ATOM      2  O   LIG    1        4.681  15.898  30.805  0.00  0.00    -0.270 OA
ATOM      3  C   LIG    1        4.082  16.955  30.872  0.00  0.00    +0.252 C 
ATOM      4  N   LIG    1        4.356  18.126  30.239  0.00  0.00    -0.200 N 
ATOM      5  C   LIG    1        3.442  19.075  30.575  0.00  0.00    +0.252 C 
ATOM      6  O   LIG    1        3.336  20.236  30.226  0.00  0.00    -0.270 OA
ATOM      7  C   LIG    1        2.506  18.441  31.509  0.00  0.00    +0.023 C 
ATOM      8  C   LIG    1        1.351  19.104  32.133  0.00  0.00    +0.041 C 
ATOM      9  C   LIG    1        0.587  18.220  33.126  0.00  0.00    +0.005 C 
ATOM     10  C   LIG    1        0.952  16.728  33.247  0.00  0.00    +0.005 C 
ATOM     11  C   LIG    1        2.223  16.200  32.562  0.00  0.00    +0.041 C 
ATOM     12  C   LIG    1        2.887  17.182  31.691  0.00  0.00    +0.023 C 
ENDBRANCH   1   4
BRANCH   1  13
ATOM     13  O   LIG    1        6.460  19.118  29.936  0.00  0.00    -0.444 OA
BRANCH  13  14
ATOM     14  C   LIG    1        6.996  20.046  29.117  0.00  0.00    +0.313 C 
ATOM     15  O   LIG    1        8.191  20.252  28.950  0.00  0.00    -0.250 OA
BRANCH  14  16
ATOM     16  C   LIG    1        5.917  20.753  28.389  0.00  0.00    +0.111 C 
ATOM     17  C   LIG    1        5.252  20.292  27.102  0.00  0.00    -0.014 C 
ATOM     18  C   LIG    1        3.787  20.635  26.939  0.00  0.00    +0.012 C 
ATOM     19  C   LIG    1        5.610  18.969  26.471  0.00  0.00    +0.012 C 
ATOM     20  C   LIG    1        6.219  21.462  27.079  0.00  0.00    +0.032 C 
BRANCH  20  21
ATOM     21  C   LIG    1        7.566  21.368  26.493  0.00  0.00    -0.023 C 
ATOM     22  C   LIG    1        8.291  22.375  25.964  0.00  0.00    -0.079 C 
ATOM     23  C   LIG    1        9.665  22.138  25.400  0.00  0.00    +0.038 C 
ATOM     24  C   LIG    1        7.814  23.799  25.878  0.00  0.00    +0.038 C 
ENDBRANCH  20  21
ENDBRANCH  14  16
ENDBRANCH  13  14
ENDBRANCH   1  13
TORSDOF 5
ENDMDL
MODEL 9
REMARK VINA RESULT:      -7.4      1.968      3.505
REMARK  Name = 
REMARK                            x       y       z     vdW  Elec       q    Type
REMARK                         _______ _______ _______ _____ _____    ______ ____
ROOT
ATOM      1  C   LIG    1        2.767  17.589  30.197  0.00  0.00    +0.352 C 
ENDROOT
BRANCH   1   4
ATOM      2  O   LIG    1        4.599  18.180  32.369  0.00  0.00    -0.270 OA
ATOM      3  C   LIG    1        3.393  18.118  32.514  0.00  0.00    +0.252 C 
ATOM      4  N   LIG    1        2.440  17.847  31.583  0.00  0.00    -0.200 N 
ATOM      5  C   LIG    1        1.203  17.865  32.146  0.00  0.00    +0.252 C 
ATOM      6  O   LIG    1        0.104  17.672  31.660  0.00  0.00    -0.270 OA
ATOM      7  C   LIG    1        1.396  18.179  33.566  0.00  0.00    +0.023 C 
ATOM      8  C   LIG    1        0.319  18.303  34.561  0.00  0.00    +0.041 C 
ATOM      9  C   LIG    1        0.806  18.712  35.957  0.00  0.00    +0.005 C 
ATOM     10  C   LIG    1        2.319  18.774  36.243  0.00  0.00    +0.005 C 
ATOM     11  C   LIG    1        3.316  18.667  35.078  0.00  0.00    +0.041 C 
ATOM     12  C   LIG    1        2.696  18.334  33.786  0.00  0.00    +0.023 C 
ENDBRANCH   1   4
BRANCH   1  13
ATOM     13  O   LIG    1        2.236  18.613  29.375  0.00  0.00    -0.444 OA
BRANCH  13  14
ATOM     14  C   LIG    1        3.053  19.662  29.155  0.00  0.00    +0.313 C 
ATOM     15  O   LIG    1        3.480  20.431  30.006  0.00  0.00    -0.250 OA
BRANCH  14  16
ATOM     16  C   LIG    1        3.418  19.719  27.721  0.00  0.00    +0.111 C 
ATOM     17  C   LIG    1        4.111  18.624  26.927  0.00  0.00    -0.014 C 
ATOM     18  C   LIG    1        3.723  18.497  25.469  0.00  0.00    +0.012 C 
ATOM     19  C   LIG    1        4.435  17.292  27.557  0.00  0.00    +0.012 C 
ATOM     20  C   LIG    1        4.872  19.881  27.309  0.00  0.00    +0.032 C 
BRANCH  20  21
ATOM     21  C   LIG    1        5.924  19.891  28.339  0.00  0.00    -0.023 C 
ATOM     22  C   LIG    1        7.210  20.263  28.178  0.00  0.00    -0.079 C 
ATOM     23  C   LIG    1        8.184  20.229  29.323  0.00  0.00    +0.038 C 
ATOM     24  C   LIG    1        7.793  20.732  26.872  0.00  0.00    +0.038 C 
ENDBRANCH  20  21
ENDBRANCH  14  16
ENDBRANCH  13  14
ENDBRANCH   1  13
TORSDOF 5
ENDMDL
