MODEL 1
REMARK VINA RESULT:      -9.6      0.000      0.000
REMARK  Name = 
REMARK                            x       y       z     vdW  Elec       q    Type
REMARK                         _______ _______ _______ _____ _____    ______ ____
ROOT
ATOM      1  C   LIG    1       21.431 -16.927  18.075  0.00  0.00    +0.352 C 
ENDROOT
BRANCH   1   4
ATOM      2  O   LIG    1       20.077 -14.491  17.265  0.00  0.00    -0.270 OA
ATOM      3  C   LIG    1       19.524 -15.391  17.869  0.00  0.00    +0.252 C 
ATOM      4  N   LIG    1       20.048 -16.567  18.304  0.00  0.00    -0.200 N 
ATOM      5  C   LIG    1       19.103 -17.303  18.946  0.00  0.00    +0.252 C 
ATOM      6  O   LIG    1       19.169 -18.397  19.475  0.00  0.00    -0.270 OA
ATOM      7  C   LIG    1       17.867 -16.515  18.911  0.00  0.00    +0.023 C 
ATOM      8  C   LIG    1       16.579 -16.931  19.490  0.00  0.00    +0.041 C 
ATOM      9  C   LIG    1       15.435 -15.940  19.240  0.00  0.00    +0.005 C 
ATOM     10  C   LIG    1       15.745 -14.571  18.602  0.00  0.00    +0.005 C 
ATOM     11  C   LIG    1       17.137 -14.311  18.004  0.00  0.00    +0.041 C 
ATOM     12  C   LIG    1       18.113 -15.380  18.267  0.00  0.00    +0.023 C 
ENDBRANCH   1   4
BRANCH   1  13
ATOM     13  O   LIG    1       22.252 -16.356  19.078  0.00  0.00    -0.444 OA
BRANCH  13  14
ATOM     14  C   LIG    1       23.357 -15.723  18.632  0.00  0.00    +0.313 C 
ATOM     15  O   LIG    1       23.381 -14.805  17.824  0.00  0.00    -0.250 OA
BRANCH  14  16
ATOM     16  C   LIG    1       24.553 -16.265  19.317  0.00  0.00    +0.111 C 
ATOM     17  C   LIG    1       25.998 -16.066  18.890  0.00  0.00    -0.014 C 
ATOM     18  C   LIG    1       27.025 -15.982  19.999  0.00  0.00    +0.012 C 
ATOM     19  C   LIG    1       26.349 -15.191  17.711  0.00  0.00    +0.012 C 
ATOM     20  C   LIG    1       25.330 -17.415  18.697  0.00  0.00    +0.032 C 
BRANCH  20  21
ATOM     21  C   LIG    1       24.941 -17.929  17.373  0.00  0.00    -0.023 C 
ATOM     22  C   LIG    1       24.174 -19.007  17.117  0.00  0.00    -0.079 C 
ATOM     23  C   LIG    1       23.849 -19.419  15.707  0.00  0.00    +0.038 C 
ATOM     24  C   LIG    1       23.583 -19.891  18.181  0.00  0.00    +0.038 C 
ENDBRANCH  20  21
ENDBRANCH  14  16
ENDBRANCH  13  14
ENDBRANCH   1  13
TORSDOF 5
ENDMDL
MODEL 2
REMARK VINA RESULT:      -9.6      0.072      1.815
REMARK  Name = 
REMARK                            x       y       z     vdW  Elec       q    Type
REMARK                         _______ _______ _______ _____ _____    ______ ____
ROOT
ATOM      1  C   LIG    1       21.390 -17.035  18.228  0.00  0.00    +0.352 C 
ENDROOT
BRANCH   1   4
ATOM      2  O   LIG    1       19.168 -18.410  19.491  0.00  0.00    -0.270 OA
ATOM      3  C   LIG    1       19.064 -17.314  18.972  0.00  0.00    +0.252 C 
ATOM      4  N   LIG    1       20.022 -16.577  18.350  0.00  0.00    -0.200 N 
ATOM      5  C   LIG    1       19.503 -15.406  17.896  0.00  0.00    +0.252 C 
ATOM      6  O   LIG    1       20.024 -14.486  17.292  0.00  0.00    -0.270 OA
ATOM      7  C   LIG    1       18.085 -15.406  18.269  0.00  0.00    +0.023 C 
ATOM      8  C   LIG    1       17.132 -14.324  17.976  0.00  0.00    +0.041 C 
ATOM      9  C   LIG    1       15.729 -14.559  18.550  0.00  0.00    +0.005 C 
ATOM     10  C   LIG    1       15.391 -15.919  19.190  0.00  0.00    +0.005 C 
ATOM     11  C   LIG    1       16.517 -16.928  19.467  0.00  0.00    +0.041 C 
ATOM     12  C   LIG    1       17.823 -16.537  18.913  0.00  0.00    +0.023 C 
ENDBRANCH   1   4
BRANCH   1  13
ATOM     13  O   LIG    1       22.212 -16.357  19.160  0.00  0.00    -0.444 OA
BRANCH  13  14
ATOM     14  C   LIG    1       23.300 -15.750  18.641  0.00  0.00    +0.313 C 
ATOM     15  O   LIG    1       23.293 -14.875  17.785  0.00  0.00    -0.250 OA
BRANCH  14  16
ATOM     16  C   LIG    1       24.521 -16.257  19.308  0.00  0.00    +0.111 C 
ATOM     17  C   LIG    1       25.953 -16.022  18.856  0.00  0.00    -0.014 C 
ATOM     18  C   LIG    1       26.995 -15.907  19.947  0.00  0.00    +0.012 C 
ATOM     19  C   LIG    1       26.261 -15.145  17.668  0.00  0.00    +0.012 C 
ATOM     20  C   LIG    1       25.317 -17.390  18.680  0.00  0.00    +0.032 C 
BRANCH  20  21
ATOM     21  C   LIG    1       24.920 -17.919  17.365  0.00  0.00    -0.023 C 
ATOM     22  C   LIG    1       24.174 -19.017  17.126  0.00  0.00    -0.079 C 
ATOM     23  C   LIG    1       23.837 -19.444  15.724  0.00  0.00    +0.038 C 
ATOM     24  C   LIG    1       23.620 -19.908  18.204  0.00  0.00    +0.038 C 
ENDBRANCH  20  21
ENDBRANCH  14  16
ENDBRANCH  13  14
ENDBRANCH   1  13
TORSDOF 5
ENDMDL
MODEL 3
REMARK VINA RESULT:      -9.4      1.303      3.180
REMARK  Name = 
REMARK                            x       y       z     vdW  Elec       q    Type
REMARK                         _______ _______ _______ _____ _____    ______ ____
ROOT
ATOM      1  C   LIG    1       21.841 -16.832  17.500  0.00  0.00    +0.352 C 
ENDROOT
BRANCH   1   4
ATOM      2  O   LIG    1       20.372 -14.390  16.953  0.00  0.00    -0.270 OA
ATOM      3  C   LIG    1       19.897 -15.330  17.562  0.00  0.00    +0.252 C 
ATOM      4  N   LIG    1       20.482 -16.515  17.882  0.00  0.00    -0.200 N 
ATOM      5  C   LIG    1       19.618 -17.301  18.576  0.00  0.00    +0.252 C 
ATOM      6  O   LIG    1       19.756 -18.418  19.040  0.00  0.00    -0.270 OA
ATOM      7  C   LIG    1       18.371 -16.540  18.703  0.00  0.00    +0.023 C 
ATOM      8  C   LIG    1       17.156 -17.012  19.384  0.00  0.00    +0.041 C 
ATOM      9  C   LIG    1       15.976 -16.036  19.300  0.00  0.00    +0.005 C 
ATOM     10  C   LIG    1       16.197 -14.631  18.705  0.00  0.00    +0.005 C 
ATOM     11  C   LIG    1       17.517 -14.311  17.986  0.00  0.00    +0.041 C 
ATOM     12  C   LIG    1       18.533 -15.370  18.097  0.00  0.00    +0.023 C 
ENDBRANCH   1   4
BRANCH   1  13
ATOM     13  O   LIG    1       22.737 -16.435  18.523  0.00  0.00    -0.444 OA
BRANCH  13  14
ATOM     14  C   LIG    1       23.438 -15.309  18.275  0.00  0.00    +0.313 C 
ATOM     15  O   LIG    1       23.213 -14.204  18.753  0.00  0.00    -0.250 OA
BRANCH  14  16
ATOM     16  C   LIG    1       24.574 -15.614  17.376  0.00  0.00    +0.111 C 
ATOM     17  C   LIG    1       25.600 -16.719  17.571  0.00  0.00    -0.014 C 
ATOM     18  C   LIG    1       26.141 -17.368  16.315  0.00  0.00    +0.012 C 
ATOM     19  C   LIG    1       25.492 -17.688  18.722  0.00  0.00    +0.012 C 
ATOM     20  C   LIG    1       25.993 -15.269  17.797  0.00  0.00    +0.032 C 
BRANCH  20  21
ATOM     21  C   LIG    1       26.242 -14.712  19.136  0.00  0.00    -0.023 C 
ATOM     22  C   LIG    1       26.537 -13.432  19.439  0.00  0.00    -0.079 C 
ATOM     23  C   LIG    1       26.764 -12.996  20.860  0.00  0.00    +0.038 C 
ATOM     24  C   LIG    1       26.673 -12.337  18.417  0.00  0.00    +0.038 C 
ENDBRANCH  20  21
ENDBRANCH  14  16
ENDBRANCH  13  14
ENDBRANCH   1  13
TORSDOF 5
ENDMDL
MODEL 4
REMARK VINA RESULT:      -9.4      1.345      3.681
REMARK  Name = 
REMARK                            x       y       z     vdW  Elec       q    Type
REMARK                         _______ _______ _______ _____ _____    ______ ____
ROOT
ATOM      1  C   LIG    1       21.952 -16.889  17.577  0.00  0.00    +0.352 C 
ENDROOT
BRANCH   1   4
ATOM      2  O   LIG    1       19.922 -18.396  19.000  0.00  0.00    -0.270 OA
ATOM      3  C   LIG    1       19.733 -17.279  18.557  0.00  0.00    +0.252 C 
ATOM      4  N   LIG    1       20.596 -16.481  17.874  0.00  0.00    -0.200 N 
ATOM      5  C   LIG    1       20.000 -15.305  17.545  0.00  0.00    +0.252 C 
ATOM      6  O   LIG    1       20.427 -14.339  16.940  0.00  0.00    -0.270 OA
ATOM      7  C   LIG    1       18.634 -15.368  18.072  0.00  0.00    +0.023 C 
ATOM      8  C   LIG    1       17.626 -14.302  17.946  0.00  0.00    +0.041 C 
ATOM      9  C   LIG    1       16.302 -14.610  18.658  0.00  0.00    +0.005 C 
ATOM     10  C   LIG    1       16.072 -16.012  19.255  0.00  0.00    +0.005 C 
ATOM     11  C   LIG    1       17.248 -16.999  19.350  0.00  0.00    +0.041 C 
ATOM     12  C   LIG    1       18.473 -16.538  18.678  0.00  0.00    +0.023 C 
ENDBRANCH   1   4
BRANCH   1  13
ATOM     13  O   LIG    1       22.828 -16.437  18.595  0.00  0.00    -0.444 OA
BRANCH  13  14
ATOM     14  C   LIG    1       23.502 -15.301  18.318  0.00  0.00    +0.313 C 
ATOM     15  O   LIG    1       23.264 -14.195  18.783  0.00  0.00    -0.250 OA
BRANCH  14  16
ATOM     16  C   LIG    1       24.627 -15.598  17.403  0.00  0.00    +0.111 C 
ATOM     17  C   LIG    1       25.666 -16.693  17.585  0.00  0.00    -0.014 C 
ATOM     18  C   LIG    1       26.194 -17.339  16.322  0.00  0.00    +0.012 C 
ATOM     19  C   LIG    1       25.584 -17.661  18.739  0.00  0.00    +0.012 C 
ATOM     20  C   LIG    1       26.049 -15.240  17.803  0.00  0.00    +0.032 C 
BRANCH  20  21
ATOM     21  C   LIG    1       26.312 -14.678  19.138  0.00  0.00    -0.023 C 
ATOM     22  C   LIG    1       26.606 -13.396  19.433  0.00  0.00    -0.079 C 
ATOM     23  C   LIG    1       26.849 -12.955  20.851  0.00  0.00    +0.038 C 
ATOM     24  C   LIG    1       26.726 -12.303  18.407  0.00  0.00    +0.038 C 
ENDBRANCH  20  21
ENDBRANCH  14  16
ENDBRANCH  13  14
ENDBRANCH   1  13
TORSDOF 5
ENDMDL
MODEL 5
REMARK VINA RESULT:      -9.4      1.201      2.727
REMARK  Name = 
REMARK                            x       y       z     vdW  Elec       q    Type
REMARK                         _______ _______ _______ _____ _____    ______ ____
ROOT
ATOM      1  C   LIG    1       21.496 -16.736  18.659  0.00  0.00    +0.352 C 
ENDROOT
BRANCH   1   4
ATOM      2  O   LIG    1       20.141 -14.305  17.837  0.00  0.00    -0.270 OA
ATOM      3  C   LIG    1       19.551 -15.306  18.197  0.00  0.00    +0.252 C 
ATOM      4  N   LIG    1       20.070 -16.494  18.606  0.00  0.00    -0.200 N 
ATOM      5  C   LIG    1       19.076 -17.362  18.933  0.00  0.00    +0.252 C 
ATOM      6  O   LIG    1       19.122 -18.508  19.340  0.00  0.00    -0.270 OA
ATOM      7  C   LIG    1       17.813 -16.653  18.705  0.00  0.00    +0.023 C 
ATOM      8  C   LIG    1       16.472 -17.218  18.928  0.00  0.00    +0.041 C 
ATOM      9  C   LIG    1       15.327 -16.275  18.537  0.00  0.00    +0.005 C 
ATOM     10  C   LIG    1       15.646 -14.820  18.141  0.00  0.00    +0.005 C 
ATOM     11  C   LIG    1       17.106 -14.401  17.905  0.00  0.00    +0.041 C 
ATOM     12  C   LIG    1       18.092 -15.433  18.264  0.00  0.00    +0.023 C 
ENDBRANCH   1   4
BRANCH   1  13
ATOM     13  O   LIG    1       21.897 -17.508  17.540  0.00  0.00    -0.444 OA
BRANCH  13  14
ATOM     14  C   LIG    1       22.718 -16.884  16.670  0.00  0.00    +0.313 C 
ATOM     15  O   LIG    1       22.518 -15.793  16.152  0.00  0.00    -0.250 OA
BRANCH  14  16
ATOM     16  C   LIG    1       23.943 -17.691  16.472  0.00  0.00    +0.111 C 
ATOM     17  C   LIG    1       24.857 -18.217  17.567  0.00  0.00    -0.014 C 
ATOM     18  C   LIG    1       25.520 -19.553  17.309  0.00  0.00    +0.012 C 
ATOM     19  C   LIG    1       24.529 -18.006  19.024  0.00  0.00    +0.012 C 
ATOM     20  C   LIG    1       25.311 -17.065  16.687  0.00  0.00    +0.032 C 
BRANCH  20  21
ATOM     21  C   LIG    1       25.411 -15.681  17.179  0.00  0.00    -0.023 C 
ATOM     22  C   LIG    1       26.434 -15.140  17.871  0.00  0.00    -0.079 C 
ATOM     23  C   LIG    1       26.407 -13.701  18.310  0.00  0.00    +0.038 C 
ATOM     24  C   LIG    1       27.672 -15.895  18.270  0.00  0.00    +0.038 C 
ENDBRANCH  20  21
ENDBRANCH  14  16
ENDBRANCH  13  14
ENDBRANCH   1  13
TORSDOF 5
ENDMDL
MODEL 6
REMARK VINA RESULT:      -9.4      1.224      3.280
REMARK  Name = 
REMARK                            x       y       z     vdW  Elec       q    Type
REMARK                         _______ _______ _______ _____ _____    ______ ____
ROOT
ATOM      1  C   LIG    1       21.136 -16.796  18.671  0.00  0.00    +0.352 C 
ENDROOT
BRANCH   1   4
ATOM      2  O   LIG    1       18.964 -18.538  19.488  0.00  0.00    -0.270 OA
ATOM      3  C   LIG    1       18.788 -17.425  19.032  0.00  0.00    +0.252 C 
ATOM      4  N   LIG    1       19.716 -16.524  18.612  0.00  0.00    -0.200 N 
ATOM      5  C   LIG    1       19.113 -15.393  18.161  0.00  0.00    +0.252 C 
ATOM      6  O   LIG    1       19.585 -14.367  17.706  0.00  0.00    -0.270 OA
ATOM      7  C   LIG    1       17.669 -15.600  18.313  0.00  0.00    +0.023 C 
ATOM      8  C   LIG    1       16.630 -14.625  17.949  0.00  0.00    +0.041 C 
ATOM      9  C   LIG    1       15.204 -15.080  18.285  0.00  0.00    +0.005 C 
ATOM     10  C   LIG    1       14.965 -16.521  18.776  0.00  0.00    +0.005 C 
ATOM     11  C   LIG    1       16.167 -17.402  19.155  0.00  0.00    +0.041 C 
ATOM     12  C   LIG    1       17.474 -16.806  18.834  0.00  0.00    +0.023 C 
ENDBRANCH   1   4
BRANCH   1  13
ATOM     13  O   LIG    1       21.570 -17.367  17.450  0.00  0.00    -0.444 OA
BRANCH  13  14
ATOM     14  C   LIG    1       22.494 -16.655  16.773  0.00  0.00    +0.313 C 
ATOM     15  O   LIG    1       22.413 -15.469  16.480  0.00  0.00    -0.250 OA
BRANCH  14  16
ATOM     16  C   LIG    1       23.669 -17.508  16.482  0.00  0.00    +0.111 C 
ATOM     17  C   LIG    1       24.610 -18.119  17.508  0.00  0.00    -0.014 C 
ATOM     18  C   LIG    1       25.195 -19.473  17.166  0.00  0.00    +0.012 C 
ATOM     19  C   LIG    1       24.364 -17.952  18.987  0.00  0.00    +0.012 C 
ATOM     20  C   LIG    1       25.074 -16.954  16.651  0.00  0.00    +0.032 C 
BRANCH  20  21
ATOM     21  C   LIG    1       25.264 -15.598  17.189  0.00  0.00    -0.023 C 
ATOM     22  C   LIG    1       26.348 -15.128  17.838  0.00  0.00    -0.079 C 
ATOM     23  C   LIG    1       26.411 -13.710  18.334  0.00  0.00    +0.038 C 
ATOM     24  C   LIG    1       27.573 -15.951  18.133  0.00  0.00    +0.038 C 
ENDBRANCH  20  21
ENDBRANCH  14  16
ENDBRANCH  13  14
ENDBRANCH   1  13
TORSDOF 5
ENDMDL
MODEL 7
REMARK VINA RESULT:      -9.1      2.276      4.310
REMARK  Name = 
REMARK                            x       y       z     vdW  Elec       q    Type
REMARK                         _______ _______ _______ _____ _____    ______ ____
ROOT
ATOM      1  C   LIG    1       24.047 -18.395  16.220  0.00  0.00    +0.352 C 
ENDROOT
BRANCH   1   4
ATOM      2  O   LIG    1       22.507 -19.005  18.602  0.00  0.00    -0.270 OA
ATOM      3  C   LIG    1       22.302 -18.026  17.910  0.00  0.00    +0.252 C 
ATOM      4  N   LIG    1       22.947 -17.638  16.778  0.00  0.00    -0.200 N 
ATOM      5  C   LIG    1       22.414 -16.485  16.296  0.00  0.00    +0.252 C 
ATOM      6  O   LIG    1       22.702 -15.824  15.316  0.00  0.00    -0.270 OA
ATOM      7  C   LIG    1       21.332 -16.110  17.212  0.00  0.00    +0.023 C 
ATOM      8  C   LIG    1       20.479 -14.919  17.076  0.00  0.00    +0.041 C 
ATOM      9  C   LIG    1       19.475 -14.737  18.221  0.00  0.00    +0.005 C 
ATOM     10  C   LIG    1       19.315 -15.854  19.272  0.00  0.00    +0.005 C 
ATOM     11  C   LIG    1       20.322 -17.015  19.304  0.00  0.00    +0.041 C 
ATOM     12  C   LIG    1       21.267 -17.022  18.175  0.00  0.00    +0.023 C 
ENDBRANCH   1   4
BRANCH   1  13
ATOM     13  O   LIG    1       25.244 -17.642  16.302  0.00  0.00    -0.444 OA
BRANCH  13  14
ATOM     14  C   LIG    1       25.966 -17.821  17.427  0.00  0.00    +0.313 C 
ATOM     15  O   LIG    1       25.819 -18.727  18.237  0.00  0.00    -0.250 OA
BRANCH  14  16
ATOM     16  C   LIG    1       27.020 -16.786  17.514  0.00  0.00    +0.111 C 
ATOM     17  C   LIG    1       27.463 -16.061  18.775  0.00  0.00    -0.014 C 
ATOM     18  C   LIG    1       28.927 -15.683  18.858  0.00  0.00    +0.012 C 
ATOM     19  C   LIG    1       26.879 -16.411  20.121  0.00  0.00    +0.012 C 
ATOM     20  C   LIG    1       26.642 -15.329  17.727  0.00  0.00    +0.032 C 
BRANCH  20  21
ATOM     21  C   LIG    1       25.232 -14.965  17.935  0.00  0.00    -0.023 C 
ATOM     22  C   LIG    1       24.762 -13.927  18.657  0.00  0.00    -0.079 C 
ATOM     23  C   LIG    1       23.286 -13.666  18.783  0.00  0.00    +0.038 C 
ATOM     24  C   LIG    1       25.636 -12.953  19.397  0.00  0.00    +0.038 C 
ENDBRANCH  20  21
ENDBRANCH  14  16
ENDBRANCH  13  14
ENDBRANCH   1  13
TORSDOF 5
ENDMDL
MODEL 8
REMARK VINA RESULT:      -8.9      1.559      2.114
REMARK  Name = 
REMARK                            x       y       z     vdW  Elec       q    Type
REMARK                         _______ _______ _______ _____ _____    ______ ____
ROOT
ATOM      1  C   LIG    1       22.877 -16.079  17.840  0.00  0.00    +0.352 C 
ENDROOT
BRANCH   1   4
ATOM      2  O   LIG    1       20.946 -13.948  17.447  0.00  0.00    -0.270 OA
ATOM      3  C   LIG    1       20.636 -15.070  17.803  0.00  0.00    +0.252 C 
ATOM      4  N   LIG    1       21.443 -16.142  18.024  0.00  0.00    -0.200 N 
ATOM      5  C   LIG    1       20.711 -17.216  18.419  0.00  0.00    +0.252 C 
ATOM      6  O   LIG    1       21.052 -18.347  18.713  0.00  0.00    -0.270 OA
ATOM      7  C   LIG    1       19.311 -16.780  18.447  0.00  0.00    +0.023 C 
ATOM      8  C   LIG    1       18.166 -17.626  18.819  0.00  0.00    +0.041 C 
ATOM      9  C   LIG    1       16.807 -16.927  18.688  0.00  0.00    +0.005 C 
ATOM     10  C   LIG    1       16.759 -15.419  18.377  0.00  0.00    +0.005 C 
ATOM     11  C   LIG    1       18.046 -14.688  17.962  0.00  0.00    +0.041 C 
ATOM     12  C   LIG    1       19.264 -15.505  18.077  0.00  0.00    +0.023 C 
ENDBRANCH   1   4
BRANCH   1  13
ATOM     13  O   LIG    1       23.497 -15.605  19.023  0.00  0.00    -0.444 OA
BRANCH  13  14
ATOM     14  C   LIG    1       24.233 -14.483  18.883  0.00  0.00    +0.313 C 
ATOM     15  O   LIG    1       23.965 -13.536  18.156  0.00  0.00    -0.250 OA
BRANCH  14  16
ATOM     16  C   LIG    1       25.399 -14.534  19.793  0.00  0.00    +0.111 C 
ATOM     17  C   LIG    1       26.671 -13.711  19.668  0.00  0.00    -0.014 C 
ATOM     18  C   LIG    1       27.343 -13.306  20.963  0.00  0.00    +0.012 C 
ATOM     19  C   LIG    1       26.821 -12.668  18.588  0.00  0.00    +0.012 C 
ATOM     20  C   LIG    1       26.692 -15.193  19.339  0.00  0.00    +0.032 C 
BRANCH  20  21
ATOM     21  C   LIG    1       26.807 -15.701  17.962  0.00  0.00    -0.023 C 
ATOM     22  C   LIG    1       26.464 -16.928  17.521  0.00  0.00    -0.079 C 
ATOM     23  C   LIG    1       26.632 -17.315  16.077  0.00  0.00    +0.038 C 
ATOM     24  C   LIG    1       25.900 -18.011  18.399  0.00  0.00    +0.038 C 
ENDBRANCH  20  21
ENDBRANCH  14  16
ENDBRANCH  13  14
ENDBRANCH   1  13
TORSDOF 5
ENDMDL
MODEL 9
REMARK VINA RESULT:      -8.8      1.986      3.802
REMARK  Name = 
REMARK                            x       y       z     vdW  Elec       q    Type
REMARK                         _______ _______ _______ _____ _____    ______ ____
ROOT
ATOM      1  C   LIG    1       20.169 -17.325  18.479  0.00  0.00    +0.352 C 
ENDROOT
BRANCH   1   4
ATOM      2  O   LIG    1       17.963 -18.912  19.495  0.00  0.00    -0.270 OA
ATOM      3  C   LIG    1       17.837 -17.763  19.116  0.00  0.00    +0.252 C 
ATOM      4  N   LIG    1       18.785 -16.926  18.620  0.00  0.00    -0.200 N 
ATOM      5  C   LIG    1       18.240 -15.722  18.303  0.00  0.00    +0.252 C 
ATOM      6  O   LIG    1       18.746 -14.717  17.837  0.00  0.00    -0.270 OA
ATOM      7  C   LIG    1       16.814 -15.809  18.634  0.00  0.00    +0.023 C 
ATOM      8  C   LIG    1       15.834 -14.727  18.454  0.00  0.00    +0.041 C 
ATOM      9  C   LIG    1       14.426 -15.073  18.954  0.00  0.00    +0.005 C 
ATOM     10  C   LIG    1       14.116 -16.513  19.406  0.00  0.00    +0.005 C 
ATOM     11  C   LIG    1       15.267 -17.517  19.584  0.00  0.00    +0.041 C 
ATOM     12  C   LIG    1       16.573 -17.021  19.121  0.00  0.00    +0.023 C 
ENDBRANCH   1   4
BRANCH   1  13
ATOM     13  O   LIG    1       20.956 -16.705  19.481  0.00  0.00    -0.444 OA
BRANCH  13  14
ATOM     14  C   LIG    1       22.185 -16.309  19.091  0.00  0.00    +0.313 C 
ATOM     15  O   LIG    1       23.223 -16.940  19.239  0.00  0.00    -0.250 OA
BRANCH  14  16
ATOM     16  C   LIG    1       22.092 -15.007  18.392  0.00  0.00    +0.111 C 
ATOM     17  C   LIG    1       22.292 -14.772  16.904  0.00  0.00    -0.014 C 
ATOM     18  C   LIG    1       21.456 -13.677  16.274  0.00  0.00    +0.012 C 
ATOM     19  C   LIG    1       22.544 -15.922  15.960  0.00  0.00    +0.012 C 
ATOM     20  C   LIG    1       23.352 -14.318  17.892  0.00  0.00    +0.032 C 
BRANCH  20  21
ATOM     21  C   LIG    1       24.653 -14.992  18.027  0.00  0.00    -0.023 C 
ATOM     22  C   LIG    1       25.833 -14.419  18.341  0.00  0.00    -0.079 C 
ATOM     23  C   LIG    1       27.094 -15.232  18.451  0.00  0.00    +0.038 C 
ATOM     24  C   LIG    1       26.010 -12.948  18.602  0.00  0.00    +0.038 C 
ENDBRANCH  20  21
ENDBRANCH  14  16
ENDBRANCH  13  14
ENDBRANCH   1  13
TORSDOF 5
ENDMDL
