MODEL 1
REMARK VINA RESULT:      -7.3      0.000      0.000
REMARK  Name = 
REMARK                            x       y       z     vdW  Elec       q    Type
REMARK                         _______ _______ _______ _____ _____    ______ ____
ROOT
ATOM      1  C   LIG    1        2.814   9.639  -1.924  0.00  0.00    +0.352 C 
ENDROOT
BRANCH   1   4
ATOM      2  O   LIG    1        3.112   7.954  -4.267  0.00  0.00    -0.270 OA
ATOM      3  C   LIG    1        3.791   8.944  -4.069  0.00  0.00    +0.252 C 
ATOM      4  N   LIG    1        3.749   9.803  -3.016  0.00  0.00    -0.200 N 
ATOM      5  C   LIG    1        4.677  10.784  -3.164  0.00  0.00    +0.252 C 
ATOM      6  O   LIG    1        4.956  11.730  -2.450  0.00  0.00    -0.270 OA
ATOM      7  C   LIG    1        5.368  10.518  -4.429  0.00  0.00    +0.023 C 
ATOM      8  C   LIG    1        6.455  11.336  -4.991  0.00  0.00    +0.041 C 
ATOM      9  C   LIG    1        6.942  10.864  -6.367  0.00  0.00    +0.005 C 
ATOM     10  C   LIG    1        6.417   9.534  -6.941  0.00  0.00    +0.005 C 
ATOM     11  C   LIG    1        5.240   8.822  -6.252  0.00  0.00    +0.041 C 
ATOM     12  C   LIG    1        4.839   9.427  -4.972  0.00  0.00    +0.023 C 
ENDBRANCH   1   4
BRANCH   1  13
ATOM     13  O   LIG    1        3.297   8.666  -1.015  0.00  0.00    -0.444 OA
BRANCH  13  14
ATOM     14  C   LIG    1        2.353   7.907  -0.421  0.00  0.00    +0.313 C 
ATOM     15  O   LIG    1        2.074   7.911   0.771  0.00  0.00    -0.250 OA
BRANCH  14  16
ATOM     16  C   LIG    1        1.647   7.099  -1.441  0.00  0.00    +0.111 C 
ATOM     17  C   LIG    1        0.721   5.924  -1.172  0.00  0.00    -0.014 C 
ATOM     18  C   LIG    1       -0.436   5.743  -2.131  0.00  0.00    +0.012 C 
ATOM     19  C   LIG    1        0.373   5.514   0.238  0.00  0.00    +0.012 C 
ATOM     20  C   LIG    1        2.107   5.682  -1.743  0.00  0.00    +0.032 C 
BRANCH  20  21
ATOM     21  C   LIG    1        3.198   5.086  -0.954  0.00  0.00    -0.023 C 
ATOM     22  C   LIG    1        4.521   5.208  -1.183  0.00  0.00    -0.079 C 
ATOM     23  C   LIG    1        5.534   4.545  -0.290  0.00  0.00    +0.038 C 
ATOM     24  C   LIG    1        5.109   5.990  -2.325  0.00  0.00    +0.038 C 
ENDBRANCH  20  21
ENDBRANCH  14  16
ENDBRANCH  13  14
ENDBRANCH   1  13
TORSDOF 5
ENDMDL
MODEL 2
REMARK VINA RESULT:      -7.2      2.713      4.262
REMARK  Name = 
REMARK                            x       y       z     vdW  Elec       q    Type
REMARK                         _______ _______ _______ _____ _____    ______ ____
ROOT
ATOM      1  C   LIG    1        4.671   9.857  -2.697  0.00  0.00    +0.352 C 
ENDROOT
BRANCH   1   4
ATOM      2  O   LIG    1        3.656  12.366  -3.744  0.00  0.00    -0.270 OA
ATOM      3  C   LIG    1        4.258  12.280  -2.691  0.00  0.00    +0.252 C 
ATOM      4  N   LIG    1        4.782  11.172  -2.102  0.00  0.00    -0.200 N 
ATOM      5  C   LIG    1        5.387  11.496  -0.929  0.00  0.00    +0.252 C 
ATOM      6  O   LIG    1        5.968  10.802  -0.116  0.00  0.00    -0.270 OA
ATOM      7  C   LIG    1        5.226  12.944  -0.762  0.00  0.00    +0.023 C 
ATOM      8  C   LIG    1        5.729  13.727   0.377  0.00  0.00    +0.041 C 
ATOM      9  C   LIG    1        5.352  15.213   0.325  0.00  0.00    +0.005 C 
ATOM     10  C   LIG    1        4.678  15.779  -0.939  0.00  0.00    +0.005 C 
ATOM     11  C   LIG    1        4.170  14.816  -2.024  0.00  0.00    +0.041 C 
ATOM     12  C   LIG    1        4.552  13.411  -1.806  0.00  0.00    +0.023 C 
ENDBRANCH   1   4
BRANCH   1  13
ATOM     13  O   LIG    1        3.393   9.310  -2.425  0.00  0.00    -0.444 OA
BRANCH  13  14
ATOM     14  C   LIG    1        3.375   8.289  -1.543  0.00  0.00    +0.313 C 
ATOM     15  O   LIG    1        4.195   8.092  -0.657  0.00  0.00    -0.250 OA
BRANCH  14  16
ATOM     16  C   LIG    1        2.168   7.460  -1.764  0.00  0.00    +0.111 C 
ATOM     17  C   LIG    1        2.018   5.986  -1.421  0.00  0.00    -0.014 C 
ATOM     18  C   LIG    1        0.641   5.532  -0.985  0.00  0.00    +0.012 C 
ATOM     19  C   LIG    1        3.123   5.231  -0.725  0.00  0.00    +0.012 C 
ATOM     20  C   LIG    1        2.151   6.418  -2.871  0.00  0.00    +0.032 C 
BRANCH  20  21
ATOM     21  C   LIG    1        3.368   6.176  -3.663  0.00  0.00    -0.023 C 
ATOM     22  C   LIG    1        3.685   6.734  -4.850  0.00  0.00    -0.079 C 
ATOM     23  C   LIG    1        4.972   6.399  -5.553  0.00  0.00    +0.038 C 
ATOM     24  C   LIG    1        2.809   7.716  -5.578  0.00  0.00    +0.038 C 
ENDBRANCH  20  21
ENDBRANCH  14  16
ENDBRANCH  13  14
ENDBRANCH   1  13
TORSDOF 5
ENDMDL
MODEL 3
REMARK VINA RESULT:      -7.2      2.063      3.620
REMARK  Name = 
REMARK                            x       y       z     vdW  Elec       q    Type
REMARK                         _______ _______ _______ _____ _____    ______ ____
ROOT
ATOM      1  C   LIG    1        3.623   8.965  -4.809  0.00  0.00    +0.352 C 
ENDROOT
BRANCH   1   4
ATOM      2  O   LIG    1        3.068  11.806  -4.615  0.00  0.00    -0.270 OA
ATOM      3  C   LIG    1        3.737  11.202  -3.798  0.00  0.00    +0.252 C 
ATOM      4  N   LIG    1        4.067   9.883  -3.783  0.00  0.00    -0.200 N 
ATOM      5  C   LIG    1        4.836   9.597  -2.699  0.00  0.00    +0.252 C 
ATOM      6  O   LIG    1        5.332   8.548  -2.330  0.00  0.00    -0.270 OA
ATOM      7  C   LIG    1        5.003  10.853  -1.962  0.00  0.00    +0.023 C 
ATOM      8  C   LIG    1        5.767  11.009  -0.714  0.00  0.00    +0.041 C 
ATOM      9  C   LIG    1        5.712  12.424  -0.123  0.00  0.00    +0.005 C 
ATOM     10  C   LIG    1        5.055  13.558  -0.934  0.00  0.00    +0.005 C 
ATOM     11  C   LIG    1        4.253  13.218  -2.201  0.00  0.00    +0.041 C 
ATOM     12  C   LIG    1        4.347  11.808  -2.611  0.00  0.00    +0.023 C 
ENDBRANCH   1   4
BRANCH   1  13
ATOM     13  O   LIG    1        2.692   8.046  -4.266  0.00  0.00    -0.444 OA
BRANCH  13  14
ATOM     14  C   LIG    1        3.082   6.754  -4.270  0.00  0.00    +0.313 C 
ATOM     15  O   LIG    1        4.031   6.294  -4.890  0.00  0.00    -0.250 OA
BRANCH  14  16
ATOM     16  C   LIG    1        2.221   5.969  -3.356  0.00  0.00    +0.111 C 
ATOM     17  C   LIG    1        1.963   6.270  -1.889  0.00  0.00    -0.014 C 
ATOM     18  C   LIG    1        0.588   5.919  -1.359  0.00  0.00    +0.012 C 
ATOM     19  C   LIG    1        2.538   7.501  -1.232  0.00  0.00    +0.012 C 
ATOM     20  C   LIG    1        2.848   5.099  -2.279  0.00  0.00    +0.032 C 
BRANCH  20  21
ATOM     21  C   LIG    1        4.308   5.110  -2.091  0.00  0.00    -0.023 C 
ATOM     22  C   LIG    1        4.979   4.840  -0.953  0.00  0.00    -0.079 C 
ATOM     23  C   LIG    1        6.482   4.883  -0.902  0.00  0.00    +0.038 C 
ATOM     24  C   LIG    1        4.317   4.485   0.350  0.00  0.00    +0.038 C 
ENDBRANCH  20  21
ENDBRANCH  14  16
ENDBRANCH  13  14
ENDBRANCH   1  13
TORSDOF 5
ENDMDL
MODEL 4
REMARK VINA RESULT:      -7.2      1.984      3.990
REMARK  Name = 
REMARK                            x       y       z     vdW  Elec       q    Type
REMARK                         _______ _______ _______ _____ _____    ______ ____
ROOT
ATOM      1  C   LIG    1        4.283   8.528  -4.991  0.00  0.00    +0.352 C 
ENDROOT
BRANCH   1   4
ATOM      2  O   LIG    1        5.246  11.256  -4.768  0.00  0.00    -0.270 OA
ATOM      3  C   LIG    1        5.733  10.438  -5.526  0.00  0.00    +0.252 C 
ATOM      4  N   LIG    1        5.369   9.143  -5.723  0.00  0.00    -0.200 N 
ATOM      5  C   LIG    1        6.159   8.563  -6.665  0.00  0.00    +0.252 C 
ATOM      6  O   LIG    1        6.156   7.435  -7.121  0.00  0.00    -0.270 OA
ATOM      7  C   LIG    1        7.111   9.590  -7.100  0.00  0.00    +0.023 C 
ATOM      8  C   LIG    1        8.160   9.398  -8.114  0.00  0.00    +0.041 C 
ATOM      9  C   LIG    1        9.059  10.624  -8.319  0.00  0.00    +0.005 C 
ATOM     10  C   LIG    1        8.699  11.952  -7.624  0.00  0.00    +0.005 C 
ATOM     11  C   LIG    1        7.598  11.972  -6.552  0.00  0.00    +0.041 C 
ATOM     12  C   LIG    1        6.862  10.704  -6.422  0.00  0.00    +0.023 C 
ENDBRANCH   1   4
BRANCH   1  13
ATOM     13  O   LIG    1        4.734   7.341  -4.363  0.00  0.00    -0.444 OA
BRANCH  13  14
ATOM     14  C   LIG    1        3.801   6.668  -3.658  0.00  0.00    +0.313 C 
ATOM     15  O   LIG    1        2.664   6.414  -4.032  0.00  0.00    -0.250 OA
BRANCH  14  16
ATOM     16  C   LIG    1        4.377   6.218  -2.370  0.00  0.00    +0.111 C 
ATOM     17  C   LIG    1        3.596   5.728  -1.161  0.00  0.00    -0.014 C 
ATOM     18  C   LIG    1        4.255   4.653  -0.323  0.00  0.00    +0.012 C 
ATOM     19  C   LIG    1        2.095   5.585  -1.209  0.00  0.00    +0.012 C 
ATOM     20  C   LIG    1        4.256   7.095  -1.134  0.00  0.00    +0.032 C 
BRANCH  20  21
ATOM     21  C   LIG    1        3.489   8.349  -1.201  0.00  0.00    -0.023 C 
ATOM     22  C   LIG    1        3.978   9.586  -1.421  0.00  0.00    -0.079 C 
ATOM     23  C   LIG    1        3.075  10.788  -1.470  0.00  0.00    +0.038 C 
ATOM     24  C   LIG    1        5.437   9.889  -1.629  0.00  0.00    +0.038 C 
ENDBRANCH  20  21
ENDBRANCH  14  16
ENDBRANCH  13  14
ENDBRANCH   1  13
TORSDOF 5
ENDMDL
MODEL 5
REMARK VINA RESULT:      -7.0      4.830      7.057
REMARK  Name = 
REMARK                            x       y       z     vdW  Elec       q    Type
REMARK                         _______ _______ _______ _____ _____    ______ ____
ROOT
ATOM      1  C   LIG    1        8.075   9.195  -7.614  0.00  0.00    +0.352 C 
ENDROOT
BRANCH   1   4
ATOM      2  O   LIG    1        9.025  10.447 -10.053  0.00  0.00    -0.270 OA
ATOM      3  C   LIG    1        9.276   9.294  -9.755  0.00  0.00    +0.252 C 
ATOM      4  N   LIG    1        8.887   8.600  -8.653  0.00  0.00    -0.200 N 
ATOM      5  C   LIG    1        9.371   7.331  -8.694  0.00  0.00    +0.252 C 
ATOM      6  O   LIG    1        9.248   6.407  -7.911  0.00  0.00    -0.270 OA
ATOM      7  C   LIG    1       10.137   7.216  -9.939  0.00  0.00    +0.023 C 
ATOM      8  C   LIG    1       10.841   6.006 -10.392  0.00  0.00    +0.041 C 
ATOM      9  C   LIG    1       11.624   6.194 -11.699  0.00  0.00    +0.005 C 
ATOM     10  C   LIG    1       11.468   7.506 -12.492  0.00  0.00    +0.005 C 
ATOM     11  C   LIG    1       10.733   8.696 -11.853  0.00  0.00    +0.041 C 
ATOM     12  C   LIG    1       10.086   8.383 -10.569  0.00  0.00    +0.023 C 
ENDBRANCH   1   4
BRANCH   1  13
ATOM     13  O   LIG    1        6.997   8.334  -7.290  0.00  0.00    -0.444 OA
BRANCH  13  14
ATOM     14  C   LIG    1        6.023   8.883  -6.536  0.00  0.00    +0.313 C 
ATOM     15  O   LIG    1        6.160   9.815  -5.754  0.00  0.00    -0.250 OA
BRANCH  14  16
ATOM     16  C   LIG    1        4.729   8.229  -6.837  0.00  0.00    +0.111 C 
ATOM     17  C   LIG    1        3.395   8.531  -6.174  0.00  0.00    -0.014 C 
ATOM     18  C   LIG    1        2.163   8.400  -7.044  0.00  0.00    +0.012 C 
ATOM     19  C   LIG    1        3.266   9.632  -5.150  0.00  0.00    +0.012 C 
ATOM     20  C   LIG    1        4.127   7.240  -5.852  0.00  0.00    +0.032 C 
BRANCH  20  21
ATOM     21  C   LIG    1        4.790   7.003  -4.559  0.00  0.00    -0.023 C 
ATOM     22  C   LIG    1        4.218   6.542  -3.429  0.00  0.00    -0.079 C 
ATOM     23  C   LIG    1        5.020   6.341  -2.172  0.00  0.00    +0.038 C 
ATOM     24  C   LIG    1        2.760   6.195  -3.306  0.00  0.00    +0.038 C 
ENDBRANCH  20  21
ENDBRANCH  14  16
ENDBRANCH  13  14
ENDBRANCH   1  13
TORSDOF 5
ENDMDL
MODEL 6
REMARK VINA RESULT:      -7.0      4.995      7.173
REMARK  Name = 
REMARK                            x       y       z     vdW  Elec       q    Type
REMARK                         _______ _______ _______ _____ _____    ______ ____
ROOT
ATOM      1  C   LIG    1        8.657   6.704  -7.510  0.00  0.00    +0.352 C 
ENDROOT
BRANCH   1   4
ATOM      2  O   LIG    1        9.966   5.284  -9.676  0.00  0.00    -0.270 OA
ATOM      3  C   LIG    1        9.830   6.493  -9.659  0.00  0.00    +0.252 C 
ATOM      4  N   LIG    1        9.245   7.267  -8.707  0.00  0.00    -0.200 N 
ATOM      5  C   LIG    1        9.300   8.578  -9.057  0.00  0.00    +0.252 C 
ATOM      6  O   LIG    1        8.897   9.573  -8.483  0.00  0.00    -0.270 OA
ATOM      7  C   LIG    1        9.984   8.636 -10.353  0.00  0.00    +0.023 C 
ATOM      8  C   LIG    1       10.262   9.865 -11.111  0.00  0.00    +0.041 C 
ATOM      9  C   LIG    1       10.926   9.621 -12.473  0.00  0.00    +0.005 C 
ATOM     10  C   LIG    1       11.397   8.200 -12.840  0.00  0.00    +0.005 C 
ATOM     11  C   LIG    1       10.983   7.011 -11.958  0.00  0.00    +0.041 C 
ATOM     12  C   LIG    1       10.296   7.397 -10.715  0.00  0.00    +0.023 C 
ENDBRANCH   1   4
BRANCH   1  13
ATOM     13  O   LIG    1        7.324   7.161  -7.364  0.00  0.00    -0.444 OA
BRANCH  13  14
ATOM     14  C   LIG    1        6.523   6.381  -6.609  0.00  0.00    +0.313 C 
ATOM     15  O   LIG    1        6.887   5.455  -5.898  0.00  0.00    -0.250 OA
BRANCH  14  16
ATOM     16  C   LIG    1        5.123   6.851  -6.717  0.00  0.00    +0.111 C 
ATOM     17  C   LIG    1        4.588   8.194  -6.245  0.00  0.00    -0.014 C 
ATOM     18  C   LIG    1        3.468   8.800  -7.062  0.00  0.00    +0.012 C 
ATOM     19  C   LIG    1        5.509   9.237  -5.662  0.00  0.00    +0.012 C 
ATOM     20  C   LIG    1        4.247   6.928  -5.477  0.00  0.00    +0.032 C 
BRANCH  20  21
ATOM     21  C   LIG    1        4.822   6.620  -4.158  0.00  0.00    -0.023 C 
ATOM     22  C   LIG    1        4.150   6.252  -3.048  0.00  0.00    -0.079 C 
ATOM     23  C   LIG    1        4.868   5.960  -1.759  0.00  0.00    +0.038 C 
ATOM     24  C   LIG    1        2.655   6.105  -2.980  0.00  0.00    +0.038 C 
ENDBRANCH  20  21
ENDBRANCH  14  16
ENDBRANCH  13  14
ENDBRANCH   1  13
TORSDOF 5
ENDMDL
MODEL 7
REMARK VINA RESULT:      -6.9      2.686      4.353
REMARK  Name = 
REMARK                            x       y       z     vdW  Elec       q    Type
REMARK                         _______ _______ _______ _____ _____    ______ ____
ROOT
ATOM      1  C   LIG    1        4.420   8.130  -5.649  0.00  0.00    +0.352 C 
ENDROOT
BRANCH   1   4
ATOM      2  O   LIG    1        5.623   5.530  -6.109  0.00  0.00    -0.270 OA
ATOM      3  C   LIG    1        6.122   6.571  -6.492  0.00  0.00    +0.252 C 
ATOM      4  N   LIG    1        5.661   7.840  -6.335  0.00  0.00    -0.200 N 
ATOM      5  C   LIG    1        6.514   8.732  -6.904  0.00  0.00    +0.252 C 
ATOM      6  O   LIG    1        6.465   9.946  -6.976  0.00  0.00    -0.270 OA
ATOM      7  C   LIG    1        7.616   7.950  -7.474  0.00  0.00    +0.023 C 
ATOM      8  C   LIG    1        8.771   8.510  -8.192  0.00  0.00    +0.041 C 
ATOM      9  C   LIG    1        9.734   7.452  -8.746  0.00  0.00    +0.005 C 
ATOM     10  C   LIG    1        9.531   5.972  -8.366  0.00  0.00    +0.005 C 
ATOM     11  C   LIG    1        8.241   5.543  -7.649  0.00  0.00    +0.041 C 
ATOM     12  C   LIG    1        7.382   6.664  -7.235  0.00  0.00    +0.023 C 
ENDBRANCH   1   4
BRANCH   1  13
ATOM     13  O   LIG    1        4.565   7.884  -4.262  0.00  0.00    -0.444 OA
BRANCH  13  14
ATOM     14  C   LIG    1        3.691   7.003  -3.735  0.00  0.00    +0.313 C 
ATOM     15  O   LIG    1        2.625   6.665  -4.232  0.00  0.00    -0.250 OA
BRANCH  14  16
ATOM     16  C   LIG    1        4.239   6.445  -2.478  0.00  0.00    +0.111 C 
ATOM     17  C   LIG    1        3.433   5.887  -1.317  0.00  0.00    -0.014 C 
ATOM     18  C   LIG    1        4.055   4.736  -0.553  0.00  0.00    +0.012 C 
ATOM     19  C   LIG    1        1.929   5.786  -1.390  0.00  0.00    +0.012 C 
ATOM     20  C   LIG    1        4.126   7.231  -1.182  0.00  0.00    +0.032 C 
BRANCH  20  21
ATOM     21  C   LIG    1        3.391   8.506  -1.164  0.00  0.00    -0.023 C 
ATOM     22  C   LIG    1        3.909   9.741  -1.324  0.00  0.00    -0.079 C 
ATOM     23  C   LIG    1        3.037  10.966  -1.288  0.00  0.00    +0.038 C 
ATOM     24  C   LIG    1        5.371  10.018  -1.542  0.00  0.00    +0.038 C 
ENDBRANCH  20  21
ENDBRANCH  14  16
ENDBRANCH  13  14
ENDBRANCH   1  13
TORSDOF 5
ENDMDL
MODEL 8
REMARK VINA RESULT:      -6.9      2.642      4.628
REMARK  Name = 
REMARK                            x       y       z     vdW  Elec       q    Type
REMARK                         _______ _______ _______ _____ _____    ______ ____
ROOT
ATOM      1  C   LIG    1        4.447   8.172  -5.634  0.00  0.00    +0.352 C 
ENDROOT
BRANCH   1   4
ATOM      2  O   LIG    1        6.254  10.030  -6.937  0.00  0.00    -0.270 OA
ATOM      3  C   LIG    1        6.439   8.828  -6.914  0.00  0.00    +0.252 C 
ATOM      4  N   LIG    1        5.669   7.863  -6.344  0.00  0.00    -0.200 N 
ATOM      5  C   LIG    1        6.217   6.636  -6.543  0.00  0.00    +0.252 C 
ATOM      6  O   LIG    1        5.840   5.531  -6.199  0.00  0.00    -0.270 OA
ATOM      7  C   LIG    1        7.450   6.848  -7.308  0.00  0.00    +0.023 C 
ATOM      8  C   LIG    1        8.369   5.787  -7.746  0.00  0.00    +0.041 C 
ATOM      9  C   LIG    1        9.620   6.305  -8.468  0.00  0.00    +0.005 C 
ATOM     10  C   LIG    1        9.721   7.800  -8.828  0.00  0.00    +0.005 C 
ATOM     11  C   LIG    1        8.696   8.790  -8.251  0.00  0.00    +0.041 C 
ATOM     12  C   LIG    1        7.586   8.151  -7.526  0.00  0.00    +0.023 C 
ENDBRANCH   1   4
BRANCH   1  13
ATOM     13  O   LIG    1        4.614   7.919  -4.250  0.00  0.00    -0.444 OA
BRANCH  13  14
ATOM     14  C   LIG    1        3.749   7.034  -3.713  0.00  0.00    +0.313 C 
ATOM     15  O   LIG    1        2.687   6.679  -4.207  0.00  0.00    -0.250 OA
BRANCH  14  16
ATOM     16  C   LIG    1        4.304   6.497  -2.449  0.00  0.00    +0.111 C 
ATOM     17  C   LIG    1        3.502   5.947  -1.281  0.00  0.00    -0.014 C 
ATOM     18  C   LIG    1        4.135   4.812  -0.503  0.00  0.00    +0.012 C 
ATOM     19  C   LIG    1        2.000   5.833  -1.351  0.00  0.00    +0.012 C 
ATOM     20  C   LIG    1        4.184   7.299  -1.163  0.00  0.00    +0.032 C 
BRANCH  20  21
ATOM     21  C   LIG    1        3.438   8.568  -1.162  0.00  0.00    -0.023 C 
ATOM     22  C   LIG    1        3.945   9.805  -1.332  0.00  0.00    -0.079 C 
ATOM     23  C   LIG    1        3.063  11.023  -1.313  0.00  0.00    +0.038 C 
ATOM     24  C   LIG    1        5.406  10.093  -1.548  0.00  0.00    +0.038 C 
ENDBRANCH  20  21
ENDBRANCH  14  16
ENDBRANCH  13  14
ENDBRANCH   1  13
TORSDOF 5
ENDMDL
MODEL 9
REMARK VINA RESULT:      -6.9      9.702     11.480
REMARK  Name = 
REMARK                            x       y       z     vdW  Elec       q    Type
REMARK                         _______ _______ _______ _____ _____    ______ ____
ROOT
ATOM      1  C   LIG    1       13.430   1.857  -2.938  0.00  0.00    +0.352 C 
ENDROOT
BRANCH   1   4
ATOM      2  O   LIG    1       16.145   1.107  -3.636  0.00  0.00    -0.270 OA
ATOM      3  C   LIG    1       15.223   1.086  -4.431  0.00  0.00    +0.252 C 
ATOM      4  N   LIG    1       13.921   1.416  -4.226  0.00  0.00    -0.200 N 
ATOM      5  C   LIG    1       13.204   1.264  -5.371  0.00  0.00    +0.252 C 
ATOM      6  O   LIG    1       12.025   1.455  -5.603  0.00  0.00    -0.270 OA
ATOM      7  C   LIG    1       14.145   0.791  -6.392  0.00  0.00    +0.023 C 
ATOM      8  C   LIG    1       13.798   0.490  -7.790  0.00  0.00    +0.041 C 
ATOM      9  C   LIG    1       14.968  -0.058  -8.617  0.00  0.00    +0.005 C 
ATOM     10  C   LIG    1       16.384  -0.073  -8.008  0.00  0.00    +0.005 C 
ATOM     11  C   LIG    1       16.570   0.227  -6.512  0.00  0.00    +0.041 C 
ATOM     12  C   LIG    1       15.345   0.680  -5.834  0.00  0.00    +0.023 C 
ENDBRANCH   1   4
BRANCH   1  13
ATOM     13  O   LIG    1       12.476   2.890  -3.112  0.00  0.00    -0.444 OA
BRANCH  13  14
ATOM     14  C   LIG    1       11.270   2.666  -2.549  0.00  0.00    +0.313 C 
ATOM     15  O   LIG    1       10.879   1.600  -2.093  0.00  0.00    -0.250 OA
BRANCH  14  16
ATOM     16  C   LIG    1       10.497   3.927  -2.506  0.00  0.00    +0.111 C 
ATOM     17  C   LIG    1        8.982   4.053  -2.547  0.00  0.00    -0.014 C 
ATOM     18  C   LIG    1        8.378   5.194  -1.757  0.00  0.00    +0.012 C 
ATOM     19  C   LIG    1        8.099   2.830  -2.563  0.00  0.00    +0.012 C 
ATOM     20  C   LIG    1        9.809   4.443  -3.759  0.00  0.00    +0.032 C 
BRANCH  20  21
ATOM     21  C   LIG    1        9.841   3.640  -4.992  0.00  0.00    -0.023 C 
ATOM     22  C   LIG    1        9.174   3.887  -6.137  0.00  0.00    -0.079 C 
ATOM     23  C   LIG    1        9.302   2.980  -7.330  0.00  0.00    +0.038 C 
ATOM     24  C   LIG    1        8.252   5.059  -6.336  0.00  0.00    +0.038 C 
ENDBRANCH  20  21
ENDBRANCH  14  16
ENDBRANCH  13  14
ENDBRANCH   1  13
TORSDOF 5
ENDMDL
