MODEL 1
REMARK VINA RESULT:      -7.8      0.000      0.000
REMARK  Name = 
REMARK                            x       y       z     vdW  Elec       q    Type
REMARK                         _______ _______ _______ _____ _____    ______ ____
ROOT
ATOM      1  C   LIG    1       -0.236  31.444   6.623  0.00  0.00    +0.352 C 
ENDROOT
BRANCH   1   4
ATOM      2  O   LIG    1       -0.484  29.030   5.032  0.00  0.00    -0.270 OA
ATOM      3  C   LIG    1        0.573  29.417   5.494  0.00  0.00    +0.252 C 
ATOM      4  N   LIG    1        0.813  30.519   6.252  0.00  0.00    -0.200 N 
ATOM      5  C   LIG    1        2.130  30.598   6.576  0.00  0.00    +0.252 C 
ATOM      6  O   LIG    1        2.741  31.420   7.234  0.00  0.00    -0.270 OA
ATOM      7  C   LIG    1        2.781  29.436   5.962  0.00  0.00    +0.023 C 
ATOM      8  C   LIG    1        4.215  29.120   6.054  0.00  0.00    +0.041 C 
ATOM      9  C   LIG    1        4.632  27.880   5.252  0.00  0.00    +0.005 C 
ATOM     10  C   LIG    1        3.547  26.999   4.602  0.00  0.00    +0.005 C 
ATOM     11  C   LIG    1        2.093  27.497   4.553  0.00  0.00    +0.041 C 
ATOM     12  C   LIG    1        1.857  28.735   5.315  0.00  0.00    +0.023 C 
ENDBRANCH   1   4
BRANCH   1  13
ATOM     13  O   LIG    1        0.325  32.693   6.987  0.00  0.00    -0.444 OA
BRANCH  13  14
ATOM     14  C   LIG    1       -0.141  33.759   6.306  0.00  0.00    +0.313 C 
ATOM     15  O   LIG    1       -1.303  33.943   5.968  0.00  0.00    -0.250 OA
BRANCH  14  16
ATOM     16  C   LIG    1        0.959  34.723   6.072  0.00  0.00    +0.111 C 
ATOM     17  C   LIG    1        1.080  35.678   4.896  0.00  0.00    -0.014 C 
ATOM     18  C   LIG    1        1.734  37.015   5.176  0.00  0.00    +0.012 C 
ATOM     19  C   LIG    1       -0.008  35.774   3.855  0.00  0.00    +0.012 C 
ATOM     20  C   LIG    1        1.984  34.461   4.981  0.00  0.00    +0.032 C 
BRANCH  20  21
ATOM     21  C   LIG    1        1.827  33.292   4.100  0.00  0.00    -0.023 C 
ATOM     22  C   LIG    1        2.786  32.414   3.742  0.00  0.00    -0.079 C 
ATOM     23  C   LIG    1        2.486  31.254   2.832  0.00  0.00    +0.038 C 
ATOM     24  C   LIG    1        4.218  32.502   4.196  0.00  0.00    +0.038 C 
ENDBRANCH  20  21
ENDBRANCH  14  16
ENDBRANCH  13  14
ENDBRANCH   1  13
TORSDOF 5
ENDMDL
MODEL 2
REMARK VINA RESULT:      -7.6      0.125      1.815
REMARK  Name = 
REMARK                            x       y       z     vdW  Elec       q    Type
REMARK                         _______ _______ _______ _____ _____    ______ ____
ROOT
ATOM      1  C   LIG    1       -0.321  31.381   6.505  0.00  0.00    +0.352 C 
ENDROOT
BRANCH   1   4
ATOM      2  O   LIG    1        2.494  31.455   7.204  0.00  0.00    -0.270 OA
ATOM      3  C   LIG    1        2.003  30.583   6.511  0.00  0.00    +0.252 C 
ATOM      4  N   LIG    1        0.711  30.444   6.115  0.00  0.00    -0.200 N 
ATOM      5  C   LIG    1        0.566  29.337   5.340  0.00  0.00    +0.252 C 
ATOM      6  O   LIG    1       -0.417  28.870   4.795  0.00  0.00    -0.270 OA
ATOM      7  C   LIG    1        1.892  28.720   5.242  0.00  0.00    +0.023 C 
ATOM      8  C   LIG    1        2.203  27.491   4.496  0.00  0.00    +0.041 C 
ATOM      9  C   LIG    1        3.662  27.034   4.626  0.00  0.00    +0.005 C 
ATOM     10  C   LIG    1        4.680  27.949   5.334  0.00  0.00    +0.005 C 
ATOM     11  C   LIG    1        4.184  29.181   6.108  0.00  0.00    +0.041 C 
ATOM     12  C   LIG    1        2.748  29.457   5.941  0.00  0.00    +0.023 C 
ENDBRANCH   1   4
BRANCH   1  13
ATOM     13  O   LIG    1        0.265  32.608   6.902  0.00  0.00    -0.444 OA
BRANCH  13  14
ATOM     14  C   LIG    1       -0.203  33.705   6.272  0.00  0.00    +0.313 C 
ATOM     15  O   LIG    1       -1.366  33.905   5.947  0.00  0.00    -0.250 OA
BRANCH  14  16
ATOM     16  C   LIG    1        0.896  34.677   6.077  0.00  0.00    +0.111 C 
ATOM     17  C   LIG    1        1.040  35.650   4.918  0.00  0.00    -0.014 C 
ATOM     18  C   LIG    1        1.681  36.985   5.232  0.00  0.00    +0.012 C 
ATOM     19  C   LIG    1       -0.025  35.756   3.854  0.00  0.00    +0.012 C 
ATOM     20  C   LIG    1        1.947  34.435   5.005  0.00  0.00    +0.032 C 
BRANCH  20  21
ATOM     21  C   LIG    1        1.816  33.279   4.104  0.00  0.00    -0.023 C 
ATOM     22  C   LIG    1        2.792  32.424   3.738  0.00  0.00    -0.079 C 
ATOM     23  C   LIG    1        2.518  31.274   2.807  0.00  0.00    +0.038 C 
ATOM     24  C   LIG    1        4.219  32.528   4.202  0.00  0.00    +0.038 C 
ENDBRANCH  20  21
ENDBRANCH  14  16
ENDBRANCH  13  14
ENDBRANCH   1  13
TORSDOF 5
ENDMDL
MODEL 3
REMARK VINA RESULT:      -6.7      1.407      6.094
REMARK  Name = 
REMARK                            x       y       z     vdW  Elec       q    Type
REMARK                         _______ _______ _______ _____ _____    ______ ____
ROOT
ATOM      1  C   LIG    1       -0.992  30.896   5.678  0.00  0.00    +0.352 C 
ENDROOT
BRANCH   1   4
ATOM      2  O   LIG    1        0.892  32.442   7.252  0.00  0.00    -0.270 OA
ATOM      3  C   LIG    1        0.379  32.858   6.230  0.00  0.00    +0.252 C 
ATOM      4  N   LIG    1       -0.513  32.236   5.416  0.00  0.00    -0.200 N 
ATOM      5  C   LIG    1       -0.851  33.041   4.374  0.00  0.00    +0.252 C 
ATOM      6  O   LIG    1       -1.611  32.858   3.441  0.00  0.00    -0.270 OA
ATOM      7  C   LIG    1       -0.099  34.287   4.550  0.00  0.00    +0.023 C 
ATOM      8  C   LIG    1       -0.157  35.447   3.646  0.00  0.00    +0.041 C 
ATOM      9  C   LIG    1        0.792  36.588   4.035  0.00  0.00    +0.005 C 
ATOM     10  C   LIG    1        1.554  36.515   5.373  0.00  0.00    +0.005 C 
ATOM     11  C   LIG    1        1.547  35.207   6.180  0.00  0.00    +0.041 C 
ATOM     12  C   LIG    1        0.637  34.179   5.650  0.00  0.00    +0.023 C 
ENDBRANCH   1   4
BRANCH   1  13
ATOM     13  O   LIG    1       -0.294  29.965   4.869  0.00  0.00    -0.444 OA
BRANCH  13  14
ATOM     14  C   LIG    1        0.669  29.260   5.497  0.00  0.00    +0.313 C 
ATOM     15  O   LIG    1        0.804  29.150   6.708  0.00  0.00    -0.250 OA
BRANCH  14  16
ATOM     16  C   LIG    1        1.519  28.575   4.496  0.00  0.00    +0.111 C 
ATOM     17  C   LIG    1        2.795  27.799   4.783  0.00  0.00    -0.014 C 
ATOM     18  C   LIG    1        3.073  26.605   3.895  0.00  0.00    +0.012 C 
ATOM     19  C   LIG    1        3.281  27.595   6.196  0.00  0.00    +0.012 C 
ATOM     20  C   LIG    1        2.869  29.161   4.114  0.00  0.00    +0.032 C 
BRANCH  20  21
ATOM     21  C   LIG    1        3.366  30.361   4.807  0.00  0.00    -0.023 C 
ATOM     22  C   LIG    1        3.267  31.638   4.385  0.00  0.00    -0.079 C 
ATOM     23  C   LIG    1        3.818  32.776   5.200  0.00  0.00    +0.038 C 
ATOM     24  C   LIG    1        2.621  32.048   3.091  0.00  0.00    +0.038 C 
ENDBRANCH  20  21
ENDBRANCH  14  16
ENDBRANCH  13  14
ENDBRANCH   1  13
TORSDOF 5
ENDMDL
MODEL 4
REMARK VINA RESULT:      -6.5      1.413      5.886
REMARK  Name = 
REMARK                            x       y       z     vdW  Elec       q    Type
REMARK                         _______ _______ _______ _____ _____    ______ ____
ROOT
ATOM      1  C   LIG    1       -1.032  30.911   5.603  0.00  0.00    +0.352 C 
ENDROOT
BRANCH   1   4
ATOM      2  O   LIG    1       -1.592  32.789   3.463  0.00  0.00    -0.270 OA
ATOM      3  C   LIG    1       -0.830  33.033   4.379  0.00  0.00    +0.252 C 
ATOM      4  N   LIG    1       -0.486  32.239   5.428  0.00  0.00    -0.200 N 
ATOM      5  C   LIG    1        0.402  32.876   6.237  0.00  0.00    +0.252 C 
ATOM      6  O   LIG    1        0.947  32.513   7.262  0.00  0.00    -0.270 OA
ATOM      7  C   LIG    1        0.636  34.195   5.641  0.00  0.00    +0.023 C 
ATOM      8  C   LIG    1        1.533  35.226   6.189  0.00  0.00    +0.041 C 
ATOM      9  C   LIG    1        1.528  36.540   5.397  0.00  0.00    +0.005 C 
ATOM     10  C   LIG    1        0.773  36.612   4.055  0.00  0.00    +0.005 C 
ATOM     11  C   LIG    1       -0.161  35.461   3.647  0.00  0.00    +0.041 C 
ATOM     12  C   LIG    1       -0.098  34.292   4.539  0.00  0.00    +0.023 C 
ENDBRANCH   1   4
BRANCH   1  13
ATOM     13  O   LIG    1       -0.308  29.983   4.814  0.00  0.00    -0.444 OA
BRANCH  13  14
ATOM     14  C   LIG    1        0.655  29.297   5.464  0.00  0.00    +0.313 C 
ATOM     15  O   LIG    1        0.783  29.215   6.678  0.00  0.00    -0.250 OA
BRANCH  14  16
ATOM     16  C   LIG    1        1.516  28.595   4.485  0.00  0.00    +0.111 C 
ATOM     17  C   LIG    1        2.783  27.817   4.800  0.00  0.00    -0.014 C 
ATOM     18  C   LIG    1        3.067  26.609   3.932  0.00  0.00    +0.012 C 
ATOM     19  C   LIG    1        3.249  27.629   6.223  0.00  0.00    +0.012 C 
ATOM     20  C   LIG    1        2.874  29.169   4.114  0.00  0.00    +0.032 C 
BRANCH  20  21
ATOM     21  C   LIG    1        3.367  30.375   4.797  0.00  0.00    -0.023 C 
ATOM     22  C   LIG    1        3.265  31.649   4.366  0.00  0.00    -0.079 C 
ATOM     23  C   LIG    1        3.812  32.794   5.172  0.00  0.00    +0.038 C 
ATOM     24  C   LIG    1        2.618  32.047   3.068  0.00  0.00    +0.038 C 
ENDBRANCH  20  21
ENDBRANCH  14  16
ENDBRANCH  13  14
ENDBRANCH   1  13
TORSDOF 5
ENDMDL
MODEL 5
REMARK VINA RESULT:      -6.3      1.033      2.599
REMARK  Name = 
REMARK                            x       y       z     vdW  Elec       q    Type
REMARK                         _______ _______ _______ _____ _____    ______ ____
ROOT
ATOM      1  C   LIG    1       -0.084  30.723   7.049  0.00  0.00    +0.352 C 
ENDROOT
BRANCH   1   4
ATOM      2  O   LIG    1       -0.219  28.441   5.261  0.00  0.00    -0.270 OA
ATOM      3  C   LIG    1        0.828  28.899   5.677  0.00  0.00    +0.252 C 
ATOM      4  N   LIG    1        1.019  29.952   6.516  0.00  0.00    -0.200 N 
ATOM      5  C   LIG    1        2.344  30.144   6.747  0.00  0.00    +0.252 C 
ATOM      6  O   LIG    1        2.921  30.968   7.432  0.00  0.00    -0.270 OA
ATOM      7  C   LIG    1        3.055  29.116   5.980  0.00  0.00    +0.023 C 
ATOM      8  C   LIG    1        4.516  28.951   5.935  0.00  0.00    +0.041 C 
ATOM      9  C   LIG    1        4.987  27.837   4.991  0.00  0.00    +0.005 C 
ATOM     10  C   LIG    1        3.947  26.903   4.343  0.00  0.00    +0.005 C 
ATOM     11  C   LIG    1        2.451  27.243   4.450  0.00  0.00    +0.041 C 
ATOM     12  C   LIG    1        2.156  28.377   5.340  0.00  0.00    +0.023 C 
ENDBRANCH   1   4
BRANCH   1  13
ATOM     13  O   LIG    1       -0.116  32.003   6.444  0.00  0.00    -0.444 OA
BRANCH  13  14
ATOM     14  C   LIG    1       -0.532  32.029   5.161  0.00  0.00    +0.313 C 
ATOM     15  O   LIG    1       -1.695  31.989   4.783  0.00  0.00    -0.250 OA
BRANCH  14  16
ATOM     16  C   LIG    1        0.634  32.176   4.261  0.00  0.00    +0.111 C 
ATOM     17  C   LIG    1        1.836  33.078   4.489  0.00  0.00    -0.014 C 
ATOM     18  C   LIG    1        3.167  32.573   3.974  0.00  0.00    +0.012 C 
ATOM     19  C   LIG    1        1.975  33.885   5.756  0.00  0.00    +0.012 C 
ATOM     20  C   LIG    1        0.805  33.440   3.434  0.00  0.00    +0.032 C 
BRANCH  20  21
ATOM     21  C   LIG    1       -0.144  34.553   3.600  0.00  0.00    -0.023 C 
ATOM     22  C   LIG    1        0.157  35.842   3.857  0.00  0.00    -0.079 C 
ATOM     23  C   LIG    1       -0.918  36.884   3.999  0.00  0.00    +0.038 C 
ATOM     24  C   LIG    1        1.559  36.359   4.032  0.00  0.00    +0.038 C 
ENDBRANCH  20  21
ENDBRANCH  14  16
ENDBRANCH  13  14
ENDBRANCH   1  13
TORSDOF 5
ENDMDL
MODEL 6
REMARK VINA RESULT:      -6.2      1.160      3.375
REMARK  Name = 
REMARK                            x       y       z     vdW  Elec       q    Type
REMARK                         _______ _______ _______ _____ _____    ______ ____
ROOT
ATOM      1  C   LIG    1       -0.658  30.648   6.532  0.00  0.00    +0.352 C 
ENDROOT
BRANCH   1   4
ATOM      2  O   LIG    1        2.060  31.056   7.465  0.00  0.00    -0.270 OA
ATOM      3  C   LIG    1        1.759  30.213   6.640  0.00  0.00    +0.252 C 
ATOM      4  N   LIG    1        0.532  29.932   6.125  0.00  0.00    -0.200 N 
ATOM      5  C   LIG    1        0.615  28.921   5.221  0.00  0.00    +0.252 C 
ATOM      6  O   LIG    1       -0.244  28.384   4.547  0.00  0.00    -0.270 OA
ATOM      7  C   LIG    1        2.026  28.527   5.164  0.00  0.00    +0.023 C 
ATOM      8  C   LIG    1        2.575  27.460   4.311  0.00  0.00    +0.041 C 
ATOM      9  C   LIG    1        4.076  27.215   4.510  0.00  0.00    +0.005 C 
ATOM     10  C   LIG    1        4.889  28.177   5.398  0.00  0.00    +0.005 C 
ATOM     11  C   LIG    1        4.155  29.215   6.263  0.00  0.00    +0.041 C 
ATOM     12  C   LIG    1        2.708  29.291   6.010  0.00  0.00    +0.023 C 
ENDBRANCH   1   4
BRANCH   1  13
ATOM     13  O   LIG    1       -0.999  31.614   5.555  0.00  0.00    -0.444 OA
BRANCH  13  14
ATOM     14  C   LIG    1       -0.127  32.634   5.418  0.00  0.00    +0.313 C 
ATOM     15  O   LIG    1        0.020  33.562   6.202  0.00  0.00    -0.250 OA
BRANCH  14  16
ATOM     16  C   LIG    1        0.684  32.438   4.195  0.00  0.00    +0.111 C 
ATOM     17  C   LIG    1        2.131  32.862   4.001  0.00  0.00    -0.014 C 
ATOM     18  C   LIG    1        2.983  31.972   3.121  0.00  0.00    +0.012 C 
ATOM     19  C   LIG    1        2.918  33.486   5.126  0.00  0.00    +0.012 C 
ATOM     20  C   LIG    1        1.017  33.622   3.303  0.00  0.00    +0.032 C 
BRANCH  20  21
ATOM     21  C   LIG    1        0.606  34.977   3.706  0.00  0.00    -0.023 C 
ATOM     22  C   LIG    1       -0.619  35.524   3.573  0.00  0.00    -0.079 C 
ATOM     23  C   LIG    1       -0.904  36.927   4.034  0.00  0.00    +0.038 C 
ATOM     24  C   LIG    1       -1.795  34.814   2.960  0.00  0.00    +0.038 C 
ENDBRANCH  20  21
ENDBRANCH  14  16
ENDBRANCH  13  14
ENDBRANCH   1  13
TORSDOF 5
ENDMDL
MODEL 7
REMARK VINA RESULT:      -5.4      1.940      3.722
REMARK  Name = 
REMARK                            x       y       z     vdW  Elec       q    Type
REMARK                         _______ _______ _______ _____ _____    ______ ____
ROOT
ATOM      1  C   LIG    1        3.400  33.218   4.045  0.00  0.00    +0.352 C 
ENDROOT
BRANCH   1   4
ATOM      2  O   LIG    1        5.287  31.482   5.404  0.00  0.00    -0.270 OA
ATOM      3  C   LIG    1        4.251  31.081   4.909  0.00  0.00    +0.252 C 
ATOM      4  N   LIG    1        3.297  31.789   4.248  0.00  0.00    -0.200 N 
ATOM      5  C   LIG    1        2.291  30.971   3.840  0.00  0.00    +0.252 C 
ATOM      6  O   LIG    1        1.269  31.212   3.225  0.00  0.00    -0.270 OA
ATOM      7  C   LIG    1        2.644  29.621   4.289  0.00  0.00    +0.023 C 
ATOM      8  C   LIG    1        1.833  28.414   4.065  0.00  0.00    +0.041 C 
ATOM      9  C   LIG    1        2.411  27.147   4.709  0.00  0.00    +0.005 C 
ATOM     10  C   LIG    1        3.814  27.194   5.345  0.00  0.00    +0.005 C 
ATOM     11  C   LIG    1        4.512  28.549   5.545  0.00  0.00    +0.041 C 
ATOM     12  C   LIG    1        3.807  29.684   4.928  0.00  0.00    +0.023 C 
ENDBRANCH   1   4
BRANCH   1  13
ATOM     13  O   LIG    1        2.109  33.778   3.878  0.00  0.00    -0.444 OA
BRANCH  13  14
ATOM     14  C   LIG    1        1.534  34.256   5.000  0.00  0.00    +0.313 C 
ATOM     15  O   LIG    1        2.040  35.048   5.784  0.00  0.00    -0.250 OA
BRANCH  14  16
ATOM     16  C   LIG    1        0.157  33.727   5.120  0.00  0.00    +0.111 C 
ATOM     17  C   LIG    1       -0.740  33.829   6.344  0.00  0.00    -0.014 C 
ATOM     18  C   LIG    1       -2.225  33.965   6.083  0.00  0.00    +0.012 C 
ATOM     19  C   LIG    1       -0.297  34.582   7.573  0.00  0.00    +0.012 C 
ATOM     20  C   LIG    1       -0.115  32.496   5.970  0.00  0.00    +0.032 C 
BRANCH  20  21
ATOM     21  C   LIG    1        0.979  31.887   6.743  0.00  0.00    -0.023 C 
ATOM     22  C   LIG    1        1.035  30.623   7.209  0.00  0.00    -0.079 C 
ATOM     23  C   LIG    1        2.224  30.127   7.985  0.00  0.00    +0.038 C 
ATOM     24  C   LIG    1       -0.056  29.606   7.015  0.00  0.00    +0.038 C 
ENDBRANCH  20  21
ENDBRANCH  14  16
ENDBRANCH  13  14
ENDBRANCH   1  13
TORSDOF 5
ENDMDL
MODEL 8
REMARK VINA RESULT:      -5.2      1.564      5.628
REMARK  Name = 
REMARK                            x       y       z     vdW  Elec       q    Type
REMARK                         _______ _______ _______ _____ _____    ______ ____
ROOT
ATOM      1  C   LIG    1       -1.328  31.614   5.637  0.00  0.00    +0.352 C 
ENDROOT
BRANCH   1   4
ATOM      2  O   LIG    1       -0.185  33.530   7.493  0.00  0.00    -0.270 OA
ATOM      3  C   LIG    1       -0.132  33.661   6.284  0.00  0.00    +0.252 C 
ATOM      4  N   LIG    1       -0.630  32.841   5.321  0.00  0.00    -0.200 N 
ATOM      5  C   LIG    1       -0.368  33.343   4.085  0.00  0.00    +0.252 C 
ATOM      6  O   LIG    1       -0.644  32.918   2.979  0.00  0.00    -0.270 OA
ATOM      7  C   LIG    1        0.365  34.596   4.291  0.00  0.00    +0.023 C 
ATOM      8  C   LIG    1        0.854  35.478   3.220  0.00  0.00    +0.041 C 
ATOM      9  C   LIG    1        1.654  36.686   3.724  0.00  0.00    +0.005 C 
ATOM     10  C   LIG    1        1.720  36.971   5.237  0.00  0.00    +0.005 C 
ATOM     11  C   LIG    1        1.199  35.921   6.231  0.00  0.00    +0.041 C 
ATOM     12  C   LIG    1        0.511  34.785   5.598  0.00  0.00    +0.023 C 
ENDBRANCH   1   4
BRANCH   1  13
ATOM     13  O   LIG    1       -0.492  30.500   5.379  0.00  0.00    -0.444 OA
BRANCH  13  14
ATOM     14  C   LIG    1        0.256  30.082   6.421  0.00  0.00    +0.313 C 
ATOM     15  O   LIG    1       -0.015  29.155   7.172  0.00  0.00    -0.250 OA
BRANCH  14  16
ATOM     16  C   LIG    1        1.503  30.878   6.492  0.00  0.00    +0.111 C 
ATOM     17  C   LIG    1        2.424  31.208   5.328  0.00  0.00    -0.014 C 
ATOM     18  C   LIG    1        3.122  32.551   5.379  0.00  0.00    +0.012 C 
ATOM     19  C   LIG    1        2.081  30.788   3.920  0.00  0.00    +0.012 C 
ATOM     20  C   LIG    1        2.853  30.191   6.370  0.00  0.00    +0.032 C 
BRANCH  20  21
ATOM     21  C   LIG    1        2.915  28.747   6.093  0.00  0.00    -0.023 C 
ATOM     22  C   LIG    1        3.940  28.073   5.534  0.00  0.00    -0.079 C 
ATOM     23  C   LIG    1        3.871  26.587   5.311  0.00  0.00    +0.038 C 
ATOM     24  C   LIG    1        5.222  28.716   5.081  0.00  0.00    +0.038 C 
ENDBRANCH  20  21
ENDBRANCH  14  16
ENDBRANCH  13  14
ENDBRANCH   1  13
TORSDOF 5
ENDMDL
MODEL 9
REMARK VINA RESULT:      -5.1      2.070      3.620
REMARK  Name = 
REMARK                            x       y       z     vdW  Elec       q    Type
REMARK                         _______ _______ _______ _____ _____    ______ ____
ROOT
ATOM      1  C   LIG    1        3.742  32.482   3.351  0.00  0.00    +0.352 C 
ENDROOT
BRANCH   1   4
ATOM      2  O   LIG    1        5.218  30.543   4.928  0.00  0.00    -0.270 OA
ATOM      3  C   LIG    1        4.044  30.409   4.636  0.00  0.00    +0.252 C 
ATOM      4  N   LIG    1        3.253  31.238   3.905  0.00  0.00    -0.200 N 
ATOM      5  C   LIG    1        1.998  30.727   3.797  0.00  0.00    +0.252 C 
ATOM      6  O   LIG    1        1.010  31.156   3.231  0.00  0.00    -0.270 OA
ATOM      7  C   LIG    1        2.000  29.458   4.531  0.00  0.00    +0.023 C 
ATOM      8  C   LIG    1        0.842  28.562   4.679  0.00  0.00    +0.041 C 
ATOM      9  C   LIG    1        1.111  27.337   5.562  0.00  0.00    +0.005 C 
ATOM     10  C   LIG    1        2.547  27.053   6.045  0.00  0.00    +0.005 C 
ATOM     11  C   LIG    1        3.638  28.118   5.848  0.00  0.00    +0.041 C 
ATOM     12  C   LIG    1        3.214  29.268   5.034  0.00  0.00    +0.023 C 
ENDBRANCH   1   4
BRANCH   1  13
ATOM     13  O   LIG    1        2.653  33.314   2.992  0.00  0.00    -0.444 OA
BRANCH  13  14
ATOM     14  C   LIG    1        2.331  34.267   3.890  0.00  0.00    +0.313 C 
ATOM     15  O   LIG    1        3.098  34.789   4.689  0.00  0.00    -0.250 OA
BRANCH  14  16
ATOM     16  C   LIG    1        0.908  34.644   3.730  0.00  0.00    +0.111 C 
ATOM     17  C   LIG    1        0.128  35.600   4.618  0.00  0.00    -0.014 C 
ATOM     18  C   LIG    1       -0.941  36.431   3.940  0.00  0.00    +0.012 C 
ATOM     19  C   LIG    1        0.801  36.336   5.750  0.00  0.00    +0.012 C 
ATOM     20  C   LIG    1       -0.136  34.107   4.696  0.00  0.00    +0.032 C 
BRANCH  20  21
ATOM     21  C   LIG    1        0.286  33.284   5.842  0.00  0.00    -0.023 C 
ATOM     22  C   LIG    1       -0.222  32.091   6.212  0.00  0.00    -0.079 C 
ATOM     23  C   LIG    1        0.309  31.352   7.410  0.00  0.00    +0.038 C 
ATOM     24  C   LIG    1       -1.344  31.395   5.492  0.00  0.00    +0.038 C 
ENDBRANCH  20  21
ENDBRANCH  14  16
ENDBRANCH  13  14
ENDBRANCH   1  13
TORSDOF 5
ENDMDL
