MODEL 1
REMARK VINA RESULT:      -8.0      0.000      0.000
REMARK  Name = 
REMARK                            x       y       z     vdW  Elec       q    Type
REMARK                         _______ _______ _______ _____ _____    ______ ____
ROOT
ATOM      1  C   LIG    1      -45.731  12.115 -44.228  0.00  0.00    +0.352 C 
ENDROOT
BRANCH   1   4
ATOM      2  O   LIG    1      -48.478  12.794 -43.584  0.00  0.00    -0.270 OA
ATOM      3  C   LIG    1      -47.786  12.082 -42.880  0.00  0.00    +0.252 C 
ATOM      4  N   LIG    1      -46.496  11.699 -43.072  0.00  0.00    -0.200 N 
ATOM      5  C   LIG    1      -46.079  10.904 -42.052  0.00  0.00    +0.252 C 
ATOM      6  O   LIG    1      -45.006  10.365 -41.851  0.00  0.00    -0.270 OA
ATOM      7  C   LIG    1      -47.214  10.772 -41.134  0.00  0.00    +0.023 C 
ATOM      8  C   LIG    1      -47.210   9.991 -39.886  0.00  0.00    +0.041 C 
ATOM      9  C   LIG    1      -48.561   9.971 -39.160  0.00  0.00    +0.005 C 
ATOM     10  C   LIG    1      -49.705  10.873 -39.664  0.00  0.00    +0.005 C 
ATOM     11  C   LIG    1      -49.565  11.591 -41.016  0.00  0.00    +0.041 C 
ATOM     12  C   LIG    1      -48.232  11.468 -41.627  0.00  0.00    +0.023 C 
ENDBRANCH   1   4
BRANCH   1  13
ATOM     13  O   LIG    1      -45.990  11.247 -45.317  0.00  0.00    -0.444 OA
BRANCH  13  14
ATOM     14  C   LIG    1      -45.147  10.201 -45.438  0.00  0.00    +0.313 C 
ATOM     15  O   LIG    1      -44.029  10.120 -44.945  0.00  0.00    -0.250 OA
BRANCH  14  16
ATOM     16  C   LIG    1      -45.798   9.121 -46.214  0.00  0.00    +0.111 C 
ATOM     17  C   LIG    1      -47.292   8.856 -46.303  0.00  0.00    -0.014 C 
ATOM     18  C   LIG    1      -47.804   8.313 -47.621  0.00  0.00    +0.012 C 
ATOM     19  C   LIG    1      -48.287   9.768 -45.628  0.00  0.00    +0.012 C 
ATOM     20  C   LIG    1      -46.404   7.926 -45.497  0.00  0.00    +0.032 C 
BRANCH  20  21
ATOM     21  C   LIG    1      -46.419   7.890 -44.025  0.00  0.00    -0.023 C 
ATOM     22  C   LIG    1      -46.180   6.820 -43.239  0.00  0.00    -0.079 C 
ATOM     23  C   LIG    1      -46.225   6.925 -41.740  0.00  0.00    +0.038 C 
ATOM     24  C   LIG    1      -45.859   5.447 -43.763  0.00  0.00    +0.038 C 
ENDBRANCH  20  21
ENDBRANCH  14  16
ENDBRANCH  13  14
ENDBRANCH   1  13
TORSDOF 5
ENDMDL
MODEL 2
REMARK VINA RESULT:      -8.0      3.333      5.446
REMARK  Name = 
REMARK                            x       y       z     vdW  Elec       q    Type
REMARK                         _______ _______ _______ _____ _____    ______ ____
ROOT
ATOM      1  C   LIG    1      -45.131  10.931 -43.443  0.00  0.00    +0.352 C 
ENDROOT
BRANCH   1   4
ATOM      2  O   LIG    1      -47.456  12.617 -43.857  0.00  0.00    -0.270 OA
ATOM      3  C   LIG    1      -47.324  11.892 -42.890  0.00  0.00    +0.252 C 
ATOM      4  N   LIG    1      -46.288  11.067 -42.584  0.00  0.00    -0.200 N 
ATOM      5  C   LIG    1      -46.519  10.428 -41.407  0.00  0.00    +0.252 C 
ATOM      6  O   LIG    1      -45.845   9.620 -40.795  0.00  0.00    -0.270 OA
ATOM      7  C   LIG    1      -47.824  10.894 -40.928  0.00  0.00    +0.023 C 
ATOM      8  C   LIG    1      -48.474  10.458 -39.682  0.00  0.00    +0.041 C 
ATOM      9  C   LIG    1      -49.871  11.055 -39.467  0.00  0.00    +0.005 C 
ATOM     10  C   LIG    1      -50.381  12.151 -40.424  0.00  0.00    +0.005 C 
ATOM     11  C   LIG    1      -49.599  12.458 -41.712  0.00  0.00    +0.041 C 
ATOM     12  C   LIG    1      -48.307  11.761 -41.810  0.00  0.00    +0.023 C 
ENDBRANCH   1   4
BRANCH   1  13
ATOM     13  O   LIG    1      -44.083  11.761 -42.977  0.00  0.00    -0.444 OA
BRANCH  13  14
ATOM     14  C   LIG    1      -43.761  12.795 -43.781  0.00  0.00    +0.313 C 
ATOM     15  O   LIG    1      -44.389  13.161 -44.766  0.00  0.00    -0.250 OA
BRANCH  14  16
ATOM     16  C   LIG    1      -42.552  13.475 -43.262  0.00  0.00    +0.111 C 
ATOM     17  C   LIG    1      -41.749  14.549 -43.978  0.00  0.00    -0.014 C 
ATOM     18  C   LIG    1      -41.114  15.611 -43.106  0.00  0.00    +0.012 C 
ATOM     19  C   LIG    1      -42.188  15.087 -45.317  0.00  0.00    +0.012 C 
ATOM     20  C   LIG    1      -41.185  13.146 -43.839  0.00  0.00    +0.032 C 
BRANCH  20  21
ATOM     21  C   LIG    1      -41.078  12.217 -44.976  0.00  0.00    -0.023 C 
ATOM     22  C   LIG    1      -40.127  12.213 -45.932  0.00  0.00    -0.079 C 
ATOM     23  C   LIG    1      -40.135  11.197 -47.041  0.00  0.00    +0.038 C 
ATOM     24  C   LIG    1      -38.993  13.199 -45.993  0.00  0.00    +0.038 C 
ENDBRANCH  20  21
ENDBRANCH  14  16
ENDBRANCH  13  14
ENDBRANCH   1  13
TORSDOF 5
ENDMDL
MODEL 3
REMARK VINA RESULT:      -7.7      3.339      6.110
REMARK  Name = 
REMARK                            x       y       z     vdW  Elec       q    Type
REMARK                         _______ _______ _______ _____ _____    ______ ____
ROOT
ATOM      1  C   LIG    1      -43.801  10.629 -43.711  0.00  0.00    +0.352 C 
ENDROOT
BRANCH   1   4
ATOM      2  O   LIG    1      -41.850  11.056 -45.816  0.00  0.00    -0.270 OA
ATOM      3  C   LIG    1      -42.070  11.868 -44.938  0.00  0.00    +0.252 C 
ATOM      4  N   LIG    1      -42.948  11.782 -43.903  0.00  0.00    -0.200 N 
ATOM      5  C   LIG    1      -42.891  12.900 -43.134  0.00  0.00    +0.252 C 
ATOM      6  O   LIG    1      -43.506  13.207 -42.129  0.00  0.00    -0.270 OA
ATOM      7  C   LIG    1      -41.883  13.774 -43.742  0.00  0.00    +0.023 C 
ATOM      8  C   LIG    1      -41.494  15.100 -43.237  0.00  0.00    +0.041 C 
ATOM      9  C   LIG    1      -40.465  15.824 -44.115  0.00  0.00    +0.005 C 
ATOM     10  C   LIG    1      -39.812  15.073 -45.291  0.00  0.00    +0.005 C 
ATOM     11  C   LIG    1      -40.368  13.705 -45.721  0.00  0.00    +0.041 C 
ATOM     12  C   LIG    1      -41.397  13.165 -44.817  0.00  0.00    +0.023 C 
ENDBRANCH   1   4
BRANCH   1  13
ATOM     13  O   LIG    1      -45.158  11.034 -43.656  0.00  0.00    -0.444 OA
BRANCH  13  14
ATOM     14  C   LIG    1      -46.064  10.058 -43.870  0.00  0.00    +0.313 C 
ATOM     15  O   LIG    1      -46.933  10.063 -44.731  0.00  0.00    -0.250 OA
BRANCH  14  16
ATOM     16  C   LIG    1      -45.816   8.934 -42.939  0.00  0.00    +0.111 C 
ATOM     17  C   LIG    1      -46.660   7.676 -42.807  0.00  0.00    -0.014 C 
ATOM     18  C   LIG    1      -45.922   6.401 -42.457  0.00  0.00    +0.012 C 
ATOM     19  C   LIG    1      -47.840   7.430 -43.715  0.00  0.00    +0.012 C 
ATOM     20  C   LIG    1      -46.709   8.739 -41.724  0.00  0.00    +0.032 C 
BRANCH  20  21
ATOM     21  C   LIG    1      -47.872   9.619 -41.526  0.00  0.00    -0.023 C 
ATOM     22  C   LIG    1      -48.448   9.947 -40.351  0.00  0.00    -0.079 C 
ATOM     23  C   LIG    1      -49.637  10.866 -40.292  0.00  0.00    +0.038 C 
ATOM     24  C   LIG    1      -47.982   9.438 -39.015  0.00  0.00    +0.038 C 
ENDBRANCH  20  21
ENDBRANCH  14  16
ENDBRANCH  13  14
ENDBRANCH   1  13
TORSDOF 5
ENDMDL
MODEL 4
REMARK VINA RESULT:      -7.5      2.951      4.928
REMARK  Name = 
REMARK                            x       y       z     vdW  Elec       q    Type
REMARK                         _______ _______ _______ _____ _____    ______ ____
ROOT
ATOM      1  C   LIG    1      -45.659   9.701 -43.206  0.00  0.00    +0.352 C 
ENDROOT
BRANCH   1   4
ATOM      2  O   LIG    1      -47.067   8.940 -40.785  0.00  0.00    -0.270 OA
ATOM      3  C   LIG    1      -47.364   9.915 -41.449  0.00  0.00    +0.252 C 
ATOM      4  N   LIG    1      -46.789  10.368 -42.594  0.00  0.00    -0.200 N 
ATOM      5  C   LIG    1      -47.418  11.489 -43.034  0.00  0.00    +0.252 C 
ATOM      6  O   LIG    1      -47.212  12.187 -44.009  0.00  0.00    -0.270 OA
ATOM      7  C   LIG    1      -48.490  11.770 -42.073  0.00  0.00    +0.023 C 
ATOM      8  C   LIG    1      -49.428  12.900 -42.156  0.00  0.00    +0.041 C 
ATOM      9  C   LIG    1      -50.401  12.989 -40.972  0.00  0.00    +0.005 C 
ATOM     10  C   LIG    1      -50.445  11.845 -39.941  0.00  0.00    +0.005 C 
ATOM     11  C   LIG    1      -49.359  10.757 -39.967  0.00  0.00    +0.041 C 
ATOM     12  C   LIG    1      -48.457  10.838 -41.127  0.00  0.00    +0.023 C 
ENDBRANCH   1   4
BRANCH   1  13
ATOM     13  O   LIG    1      -44.543  10.573 -43.241  0.00  0.00    -0.444 OA
BRANCH  13  14
ATOM     14  C   LIG    1      -44.077  10.869 -44.471  0.00  0.00    +0.313 C 
ATOM     15  O   LIG    1      -44.085  10.122 -45.441  0.00  0.00    -0.250 OA
BRANCH  14  16
ATOM     16  C   LIG    1      -43.601  12.271 -44.501  0.00  0.00    +0.111 C 
ATOM     17  C   LIG    1      -43.011  12.993 -45.701  0.00  0.00    -0.014 C 
ATOM     18  C   LIG    1      -43.302  14.475 -45.808  0.00  0.00    +0.012 C 
ATOM     19  C   LIG    1      -42.927  12.322 -47.050  0.00  0.00    +0.012 C 
ATOM     20  C   LIG    1      -42.112  12.569 -44.553  0.00  0.00    +0.032 C 
BRANCH  20  21
ATOM     21  C   LIG    1      -41.150  11.461 -44.665  0.00  0.00    -0.023 C 
ATOM     22  C   LIG    1      -39.922  11.508 -45.220  0.00  0.00    -0.079 C 
ATOM     23  C   LIG    1      -39.035  10.294 -45.262  0.00  0.00    +0.038 C 
ATOM     24  C   LIG    1      -39.327  12.741 -45.843  0.00  0.00    +0.038 C 
ENDBRANCH  20  21
ENDBRANCH  14  16
ENDBRANCH  13  14
ENDBRANCH   1  13
TORSDOF 5
ENDMDL
MODEL 5
REMARK VINA RESULT:      -7.4      3.452      6.147
REMARK  Name = 
REMARK                            x       y       z     vdW  Elec       q    Type
REMARK                         _______ _______ _______ _____ _____    ______ ____
ROOT
ATOM      1  C   LIG    1      -43.352  10.455 -44.125  0.00  0.00    +0.352 C 
ENDROOT
BRANCH   1   4
ATOM      2  O   LIG    1      -43.573  12.929 -42.625  0.00  0.00    -0.270 OA
ATOM      3  C   LIG    1      -42.747  12.753 -43.501  0.00  0.00    +0.252 C 
ATOM      4  N   LIG    1      -42.550  11.650 -44.271  0.00  0.00    -0.200 N 
ATOM      5  C   LIG    1      -41.527  11.854 -45.142  0.00  0.00    +0.252 C 
ATOM      6  O   LIG    1      -41.047  11.124 -45.990  0.00  0.00    -0.270 OA
ATOM      7  C   LIG    1      -41.034  13.212 -44.897  0.00  0.00    +0.023 C 
ATOM      8  C   LIG    1      -39.923  13.855 -45.618  0.00  0.00    +0.041 C 
ATOM      9  C   LIG    1      -39.574  15.256 -45.102  0.00  0.00    +0.005 C 
ATOM     10  C   LIG    1      -40.483  15.925 -44.053  0.00  0.00    +0.005 C 
ATOM     11  C   LIG    1      -41.578  15.097 -43.359  0.00  0.00    +0.041 C 
ATOM     12  C   LIG    1      -41.755  13.748 -43.919  0.00  0.00    +0.023 C 
ENDBRANCH   1   4
BRANCH   1  13
ATOM     13  O   LIG    1      -44.655  10.682 -44.631  0.00  0.00    -0.444 OA
BRANCH  13  14
ATOM     14  C   LIG    1      -45.452   9.595 -44.689  0.00  0.00    +0.313 C 
ATOM     15  O   LIG    1      -46.059   9.203 -45.677  0.00  0.00    -0.250 OA
BRANCH  14  16
ATOM     16  C   LIG    1      -45.441   8.896 -43.384  0.00  0.00    +0.111 C 
ATOM     17  C   LIG    1      -46.570   8.059 -42.805  0.00  0.00    -0.014 C 
ATOM     18  C   LIG    1      -46.164   6.873 -41.955  0.00  0.00    +0.012 C 
ATOM     19  C   LIG    1      -47.831   7.801 -43.591  0.00  0.00    +0.012 C 
ATOM     20  C   LIG    1      -46.269   9.430 -42.226  0.00  0.00    +0.032 C 
BRANCH  20  21
ATOM     21  C   LIG    1      -47.150  10.591 -42.434  0.00  0.00    -0.023 C 
ATOM     22  C   LIG    1      -48.230  10.929 -41.701  0.00  0.00    -0.079 C 
ATOM     23  C   LIG    1      -49.043  12.153 -42.023  0.00  0.00    +0.038 C 
ATOM     24  C   LIG    1      -48.726  10.139 -40.521  0.00  0.00    +0.038 C 
ENDBRANCH  20  21
ENDBRANCH  14  16
ENDBRANCH  13  14
ENDBRANCH   1  13
TORSDOF 5
ENDMDL
MODEL 6
REMARK VINA RESULT:      -7.3      2.710      5.329
REMARK  Name = 
REMARK                            x       y       z     vdW  Elec       q    Type
REMARK                         _______ _______ _______ _____ _____    ______ ____
ROOT
ATOM      1  C   LIG    1      -45.841  11.392 -44.465  0.00  0.00    +0.352 C 
ENDROOT
BRANCH   1   4
ATOM      2  O   LIG    1      -43.953  11.848 -42.309  0.00  0.00    -0.270 OA
ATOM      3  C   LIG    1      -43.960  12.500 -43.336  0.00  0.00    +0.252 C 
ATOM      4  N   LIG    1      -44.791  12.385 -44.407  0.00  0.00    -0.200 N 
ATOM      5  C   LIG    1      -44.477  13.307 -45.355  0.00  0.00    +0.252 C 
ATOM      6  O   LIG    1      -44.975  13.532 -46.442  0.00  0.00    -0.270 OA
ATOM      7  C   LIG    1      -43.340  14.073 -44.832  0.00  0.00    +0.023 C 
ATOM      8  C   LIG    1      -42.669  15.178 -45.533  0.00  0.00    +0.041 C 
ATOM      9  C   LIG    1      -41.460  15.750 -44.780  0.00  0.00    +0.005 C 
ATOM     10  C   LIG    1      -41.172  15.277 -43.342  0.00  0.00    +0.005 C 
ATOM     11  C   LIG    1      -41.939  14.074 -42.771  0.00  0.00    +0.041 C 
ATOM     12  C   LIG    1      -43.029  13.591 -43.634  0.00  0.00    +0.023 C 
ENDBRANCH   1   4
BRANCH   1  13
ATOM     13  O   LIG    1      -45.282  10.109 -44.682  0.00  0.00    -0.444 OA
BRANCH  13  14
ATOM     14  C   LIG    1      -46.163   9.139 -45.002  0.00  0.00    +0.313 C 
ATOM     15  O   LIG    1      -46.962   9.172 -45.929  0.00  0.00    -0.250 OA
BRANCH  14  16
ATOM     16  C   LIG    1      -45.984   7.981 -44.096  0.00  0.00    +0.111 C 
ATOM     17  C   LIG    1      -47.005   6.890 -43.821  0.00  0.00    -0.014 C 
ATOM     18  C   LIG    1      -46.458   5.503 -43.558  0.00  0.00    +0.012 C 
ATOM     19  C   LIG    1      -48.329   6.861 -44.546  0.00  0.00    +0.012 C 
ATOM     20  C   LIG    1      -46.711   7.938 -42.762  0.00  0.00    +0.032 C 
BRANCH  20  21
ATOM     21  C   LIG    1      -47.662   9.006 -42.415  0.00  0.00    -0.023 C 
ATOM     22  C   LIG    1      -47.973   9.441 -41.177  0.00  0.00    -0.079 C 
ATOM     23  C   LIG    1      -48.965  10.552 -40.964  0.00  0.00    +0.038 C 
ATOM     24  C   LIG    1      -47.384   8.876 -39.914  0.00  0.00    +0.038 C 
ENDBRANCH  20  21
ENDBRANCH  14  16
ENDBRANCH  13  14
ENDBRANCH   1  13
TORSDOF 5
ENDMDL
MODEL 7
REMARK VINA RESULT:      -7.2      3.247      6.231
REMARK  Name = 
REMARK                            x       y       z     vdW  Elec       q    Type
REMARK                         _______ _______ _______ _____ _____    ______ ____
ROOT
ATOM      1  C   LIG    1      -44.562  11.614 -43.944  0.00  0.00    +0.352 C 
ENDROOT
BRANCH   1   4
ATOM      2  O   LIG    1      -43.729  12.695 -46.505  0.00  0.00    -0.270 OA
ATOM      3  C   LIG    1      -43.315  13.113 -45.440  0.00  0.00    +0.252 C 
ATOM      4  N   LIG    1      -43.625  12.690 -44.186  0.00  0.00    -0.200 N 
ATOM      5  C   LIG    1      -42.945  13.412 -43.257  0.00  0.00    +0.252 C 
ATOM      6  O   LIG    1      -42.941  13.344 -42.042  0.00  0.00    -0.270 OA
ATOM      7  C   LIG    1      -42.132  14.383 -43.997  0.00  0.00    +0.023 C 
ATOM      8  C   LIG    1      -41.234  15.377 -43.387  0.00  0.00    +0.041 C 
ATOM      9  C   LIG    1      -40.564  16.314 -44.400  0.00  0.00    +0.005 C 
ATOM     10  C   LIG    1      -40.725  16.039 -45.907  0.00  0.00    +0.005 C 
ATOM     11  C   LIG    1      -41.742  14.989 -46.383  0.00  0.00    +0.041 C 
ATOM     12  C   LIG    1      -42.354  14.210 -45.294  0.00  0.00    +0.023 C 
ENDBRANCH   1   4
BRANCH   1  13
ATOM     13  O   LIG    1      -45.581  12.049 -43.061  0.00  0.00    -0.444 OA
BRANCH  13  14
ATOM     14  C   LIG    1      -45.821  11.239 -42.009  0.00  0.00    +0.313 C 
ATOM     15  O   LIG    1      -44.978  10.630 -41.365  0.00  0.00    -0.250 OA
BRANCH  14  16
ATOM     16  C   LIG    1      -47.269  11.239 -41.700  0.00  0.00    +0.111 C 
ATOM     17  C   LIG    1      -48.023  10.162 -40.936  0.00  0.00    -0.014 C 
ATOM     18  C   LIG    1      -49.182  10.626 -40.080  0.00  0.00    +0.012 C 
ATOM     19  C   LIG    1      -47.300   8.979 -40.339  0.00  0.00    +0.012 C 
ATOM     20  C   LIG    1      -48.206  10.296 -42.438  0.00  0.00    +0.032 C 
BRANCH  20  21
ATOM     21  C   LIG    1      -47.655   9.323 -43.396  0.00  0.00    -0.023 C 
ATOM     22  C   LIG    1      -47.597   9.452 -44.737  0.00  0.00    -0.079 C 
ATOM     23  C   LIG    1      -47.000   8.376 -45.601  0.00  0.00    +0.038 C 
ATOM     24  C   LIG    1      -48.114  10.647 -45.490  0.00  0.00    +0.038 C 
ENDBRANCH  20  21
ENDBRANCH  14  16
ENDBRANCH  13  14
ENDBRANCH   1  13
TORSDOF 5
ENDMDL
MODEL 8
REMARK VINA RESULT:      -7.2      2.503      5.745
REMARK  Name = 
REMARK                            x       y       z     vdW  Elec       q    Type
REMARK                         _______ _______ _______ _____ _____    ______ ____
ROOT
ATOM      1  C   LIG    1      -45.677   8.389 -44.747  0.00  0.00    +0.352 C 
ENDROOT
BRANCH   1   4
ATOM      2  O   LIG    1      -47.665   9.917 -46.207  0.00  0.00    -0.270 OA
ATOM      3  C   LIG    1      -47.848   8.775 -45.831  0.00  0.00    +0.252 C 
ATOM      4  N   LIG    1      -47.003   7.964 -45.140  0.00  0.00    -0.200 N 
ATOM      5  C   LIG    1      -47.584   6.759 -44.904  0.00  0.00    +0.252 C 
ATOM      6  O   LIG    1      -47.166   5.774 -44.324  0.00  0.00    -0.270 OA
ATOM      7  C   LIG    1      -48.921   6.816 -45.504  0.00  0.00    +0.023 C 
ATOM      8  C   LIG    1      -49.904   5.722 -45.488  0.00  0.00    +0.041 C 
ATOM      9  C   LIG    1      -51.195   6.033 -46.258  0.00  0.00    +0.005 C 
ATOM     10  C   LIG    1      -51.429   7.458 -46.797  0.00  0.00    +0.005 C 
ATOM     11  C   LIG    1      -50.277   8.476 -46.777  0.00  0.00    +0.041 C 
ATOM     12  C   LIG    1      -49.078   8.012 -46.059  0.00  0.00    +0.023 C 
ENDBRANCH   1   4
BRANCH   1  13
ATOM     13  O   LIG    1      -45.622   8.567 -43.342  0.00  0.00    -0.444 OA
BRANCH  13  14
ATOM     14  C   LIG    1      -45.301   9.810 -42.927  0.00  0.00    +0.313 C 
ATOM     15  O   LIG    1      -44.742  10.668 -43.597  0.00  0.00    -0.250 OA
BRANCH  14  16
ATOM     16  C   LIG    1      -45.783  10.014 -41.542  0.00  0.00    +0.111 C 
ATOM     17  C   LIG    1      -47.129   9.576 -40.987  0.00  0.00    -0.014 C 
ATOM     18  C   LIG    1      -47.156   9.157 -39.533  0.00  0.00    +0.012 C 
ATOM     19  C   LIG    1      -48.103   8.793 -41.833  0.00  0.00    +0.012 C 
ATOM     20  C   LIG    1      -46.860  11.047 -41.254  0.00  0.00    +0.032 C 
BRANCH  20  21
ATOM     21  C   LIG    1      -47.484  11.779 -42.368  0.00  0.00    -0.023 C 
ATOM     22  C   LIG    1      -48.714  12.332 -42.386  0.00  0.00    -0.079 C 
ATOM     23  C   LIG    1      -49.228  13.061 -43.597  0.00  0.00    +0.038 C 
ATOM     24  C   LIG    1      -49.678  12.275 -41.232  0.00  0.00    +0.038 C 
ENDBRANCH  20  21
ENDBRANCH  14  16
ENDBRANCH  13  14
ENDBRANCH   1  13
TORSDOF 5
ENDMDL
MODEL 9
REMARK VINA RESULT:      -7.2      3.554      6.477
REMARK  Name = 
REMARK                            x       y       z     vdW  Elec       q    Type
REMARK                         _______ _______ _______ _____ _____    ______ ____
ROOT
ATOM      1  C   LIG    1      -45.185  11.760 -42.894  0.00  0.00    +0.352 C 
ENDROOT
BRANCH   1   4
ATOM      2  O   LIG    1      -45.938   9.650 -41.051  0.00  0.00    -0.270 OA
ATOM      3  C   LIG    1      -45.758   9.462 -42.239  0.00  0.00    +0.252 C 
ATOM      4  N   LIG    1      -45.401  10.361 -43.194  0.00  0.00    -0.200 N 
ATOM      5  C   LIG    1      -45.295   9.754 -44.405  0.00  0.00    +0.252 C 
ATOM      6  O   LIG    1      -44.999  10.203 -45.497  0.00  0.00    -0.270 OA
ATOM      7  C   LIG    1      -45.617   8.340 -44.193  0.00  0.00    +0.023 C 
ATOM      8  C   LIG    1      -45.629   7.306 -45.240  0.00  0.00    +0.041 C 
ATOM      9  C   LIG    1      -46.074   5.924 -44.745  0.00  0.00    +0.005 C 
ATOM     10  C   LIG    1      -46.281   5.691 -43.236  0.00  0.00    +0.005 C 
ATOM     11  C   LIG    1      -46.280   6.891 -42.275  0.00  0.00    +0.041 C 
ATOM     12  C   LIG    1      -45.897   8.164 -42.906  0.00  0.00    +0.023 C 
ENDBRANCH   1   4
BRANCH   1  13
ATOM     13  O   LIG    1      -43.810  12.075 -43.019  0.00  0.00    -0.444 OA
BRANCH  13  14
ATOM     14  C   LIG    1      -43.521  13.087 -43.863  0.00  0.00    +0.313 C 
ATOM     15  O   LIG    1      -44.185  13.422 -44.835  0.00  0.00    -0.250 OA
BRANCH  14  16
ATOM     16  C   LIG    1      -42.298  13.786 -43.406  0.00  0.00    +0.111 C 
ATOM     17  C   LIG    1      -41.466  14.763 -44.219  0.00  0.00    -0.014 C 
ATOM     18  C   LIG    1      -40.809  15.892 -43.454  0.00  0.00    +0.012 C 
ATOM     19  C   LIG    1      -41.885  15.175 -45.609  0.00  0.00    +0.012 C 
ATOM     20  C   LIG    1      -40.937  13.368 -43.937  0.00  0.00    +0.032 C 
BRANCH  20  21
ATOM     21  C   LIG    1      -40.848  12.327 -44.974  0.00  0.00    -0.023 C 
ATOM     22  C   LIG    1      -39.898  12.211 -45.924  0.00  0.00    -0.079 C 
ATOM     23  C   LIG    1      -39.925  11.088 -46.925  0.00  0.00    +0.038 C 
ATOM     24  C   LIG    1      -38.747  13.166 -46.084  0.00  0.00    +0.038 C 
ENDBRANCH  20  21
ENDBRANCH  14  16
ENDBRANCH  13  14
ENDBRANCH   1  13
TORSDOF 5
ENDMDL
