MODEL 1
REMARK VINA RESULT:      -7.4      0.000      0.000
REMARK  Name = 
REMARK                            x       y       z     vdW  Elec       q    Type
REMARK                         _______ _______ _______ _____ _____    ______ ____
ROOT
ATOM      1  C   LIG    1       22.848 -28.258 -12.388  0.00  0.00    +0.352 C 
ENDROOT
BRANCH   1   4
ATOM      2  O   LIG    1       25.631 -28.198 -13.207  0.00  0.00    -0.270 OA
ATOM      3  C   LIG    1       25.041 -27.222 -12.784  0.00  0.00    +0.252 C 
ATOM      4  N   LIG    1       23.750 -27.127 -12.368  0.00  0.00    -0.200 N 
ATOM      5  C   LIG    1       23.472 -25.860 -11.960  0.00  0.00    +0.252 C 
ATOM      6  O   LIG    1       22.447 -25.372 -11.522  0.00  0.00    -0.270 OA
ATOM      7  C   LIG    1       24.704 -25.085 -12.139  0.00  0.00    +0.023 C 
ATOM      8  C   LIG    1       24.859 -23.656 -11.824  0.00  0.00    +0.041 C 
ATOM      9  C   LIG    1       26.239 -23.087 -12.180  0.00  0.00    +0.005 C 
ATOM     10  C   LIG    1       27.357 -24.043 -12.638  0.00  0.00    +0.005 C 
ATOM     11  C   LIG    1       27.017 -25.506 -12.967  0.00  0.00    +0.041 C 
ATOM     12  C   LIG    1       25.637 -25.891 -12.633  0.00  0.00    +0.023 C 
ENDBRANCH   1   4
BRANCH   1  13
ATOM     13  O   LIG    1       22.314 -28.474 -11.094  0.00  0.00    -0.444 OA
BRANCH  13  14
ATOM     14  C   LIG    1       23.130 -29.111 -10.229  0.00  0.00    +0.313 C 
ATOM     15  O   LIG    1       23.110 -29.002  -9.010  0.00  0.00    -0.250 OA
BRANCH  14  16
ATOM     16  C   LIG    1       24.030 -30.023 -10.970  0.00  0.00    +0.111 C 
ATOM     17  C   LIG    1       24.766 -31.222 -10.394  0.00  0.00    -0.014 C 
ATOM     18  C   LIG    1       24.963 -32.403 -11.321  0.00  0.00    +0.012 C 
ATOM     19  C   LIG    1       24.568 -31.641  -8.958  0.00  0.00    +0.012 C 
ATOM     20  C   LIG    1       25.533 -29.960 -10.747  0.00  0.00    +0.032 C 
BRANCH  20  21
ATOM     21  C   LIG    1       26.081 -29.051  -9.727  0.00  0.00    -0.023 C 
ATOM     22  C   LIG    1       27.326 -28.536  -9.688  0.00  0.00    -0.079 C 
ATOM     23  C   LIG    1       27.755 -27.610  -8.583  0.00  0.00    +0.038 C 
ATOM     24  C   LIG    1       28.390 -28.828 -10.711  0.00  0.00    +0.038 C 
ENDBRANCH  20  21
ENDBRANCH  14  16
ENDBRANCH  13  14
ENDBRANCH   1  13
TORSDOF 5
ENDMDL
MODEL 2
REMARK VINA RESULT:      -7.4      1.237      5.288
REMARK  Name = 
REMARK                            x       y       z     vdW  Elec       q    Type
REMARK                         _______ _______ _______ _____ _____    ______ ____
ROOT
ATOM      1  C   LIG    1       22.805 -26.519 -12.344  0.00  0.00    +0.352 C 
ENDROOT
BRANCH   1   4
ATOM      2  O   LIG    1       21.932 -28.001 -10.007  0.00  0.00    -0.270 OA
ATOM      3  C   LIG    1       22.759 -28.424 -10.792  0.00  0.00    +0.252 C 
ATOM      4  N   LIG    1       23.248 -27.827 -11.911  0.00  0.00    -0.200 N 
ATOM      5  C   LIG    1       24.166 -28.626 -12.517  0.00  0.00    +0.252 C 
ATOM      6  O   LIG    1       24.826 -28.458 -13.525  0.00  0.00    -0.270 OA
ATOM      7  C   LIG    1       24.261 -29.842 -11.703  0.00  0.00    +0.023 C 
ATOM      8  C   LIG    1       25.138 -30.988 -11.990  0.00  0.00    +0.041 C 
ATOM      9  C   LIG    1       24.978 -32.157 -11.008  0.00  0.00    +0.005 C 
ATOM     10  C   LIG    1       24.098 -31.977  -9.756  0.00  0.00    +0.005 C 
ATOM     11  C   LIG    1       23.204 -30.733  -9.628  0.00  0.00    +0.041 C 
ATOM     12  C   LIG    1       23.422 -29.727 -10.680  0.00  0.00    +0.023 C 
ENDBRANCH   1   4
BRANCH   1  13
ATOM     13  O   LIG    1       23.894 -25.613 -12.337  0.00  0.00    -0.444 OA
BRANCH  13  14
ATOM     14  C   LIG    1       24.322 -25.230 -11.116  0.00  0.00    +0.313 C 
ATOM     15  O   LIG    1       23.673 -25.282 -10.080  0.00  0.00    -0.250 OA
BRANCH  14  16
ATOM     16  C   LIG    1       25.732 -24.787 -11.198  0.00  0.00    +0.111 C 
ATOM     17  C   LIG    1       26.752 -25.225 -12.237  0.00  0.00    -0.014 C 
ATOM     18  C   LIG    1       27.781 -24.194 -12.650  0.00  0.00    +0.012 C 
ATOM     19  C   LIG    1       26.364 -26.141 -13.371  0.00  0.00    +0.012 C 
ATOM     20  C   LIG    1       26.853 -25.737 -10.811  0.00  0.00    +0.032 C 
BRANCH  20  21
ATOM     21  C   LIG    1       26.537 -27.126 -10.441  0.00  0.00    -0.023 C 
ATOM     22  C   LIG    1       27.094 -27.846  -9.446  0.00  0.00    -0.079 C 
ATOM     23  C   LIG    1       26.670 -29.263  -9.173  0.00  0.00    +0.038 C 
ATOM     24  C   LIG    1       28.171 -27.326  -8.534  0.00  0.00    +0.038 C 
ENDBRANCH  20  21
ENDBRANCH  14  16
ENDBRANCH  13  14
ENDBRANCH   1  13
TORSDOF 5
ENDMDL
MODEL 3
REMARK VINA RESULT:      -7.4      1.243      5.037
REMARK  Name = 
REMARK                            x       y       z     vdW  Elec       q    Type
REMARK                         _______ _______ _______ _____ _____    ______ ____
ROOT
ATOM      1  C   LIG    1       22.774 -26.587 -12.366  0.00  0.00    +0.352 C 
ENDROOT
BRANCH   1   4
ATOM      2  O   LIG    1       24.678 -28.437 -13.538  0.00  0.00    -0.270 OA
ATOM      3  C   LIG    1       24.084 -28.662 -12.500  0.00  0.00    +0.252 C 
ATOM      4  N   LIG    1       23.173 -27.883 -11.860  0.00  0.00    -0.200 N 
ATOM      5  C   LIG    1       22.734 -28.494 -10.728  0.00  0.00    +0.252 C 
ATOM      6  O   LIG    1       21.927 -28.134  -9.891  0.00  0.00    -0.270 OA
ATOM      7  C   LIG    1       23.437 -29.778 -10.648  0.00  0.00    +0.023 C 
ATOM      8  C   LIG    1       23.268 -30.772  -9.576  0.00  0.00    +0.041 C 
ATOM      9  C   LIG    1       24.187 -31.994  -9.710  0.00  0.00    +0.005 C 
ATOM     10  C   LIG    1       25.032 -32.169 -10.986  0.00  0.00    +0.005 C 
ATOM     11  C   LIG    1       25.136 -31.011 -11.993  0.00  0.00    +0.041 C 
ATOM     12  C   LIG    1       24.243 -29.878 -11.698  0.00  0.00    +0.023 C 
ENDBRANCH   1   4
BRANCH   1  13
ATOM     13  O   LIG    1       23.880 -25.702 -12.357  0.00  0.00    -0.444 OA
BRANCH  13  14
ATOM     14  C   LIG    1       24.286 -25.295 -11.137  0.00  0.00    +0.313 C 
ATOM     15  O   LIG    1       23.625 -25.339 -10.108  0.00  0.00    -0.250 OA
BRANCH  14  16
ATOM     16  C   LIG    1       25.691 -24.833 -11.207  0.00  0.00    +0.111 C 
ATOM     17  C   LIG    1       26.727 -25.265 -12.232  0.00  0.00    -0.014 C 
ATOM     18  C   LIG    1       27.747 -24.224 -12.642  0.00  0.00    +0.012 C 
ATOM     19  C   LIG    1       26.363 -26.195 -13.363  0.00  0.00    +0.012 C 
ATOM     20  C   LIG    1       26.821 -25.766 -10.801  0.00  0.00    +0.032 C 
BRANCH  20  21
ATOM     21  C   LIG    1       26.519 -27.156 -10.424  0.00  0.00    -0.023 C 
ATOM     22  C   LIG    1       27.093 -27.870  -9.435  0.00  0.00    -0.079 C 
ATOM     23  C   LIG    1       26.683 -29.289  -9.153  0.00  0.00    +0.038 C 
ATOM     24  C   LIG    1       28.178 -27.340  -8.537  0.00  0.00    +0.038 C 
ENDBRANCH  20  21
ENDBRANCH  14  16
ENDBRANCH  13  14
ENDBRANCH   1  13
TORSDOF 5
ENDMDL
MODEL 4
REMARK VINA RESULT:      -6.9      1.617      2.084
REMARK  Name = 
REMARK                            x       y       z     vdW  Elec       q    Type
REMARK                         _______ _______ _______ _____ _____    ______ ____
ROOT
ATOM      1  C   LIG    1       22.938 -27.171 -10.102  0.00  0.00    +0.352 C 
ENDROOT
BRANCH   1   4
ATOM      2  O   LIG    1       25.837 -27.089 -10.170  0.00  0.00    -0.270 OA
ATOM      3  C   LIG    1       25.135 -26.294 -10.765  0.00  0.00    +0.252 C 
ATOM      4  N   LIG    1       23.778 -26.227 -10.807  0.00  0.00    -0.200 N 
ATOM      5  C   LIG    1       23.375 -25.186 -11.582  0.00  0.00    +0.252 C 
ATOM      6  O   LIG    1       22.260 -24.792 -11.867  0.00  0.00    -0.270 OA
ATOM      7  C   LIG    1       24.594 -24.538 -12.077  0.00  0.00    +0.023 C 
ATOM      8  C   LIG    1       24.630 -23.362 -12.960  0.00  0.00    +0.041 C 
ATOM      9  C   LIG    1       26.045 -22.941 -13.379  0.00  0.00    +0.005 C 
ATOM     10  C   LIG    1       27.262 -23.627 -12.728  0.00  0.00    +0.005 C 
ATOM     11  C   LIG    1       27.054 -24.878 -11.860  0.00  0.00    +0.041 C 
ATOM     12  C   LIG    1       25.641 -25.198 -11.596  0.00  0.00    +0.023 C 
ENDBRANCH   1   4
BRANCH   1  13
ATOM     13  O   LIG    1       22.125 -27.878 -11.023  0.00  0.00    -0.444 OA
BRANCH  13  14
ATOM     14  C   LIG    1       22.790 -28.557 -11.980  0.00  0.00    +0.313 C 
ATOM     15  O   LIG    1       23.320 -28.068 -12.969  0.00  0.00    -0.250 OA
BRANCH  14  16
ATOM     16  C   LIG    1       22.843 -29.994 -11.629  0.00  0.00    +0.111 C 
ATOM     17  C   LIG    1       23.357 -30.580 -10.324  0.00  0.00    -0.014 C 
ATOM     18  C   LIG    1       22.670 -31.836  -9.830  0.00  0.00    +0.012 C 
ATOM     19  C   LIG    1       23.813 -29.689  -9.195  0.00  0.00    +0.012 C 
ATOM     20  C   LIG    1       24.177 -30.722 -11.594  0.00  0.00    +0.032 C 
BRANCH  20  21
ATOM     21  C   LIG    1       25.422 -29.973 -11.825  0.00  0.00    -0.023 C 
ATOM     22  C   LIG    1       26.609 -30.169 -11.214  0.00  0.00    -0.079 C 
ATOM     23  C   LIG    1       27.810 -29.328 -11.551  0.00  0.00    +0.038 C 
ATOM     24  C   LIG    1       26.849 -31.213 -10.159  0.00  0.00    +0.038 C 
ENDBRANCH  20  21
ENDBRANCH  14  16
ENDBRANCH  13  14
ENDBRANCH   1  13
TORSDOF 5
ENDMDL
MODEL 5
REMARK VINA RESULT:      -6.9      1.597      2.564
REMARK  Name = 
REMARK                            x       y       z     vdW  Elec       q    Type
REMARK                         _______ _______ _______ _____ _____    ______ ____
ROOT
ATOM      1  C   LIG    1       22.775 -27.239 -10.212  0.00  0.00    +0.352 C 
ENDROOT
BRANCH   1   4
ATOM      2  O   LIG    1       22.137 -24.957 -11.886  0.00  0.00    -0.270 OA
ATOM      3  C   LIG    1       23.275 -25.265 -11.588  0.00  0.00    +0.252 C 
ATOM      4  N   LIG    1       23.698 -26.306 -10.822  0.00  0.00    -0.200 N 
ATOM      5  C   LIG    1       25.054 -26.311 -10.731  0.00  0.00    +0.252 C 
ATOM      6  O   LIG    1       25.809 -27.067 -10.149  0.00  0.00    -0.270 OA
ATOM      7  C   LIG    1       25.529 -25.166 -11.513  0.00  0.00    +0.023 C 
ATOM      8  C   LIG    1       26.940 -24.786 -11.690  0.00  0.00    +0.041 C 
ATOM      9  C   LIG    1       27.141 -23.498 -12.499  0.00  0.00    +0.005 C 
ATOM     10  C   LIG    1       25.930 -22.840 -13.187  0.00  0.00    +0.005 C 
ATOM     11  C   LIG    1       24.511 -23.332 -12.860  0.00  0.00    +0.041 C 
ATOM     12  C   LIG    1       24.473 -24.540 -12.020  0.00  0.00    +0.023 C 
ENDBRANCH   1   4
BRANCH   1  13
ATOM     13  O   LIG    1       22.091 -27.969 -11.214  0.00  0.00    -0.444 OA
BRANCH  13  14
ATOM     14  C   LIG    1       22.877 -28.639 -12.082  0.00  0.00    +0.313 C 
ATOM     15  O   LIG    1       23.489 -28.149 -13.021  0.00  0.00    -0.250 OA
BRANCH  14  16
ATOM     16  C   LIG    1       22.945 -30.066 -11.695  0.00  0.00    +0.111 C 
ATOM     17  C   LIG    1       23.426 -30.612 -10.361  0.00  0.00    -0.014 C 
ATOM     18  C   LIG    1       22.747 -31.869  -9.860  0.00  0.00    +0.012 C 
ATOM     19  C   LIG    1       23.827 -29.686  -9.239  0.00  0.00    +0.012 C 
ATOM     20  C   LIG    1       24.290 -30.768 -11.600  0.00  0.00    +0.032 C 
BRANCH  20  21
ATOM     21  C   LIG    1       25.529 -30.000 -11.807  0.00  0.00    -0.023 C 
ATOM     22  C   LIG    1       26.699 -30.163 -11.158  0.00  0.00    -0.079 C 
ATOM     23  C   LIG    1       27.895 -29.306 -11.474  0.00  0.00    +0.038 C 
ATOM     24  C   LIG    1       26.927 -31.183 -10.077  0.00  0.00    +0.038 C 
ENDBRANCH  20  21
ENDBRANCH  14  16
ENDBRANCH  13  14
ENDBRANCH   1  13
TORSDOF 5
ENDMDL
MODEL 6
REMARK VINA RESULT:      -6.5      1.493      5.522
REMARK  Name = 
REMARK                            x       y       z     vdW  Elec       q    Type
REMARK                         _______ _______ _______ _____ _____    ______ ____
ROOT
ATOM      1  C   LIG    1       22.008 -27.165 -11.702  0.00  0.00    +0.352 C 
ENDROOT
BRANCH   1   4
ATOM      2  O   LIG    1       22.916 -27.909  -9.048  0.00  0.00    -0.270 OA
ATOM      3  C   LIG    1       23.275 -28.482 -10.059  0.00  0.00    +0.252 C 
ATOM      4  N   LIG    1       22.926 -28.225 -11.348  0.00  0.00    -0.200 N 
ATOM      5  C   LIG    1       23.550 -29.089 -12.192  0.00  0.00    +0.252 C 
ATOM      6  O   LIG    1       23.506 -29.187 -13.405  0.00  0.00    -0.270 OA
ATOM      7  C   LIG    1       24.366 -29.974 -11.356  0.00  0.00    +0.023 C 
ATOM      8  C   LIG    1       25.213 -31.069 -11.854  0.00  0.00    +0.041 C 
ATOM      9  C   LIG    1       25.900 -31.879 -10.747  0.00  0.00    +0.005 C 
ATOM     10  C   LIG    1       25.807 -31.395  -9.287  0.00  0.00    +0.005 C 
ATOM     11  C   LIG    1       24.836 -30.259  -8.924  0.00  0.00    +0.041 C 
ATOM     12  C   LIG    1       24.201 -29.618 -10.087  0.00  0.00    +0.023 C 
ENDBRANCH   1   4
BRANCH   1  13
ATOM     13  O   LIG    1       22.685 -26.164 -12.441  0.00  0.00    -0.444 OA
BRANCH  13  14
ATOM     14  C   LIG    1       23.731 -25.588 -11.813  0.00  0.00    +0.313 C 
ATOM     15  O   LIG    1       23.661 -24.748 -10.926  0.00  0.00    -0.250 OA
BRANCH  14  16
ATOM     16  C   LIG    1       24.997 -26.168 -12.316  0.00  0.00    +0.111 C 
ATOM     17  C   LIG    1       26.255 -26.419 -11.501  0.00  0.00    -0.014 C 
ATOM     18  C   LIG    1       27.081 -27.628 -11.889  0.00  0.00    +0.012 C 
ATOM     19  C   LIG    1       26.289 -26.148 -10.017  0.00  0.00    +0.012 C 
ATOM     20  C   LIG    1       26.218 -25.284 -12.508  0.00  0.00    +0.032 C 
BRANCH  20  21
ATOM     21  C   LIG    1       26.163 -23.868 -12.109  0.00  0.00    -0.023 C 
ATOM     22  C   LIG    1       25.735 -22.832 -12.857  0.00  0.00    -0.079 C 
ATOM     23  C   LIG    1       25.729 -21.427 -12.319  0.00  0.00    +0.038 C 
ATOM     24  C   LIG    1       25.240 -22.964 -14.271  0.00  0.00    +0.038 C 
ENDBRANCH  20  21
ENDBRANCH  14  16
ENDBRANCH  13  14
ENDBRANCH   1  13
TORSDOF 5
ENDMDL
MODEL 7
REMARK VINA RESULT:      -6.4      1.869      3.807
REMARK  Name = 
REMARK                            x       y       z     vdW  Elec       q    Type
REMARK                         _______ _______ _______ _____ _____    ______ ____
ROOT
ATOM      1  C   LIG    1       26.487 -27.324  -9.515  0.00  0.00    +0.352 C 
ENDROOT
BRANCH   1   4
ATOM      2  O   LIG    1       24.266 -25.462  -9.670  0.00  0.00    -0.270 OA
ATOM      3  C   LIG    1       25.166 -25.494 -10.488  0.00  0.00    +0.252 C 
ATOM      4  N   LIG    1       26.249 -26.316 -10.525  0.00  0.00    -0.200 N 
ATOM      5  C   LIG    1       27.022 -26.037 -11.608  0.00  0.00    +0.252 C 
ATOM      6  O   LIG    1       28.060 -26.541 -11.995  0.00  0.00    -0.270 OA
ATOM      7  C   LIG    1       26.365 -24.935 -12.318  0.00  0.00    +0.023 C 
ATOM      8  C   LIG    1       26.859 -24.308 -13.553  0.00  0.00    +0.041 C 
ATOM      9  C   LIG    1       26.008 -23.126 -14.036  0.00  0.00    +0.005 C 
ATOM     10  C   LIG    1       24.669 -22.822 -13.335  0.00  0.00    +0.005 C 
ATOM     11  C   LIG    1       24.320 -23.541 -12.022  0.00  0.00    +0.041 C 
ATOM     12  C   LIG    1       25.264 -24.607 -11.651  0.00  0.00    +0.023 C 
ENDBRANCH   1   4
BRANCH   1  13
ATOM     13  O   LIG    1       27.406 -28.287  -9.999  0.00  0.00    -0.444 OA
BRANCH  13  14
ATOM     14  C   LIG    1       26.859 -29.337 -10.645  0.00  0.00    +0.313 C 
ATOM     15  O   LIG    1       27.213 -29.776 -11.731  0.00  0.00    -0.250 OA
BRANCH  14  16
ATOM     16  C   LIG    1       25.790 -29.934  -9.812  0.00  0.00    +0.111 C 
ATOM     17  C   LIG    1       24.881 -31.086 -10.209  0.00  0.00    -0.014 C 
ATOM     18  C   LIG    1       24.452 -32.022  -9.098  0.00  0.00    +0.012 C 
ATOM     19  C   LIG    1       25.055 -31.797 -11.528  0.00  0.00    +0.012 C 
ATOM     20  C   LIG    1       24.330 -29.673 -10.143  0.00  0.00    +0.032 C 
BRANCH  20  21
ATOM     21  C   LIG    1       23.982 -28.899 -11.345  0.00  0.00    -0.023 C 
ATOM     22  C   LIG    1       22.923 -28.079 -11.502  0.00  0.00    -0.079 C 
ATOM     23  C   LIG    1       22.688 -27.341 -12.791  0.00  0.00    +0.038 C 
ATOM     24  C   LIG    1       21.890 -27.827 -10.438  0.00  0.00    +0.038 C 
ENDBRANCH  20  21
ENDBRANCH  14  16
ENDBRANCH  13  14
ENDBRANCH   1  13
TORSDOF 5
ENDMDL
MODEL 8
REMARK VINA RESULT:      -6.1      1.940      3.322
REMARK  Name = 
REMARK                            x       y       z     vdW  Elec       q    Type
REMARK                         _______ _______ _______ _____ _____    ______ ____
ROOT
ATOM      1  C   LIG    1       26.433 -27.515  -9.340  0.00  0.00    +0.352 C 
ENDROOT
BRANCH   1   4
ATOM      2  O   LIG    1       28.088 -26.793 -11.611  0.00  0.00    -0.270 OA
ATOM      3  C   LIG    1       27.036 -26.240 -11.352  0.00  0.00    +0.252 C 
ATOM      4  N   LIG    1       26.182 -26.483 -10.323  0.00  0.00    -0.200 N 
ATOM      5  C   LIG    1       25.116 -25.643 -10.379  0.00  0.00    +0.252 C 
ATOM      6  O   LIG    1       24.145 -25.539  -9.652  0.00  0.00    -0.270 OA
ATOM      7  C   LIG    1       25.317 -24.791 -11.556  0.00  0.00    +0.023 C 
ATOM      8  C   LIG    1       24.399 -23.732 -12.003  0.00  0.00    +0.041 C 
ATOM      9  C   LIG    1       24.825 -23.049 -13.309  0.00  0.00    +0.005 C 
ATOM     10  C   LIG    1       26.202 -23.375 -13.919  0.00  0.00    +0.005 C 
ATOM     11  C   LIG    1       27.023 -24.548 -13.357  0.00  0.00    +0.041 C 
ATOM     12  C   LIG    1       26.456 -25.147 -12.139  0.00  0.00    +0.023 C 
ENDBRANCH   1   4
BRANCH   1  13
ATOM     13  O   LIG    1       26.585 -28.769  -9.983  0.00  0.00    -0.444 OA
BRANCH  13  14
ATOM     14  C   LIG    1       26.033 -29.820  -9.342  0.00  0.00    +0.313 C 
ATOM     15  O   LIG    1       25.936 -29.950  -8.129  0.00  0.00    -0.250 OA
BRANCH  14  16
ATOM     16  C   LIG    1       25.498 -30.783 -10.331  0.00  0.00    +0.111 C 
ATOM     17  C   LIG    1       25.233 -30.505 -11.801  0.00  0.00    -0.014 C 
ATOM     18  C   LIG    1       25.448 -31.659 -12.757  0.00  0.00    +0.012 C 
ATOM     19  C   LIG    1       25.581 -29.172 -12.417  0.00  0.00    +0.012 C 
ATOM     20  C   LIG    1       24.070 -30.645 -10.834  0.00  0.00    +0.032 C 
BRANCH  20  21
ATOM     21  C   LIG    1       23.253 -29.499 -10.403  0.00  0.00    -0.023 C 
ATOM     22  C   LIG    1       22.326 -28.847 -11.132  0.00  0.00    -0.079 C 
ATOM     23  C   LIG    1       21.555 -27.688 -10.562  0.00  0.00    +0.038 C 
ATOM     24  C   LIG    1       21.978 -29.193 -12.554  0.00  0.00    +0.038 C 
ENDBRANCH  20  21
ENDBRANCH  14  16
ENDBRANCH  13  14
ENDBRANCH   1  13
TORSDOF 5
ENDMDL
MODEL 9
REMARK VINA RESULT:      -5.8      1.942      3.070
REMARK  Name = 
REMARK                            x       y       z     vdW  Elec       q    Type
REMARK                         _______ _______ _______ _____ _____    ______ ____
ROOT
ATOM      1  C   LIG    1       23.235 -26.449  -9.434  0.00  0.00    +0.352 C 
ENDROOT
BRANCH   1   4
ATOM      2  O   LIG    1       22.548 -24.467 -11.439  0.00  0.00    -0.270 OA
ATOM      3  C   LIG    1       23.680 -24.882 -11.274  0.00  0.00    +0.252 C 
ATOM      4  N   LIG    1       24.122 -25.805 -10.379  0.00  0.00    -0.200 N 
ATOM      5  C   LIG    1       25.459 -26.000 -10.516  0.00  0.00    +0.252 C 
ATOM      6  O   LIG    1       26.222 -26.734  -9.915  0.00  0.00    -0.270 OA
ATOM      7  C   LIG    1       25.902 -25.115 -11.598  0.00  0.00    +0.023 C 
ATOM      8  C   LIG    1       27.285 -24.998 -12.086  0.00  0.00    +0.041 C 
ATOM      9  C   LIG    1       27.472 -23.939 -13.180  0.00  0.00    +0.005 C 
ATOM     10  C   LIG    1       26.233 -23.250 -13.786  0.00  0.00    +0.005 C 
ATOM     11  C   LIG    1       24.858 -23.446 -13.127  0.00  0.00    +0.041 C 
ATOM     12  C   LIG    1       24.846 -24.446 -12.047  0.00  0.00    +0.023 C 
ENDBRANCH   1   4
BRANCH   1  13
ATOM     13  O   LIG    1       22.703 -27.634  -9.999  0.00  0.00    -0.444 OA
BRANCH  13  14
ATOM     14  C   LIG    1       23.233 -28.785  -9.537  0.00  0.00    +0.313 C 
ATOM     15  O   LIG    1       24.056 -28.886  -8.637  0.00  0.00    -0.250 OA
BRANCH  14  16
ATOM     16  C   LIG    1       22.625 -29.934 -10.245  0.00  0.00    +0.111 C 
ATOM     17  C   LIG    1       23.264 -31.297 -10.459  0.00  0.00    -0.014 C 
ATOM     18  C   LIG    1       22.330 -32.488 -10.465  0.00  0.00    +0.012 C 
ATOM     19  C   LIG    1       24.615 -31.624  -9.872  0.00  0.00    +0.012 C 
ATOM     20  C   LIG    1       23.126 -30.333 -11.624  0.00  0.00    +0.032 C 
BRANCH  20  21
ATOM     21  C   LIG    1       24.275 -29.628 -12.214  0.00  0.00    -0.023 C 
ATOM     22  C   LIG    1       24.244 -28.486 -12.930  0.00  0.00    -0.079 C 
ATOM     23  C   LIG    1       25.504 -27.868 -13.474  0.00  0.00    +0.038 C 
ATOM     24  C   LIG    1       22.984 -27.734 -13.260  0.00  0.00    +0.038 C 
ENDBRANCH  20  21
ENDBRANCH  14  16
ENDBRANCH  13  14
ENDBRANCH   1  13
TORSDOF 5
ENDMDL
