MODEL 1
REMARK VINA RESULT:      -8.0      0.000      0.000
REMARK  Name = 
REMARK                            x       y       z     vdW  Elec       q    Type
REMARK                         _______ _______ _______ _____ _____    ______ ____
ROOT
ATOM      1  C   LIG    1       19.683  47.455  16.053  0.00  0.00    +0.352 C 
ENDROOT
BRANCH   1   4
ATOM      2  O   LIG    1       21.462  46.628  13.915  0.00  0.00    -0.270 OA
ATOM      3  C   LIG    1       21.217  47.793  14.164  0.00  0.00    +0.252 C 
ATOM      4  N   LIG    1       20.412  48.301  15.134  0.00  0.00    -0.200 N 
ATOM      5  C   LIG    1       20.408  49.660  15.087  0.00  0.00    +0.252 C 
ATOM      6  O   LIG    1       19.826  50.478  15.775  0.00  0.00    -0.270 OA
ATOM      7  C   LIG    1       21.293  50.042  13.983  0.00  0.00    +0.023 C 
ATOM      8  C   LIG    1       21.585  51.423  13.569  0.00  0.00    +0.041 C 
ATOM      9  C   LIG    1       22.489  51.526  12.333  0.00  0.00    +0.005 C 
ATOM     10  C   LIG    1       23.141  50.250  11.765  0.00  0.00    +0.005 C 
ATOM     11  C   LIG    1       22.692  48.874  12.282  0.00  0.00    +0.041 C 
ATOM     12  C   LIG    1       21.772  48.934  13.429  0.00  0.00    +0.023 C 
ENDBRANCH   1   4
BRANCH   1  13
ATOM     13  O   LIG    1       19.984  47.818  17.389  0.00  0.00    -0.444 OA
BRANCH  13  14
ATOM     14  C   LIG    1       18.951  47.754  18.254  0.00  0.00    +0.313 C 
ATOM     15  O   LIG    1       18.750  46.860  19.065  0.00  0.00    -0.250 OA
BRANCH  14  16
ATOM     16  C   LIG    1       18.115  48.969  18.125  0.00  0.00    +0.111 C 
ATOM     17  C   LIG    1       16.768  49.205  18.788  0.00  0.00    -0.014 C 
ATOM     18  C   LIG    1       16.453  50.630  19.191  0.00  0.00    +0.012 C 
ATOM     19  C   LIG    1       16.179  48.192  19.739  0.00  0.00    +0.012 C 
ATOM     20  C   LIG    1       16.841  48.933  17.296  0.00  0.00    +0.032 C 
BRANCH  20  21
ATOM     21  C   LIG    1       16.397  47.664  16.696  0.00  0.00    -0.023 C 
ATOM     22  C   LIG    1       16.292  47.383  15.382  0.00  0.00    -0.079 C 
ATOM     23  C   LIG    1       15.826  46.035  14.904  0.00  0.00    +0.038 C 
ATOM     24  C   LIG    1       16.614  48.361  14.285  0.00  0.00    +0.038 C 
ENDBRANCH  20  21
ENDBRANCH  14  16
ENDBRANCH  13  14
ENDBRANCH   1  13
TORSDOF 5
ENDMDL
MODEL 2
REMARK VINA RESULT:      -7.9      0.144      1.818
REMARK  Name = 
REMARK                            x       y       z     vdW  Elec       q    Type
REMARK                         _______ _______ _______ _____ _____    ______ ____
ROOT
ATOM      1  C   LIG    1       19.676  47.466  16.064  0.00  0.00    +0.352 C 
ENDROOT
BRANCH   1   4
ATOM      2  O   LIG    1       19.794  50.358  15.860  0.00  0.00    -0.270 OA
ATOM      3  C   LIG    1       20.394  49.613  15.109  0.00  0.00    +0.252 C 
ATOM      4  N   LIG    1       20.414  48.254  15.100  0.00  0.00    -0.200 N 
ATOM      5  C   LIG    1       21.204  47.795  14.094  0.00  0.00    +0.252 C 
ATOM      6  O   LIG    1       21.479  46.659  13.753  0.00  0.00    -0.270 OA
ATOM      7  C   LIG    1       21.732  48.977  13.406  0.00  0.00    +0.023 C 
ATOM      8  C   LIG    1       22.639  48.949  12.248  0.00  0.00    +0.041 C 
ATOM      9  C   LIG    1       23.090  50.338  11.776  0.00  0.00    +0.005 C 
ATOM     10  C   LIG    1       22.446  51.593  12.396  0.00  0.00    +0.005 C 
ATOM     11  C   LIG    1       21.549  51.452  13.636  0.00  0.00    +0.041 C 
ATOM     12  C   LIG    1       21.255  50.059  14.010  0.00  0.00    +0.023 C 
ENDBRANCH   1   4
BRANCH   1  13
ATOM     13  O   LIG    1       20.073  47.813  17.379  0.00  0.00    -0.444 OA
BRANCH  13  14
ATOM     14  C   LIG    1       19.093  47.794  18.305  0.00  0.00    +0.313 C 
ATOM     15  O   LIG    1       18.941  46.944  19.172  0.00  0.00    -0.250 OA
BRANCH  14  16
ATOM     16  C   LIG    1       18.246  49.000  18.160  0.00  0.00    +0.111 C 
ATOM     17  C   LIG    1       16.921  49.254  18.860  0.00  0.00    -0.014 C 
ATOM     18  C   LIG    1       16.613  50.692  19.221  0.00  0.00    +0.012 C 
ATOM     19  C   LIG    1       16.370  48.274  19.867  0.00  0.00    +0.012 C 
ATOM     20  C   LIG    1       16.945  48.928  17.377  0.00  0.00    +0.032 C 
BRANCH  20  21
ATOM     21  C   LIG    1       16.488  47.637  16.839  0.00  0.00    -0.023 C 
ATOM     22  C   LIG    1       16.337  47.309  15.540  0.00  0.00    -0.079 C 
ATOM     23  C   LIG    1       15.862  45.942  15.128  0.00  0.00    +0.038 C 
ATOM     24  C   LIG    1       16.613  48.248  14.398  0.00  0.00    +0.038 C 
ENDBRANCH  20  21
ENDBRANCH  14  16
ENDBRANCH  13  14
ENDBRANCH   1  13
TORSDOF 5
ENDMDL
MODEL 3
REMARK VINA RESULT:      -7.7      1.573      2.884
REMARK  Name = 
REMARK                            x       y       z     vdW  Elec       q    Type
REMARK                         _______ _______ _______ _____ _____    ______ ____
ROOT
ATOM      1  C   LIG    1       19.266  46.975  14.693  0.00  0.00    +0.352 C 
ENDROOT
BRANCH   1   4
ATOM      2  O   LIG    1       21.689  46.668  13.126  0.00  0.00    -0.270 OA
ATOM      3  C   LIG    1       21.250  47.750  13.468  0.00  0.00    +0.252 C 
ATOM      4  N   LIG    1       20.137  48.020  14.200  0.00  0.00    -0.200 N 
ATOM      5  C   LIG    1       19.993  49.360  14.373  0.00  0.00    +0.252 C 
ATOM      6  O   LIG    1       19.141  49.999  14.963  0.00  0.00    -0.270 OA
ATOM      7  C   LIG    1       21.121  49.993  13.683  0.00  0.00    +0.023 C 
ATOM      8  C   LIG    1       21.364  51.443  13.610  0.00  0.00    +0.041 C 
ATOM      9  C   LIG    1       22.581  51.827  12.758  0.00  0.00    +0.005 C 
ATOM     10  C   LIG    1       23.515  50.721  12.230  0.00  0.00    +0.005 C 
ATOM     11  C   LIG    1       23.091  49.248  12.350  0.00  0.00    +0.041 C 
ATOM     12  C   LIG    1       21.867  49.039  13.140  0.00  0.00    +0.023 C 
ENDBRANCH   1   4
BRANCH   1  13
ATOM     13  O   LIG    1       17.913  47.383  14.590  0.00  0.00    -0.444 OA
BRANCH  13  14
ATOM     14  C   LIG    1       17.174  47.228  15.707  0.00  0.00    +0.313 C 
ATOM     15  O   LIG    1       15.951  47.219  15.763  0.00  0.00    -0.250 OA
BRANCH  14  16
ATOM     16  C   LIG    1       18.064  47.005  16.869  0.00  0.00    +0.111 C 
ATOM     17  C   LIG    1       17.627  46.835  18.315  0.00  0.00    -0.014 C 
ATOM     18  C   LIG    1       18.461  45.904  19.168  0.00  0.00    +0.012 C 
ATOM     19  C   LIG    1       16.165  46.807  18.688  0.00  0.00    +0.012 C 
ATOM     20  C   LIG    1       18.302  48.121  17.873  0.00  0.00    +0.032 C 
BRANCH  20  21
ATOM     21  C   LIG    1       17.574  49.393  17.734  0.00  0.00    -0.023 C 
ATOM     22  C   LIG    1       17.167  50.206  18.730  0.00  0.00    -0.079 C 
ATOM     23  C   LIG    1       16.432  51.487  18.445  0.00  0.00    +0.038 C 
ATOM     24  C   LIG    1       17.391  49.923  20.190  0.00  0.00    +0.038 C 
ENDBRANCH  20  21
ENDBRANCH  14  16
ENDBRANCH  13  14
ENDBRANCH   1  13
TORSDOF 5
ENDMDL
MODEL 4
REMARK VINA RESULT:      -7.4      1.571      3.437
REMARK  Name = 
REMARK                            x       y       z     vdW  Elec       q    Type
REMARK                         _______ _______ _______ _____ _____    ______ ____
ROOT
ATOM      1  C   LIG    1       19.318  47.543  15.490  0.00  0.00    +0.352 C 
ENDROOT
BRANCH   1   4
ATOM      2  O   LIG    1       21.373  46.732  13.608  0.00  0.00    -0.270 OA
ATOM      3  C   LIG    1       21.131  47.895  13.868  0.00  0.00    +0.252 C 
ATOM      4  N   LIG    1       20.204  48.396  14.728  0.00  0.00    -0.200 N 
ATOM      5  C   LIG    1       20.251  49.754  14.741  0.00  0.00    +0.252 C 
ATOM      6  O   LIG    1       19.598  50.567  15.369  0.00  0.00    -0.270 OA
ATOM      7  C   LIG    1       21.304  50.145  13.798  0.00  0.00    +0.023 C 
ATOM      8  C   LIG    1       21.699  51.529  13.493  0.00  0.00    +0.041 C 
ATOM      9  C   LIG    1       22.782  51.644  12.413  0.00  0.00    +0.005 C 
ATOM     10  C   LIG    1       23.472  50.368  11.894  0.00  0.00    +0.005 C 
ATOM     11  C   LIG    1       22.906  48.990  12.277  0.00  0.00    +0.041 C 
ATOM     12  C   LIG    1       21.826  49.041  13.275  0.00  0.00    +0.023 C 
ENDBRANCH   1   4
BRANCH   1  13
ATOM     13  O   LIG    1       18.064  48.178  15.662  0.00  0.00    -0.444 OA
BRANCH  13  14
ATOM     14  C   LIG    1       17.152  47.933  14.699  0.00  0.00    +0.313 C 
ATOM     15  O   LIG    1       16.644  48.767  13.962  0.00  0.00    -0.250 OA
BRANCH  14  16
ATOM     16  C   LIG    1       16.893  46.477  14.616  0.00  0.00    +0.111 C 
ATOM     17  C   LIG    1       15.544  45.818  14.378  0.00  0.00    -0.014 C 
ATOM     18  C   LIG    1       15.553  44.527  13.587  0.00  0.00    +0.012 C 
ATOM     19  C   LIG    1       14.308  46.645  14.122  0.00  0.00    +0.012 C 
ATOM     20  C   LIG    1       16.183  45.763  15.754  0.00  0.00    +0.032 C 
BRANCH  20  21
ATOM     21  C   LIG    1       15.675  46.539  16.897  0.00  0.00    -0.023 C 
ATOM     22  C   LIG    1       16.303  46.755  18.072  0.00  0.00    -0.079 C 
ATOM     23  C   LIG    1       15.666  47.576  19.159  0.00  0.00    +0.038 C 
ATOM     24  C   LIG    1       17.662  46.208  18.412  0.00  0.00    +0.038 C 
ENDBRANCH  20  21
ENDBRANCH  14  16
ENDBRANCH  13  14
ENDBRANCH   1  13
TORSDOF 5
ENDMDL
MODEL 5
REMARK VINA RESULT:      -7.3      1.544      3.870
REMARK  Name = 
REMARK                            x       y       z     vdW  Elec       q    Type
REMARK                         _______ _______ _______ _____ _____    ______ ____
ROOT
ATOM      1  C   LIG    1       19.272  47.616  15.657  0.00  0.00    +0.352 C 
ENDROOT
BRANCH   1   4
ATOM      2  O   LIG    1       19.568  50.498  15.496  0.00  0.00    -0.270 OA
ATOM      3  C   LIG    1       20.224  49.724  14.826  0.00  0.00    +0.252 C 
ATOM      4  N   LIG    1       20.174  48.365  14.809  0.00  0.00    -0.200 N 
ATOM      5  C   LIG    1       21.066  47.866  13.914  0.00  0.00    +0.252 C 
ATOM      6  O   LIG    1       21.324  46.718  13.603  0.00  0.00    -0.270 OA
ATOM      7  C   LIG    1       21.743  49.019  13.312  0.00  0.00    +0.023 C 
ATOM      8  C   LIG    1       22.795  48.945  12.286  0.00  0.00    +0.041 C 
ATOM      9  C   LIG    1       23.378  50.308  11.892  0.00  0.00    +0.005 C 
ATOM     10  C   LIG    1       22.723  51.595  12.430  0.00  0.00    +0.005 C 
ATOM     11  C   LIG    1       21.661  51.500  13.537  0.00  0.00    +0.041 C 
ATOM     12  C   LIG    1       21.247  50.125  13.856  0.00  0.00    +0.023 C 
ENDBRANCH   1   4
BRANCH   1  13
ATOM     13  O   LIG    1       18.017  48.268  15.725  0.00  0.00    -0.444 OA
BRANCH  13  14
ATOM     14  C   LIG    1       17.163  47.988  14.719  0.00  0.00    +0.313 C 
ATOM     15  O   LIG    1       16.690  48.798  13.933  0.00  0.00    -0.250 OA
BRANCH  14  16
ATOM     16  C   LIG    1       16.921  46.529  14.660  0.00  0.00    +0.111 C 
ATOM     17  C   LIG    1       15.581  45.850  14.430  0.00  0.00    -0.014 C 
ATOM     18  C   LIG    1       15.607  44.546  13.661  0.00  0.00    +0.012 C 
ATOM     19  C   LIG    1       14.335  46.657  14.157  0.00  0.00    +0.012 C 
ATOM     20  C   LIG    1       16.217  45.826  15.809  0.00  0.00    +0.032 C 
BRANCH  20  21
ATOM     21  C   LIG    1       15.697  46.614  16.938  0.00  0.00    -0.023 C 
ATOM     22  C   LIG    1       16.301  46.823  18.125  0.00  0.00    -0.079 C 
ATOM     23  C   LIG    1       15.655  47.660  19.196  0.00  0.00    +0.038 C 
ATOM     24  C   LIG    1       17.642  46.253  18.498  0.00  0.00    +0.038 C 
ENDBRANCH  20  21
ENDBRANCH  14  16
ENDBRANCH  13  14
ENDBRANCH   1  13
TORSDOF 5
ENDMDL
MODEL 6
REMARK VINA RESULT:      -6.7      1.622      6.380
REMARK  Name = 
REMARK                            x       y       z     vdW  Elec       q    Type
REMARK                         _______ _______ _______ _____ _____    ______ ____
ROOT
ATOM      1  C   LIG    1       20.540  47.886  17.910  0.00  0.00    +0.352 C 
ENDROOT
BRANCH   1   4
ATOM      2  O   LIG    1       19.400  50.536  18.222  0.00  0.00    -0.270 OA
ATOM      3  C   LIG    1       18.783  49.514  18.457  0.00  0.00    +0.252 C 
ATOM      4  N   LIG    1       19.206  48.226  18.355  0.00  0.00    -0.200 N 
ATOM      5  C   LIG    1       18.216  47.368  18.716  0.00  0.00    +0.252 C 
ATOM      6  O   LIG    1       18.194  46.152  18.764  0.00  0.00    -0.270 OA
ATOM      7  C   LIG    1       17.060  48.194  19.079  0.00  0.00    +0.023 C 
ATOM      8  C   LIG    1       15.758  47.680  19.532  0.00  0.00    +0.041 C 
ATOM      9  C   LIG    1       14.707  48.771  19.772  0.00  0.00    +0.005 C 
ATOM     10  C   LIG    1       15.125  50.252  19.708  0.00  0.00    +0.005 C 
ATOM     11  C   LIG    1       16.515  50.625  19.168  0.00  0.00    +0.041 C 
ATOM     12  C   LIG    1       17.393  49.470  18.921  0.00  0.00    +0.023 C 
ENDBRANCH   1   4
BRANCH   1  13
ATOM     13  O   LIG    1       20.604  47.925  16.495  0.00  0.00    -0.444 OA
BRANCH  13  14
ATOM     14  C   LIG    1       21.527  48.761  15.979  0.00  0.00    +0.313 C 
ATOM     15  O   LIG    1       22.272  49.492  16.620  0.00  0.00    -0.250 OA
BRANCH  14  16
ATOM     16  C   LIG    1       21.557  48.624  14.505  0.00  0.00    +0.111 C 
ATOM     17  C   LIG    1       21.394  49.750  13.496  0.00  0.00    -0.014 C 
ATOM     18  C   LIG    1       22.176  49.620  12.206  0.00  0.00    +0.012 C 
ATOM     19  C   LIG    1       21.252  51.183  13.944  0.00  0.00    +0.012 C 
ATOM     20  C   LIG    1       20.272  48.746  13.702  0.00  0.00    +0.032 C 
BRANCH  20  21
ATOM     21  C   LIG    1       19.015  49.089  14.386  0.00  0.00    -0.023 C 
ATOM     22  C   LIG    1       18.071  48.231  14.822  0.00  0.00    -0.079 C 
ATOM     23  C   LIG    1       16.828  48.720  15.513  0.00  0.00    +0.038 C 
ATOM     24  C   LIG    1       18.153  46.737  14.662  0.00  0.00    +0.038 C 
ENDBRANCH  20  21
ENDBRANCH  14  16
ENDBRANCH  13  14
ENDBRANCH   1  13
TORSDOF 5
ENDMDL
MODEL 7
REMARK VINA RESULT:      -6.7      1.649      2.886
REMARK  Name = 
REMARK                            x       y       z     vdW  Elec       q    Type
REMARK                         _______ _______ _______ _____ _____    ______ ____
ROOT
ATOM      1  C   LIG    1       18.549  46.716  14.859  0.00  0.00    +0.352 C 
ENDROOT
BRANCH   1   4
ATOM      2  O   LIG    1       21.085  46.201  13.545  0.00  0.00    -0.270 OA
ATOM      3  C   LIG    1       20.659  47.322  13.756  0.00  0.00    +0.252 C 
ATOM      4  N   LIG    1       19.499  47.687  14.361  0.00  0.00    -0.200 N 
ATOM      5  C   LIG    1       19.392  49.041  14.409  0.00  0.00    +0.252 C 
ATOM      6  O   LIG    1       18.518  49.755  14.865  0.00  0.00    -0.270 OA
ATOM      7  C   LIG    1       20.598  49.578  13.771  0.00  0.00    +0.023 C 
ATOM      8  C   LIG    1       20.902  51.007  13.600  0.00  0.00    +0.041 C 
ATOM      9  C   LIG    1       22.202  51.280  12.831  0.00  0.00    +0.005 C 
ATOM     10  C   LIG    1       23.135  50.104  12.482  0.00  0.00    +0.005 C 
ATOM     11  C   LIG    1       22.645  48.661  12.685  0.00  0.00    +0.041 C 
ATOM     12  C   LIG    1       21.351  48.558  13.378  0.00  0.00    +0.023 C 
ENDBRANCH   1   4
BRANCH   1  13
ATOM     13  O   LIG    1       18.477  46.790  16.272  0.00  0.00    -0.444 OA
BRANCH  13  14
ATOM     14  C   LIG    1       17.322  47.281  16.769  0.00  0.00    +0.313 C 
ATOM     15  O   LIG    1       16.249  47.323  16.182  0.00  0.00    -0.250 OA
BRANCH  14  16
ATOM     16  C   LIG    1       17.525  47.714  18.170  0.00  0.00    +0.111 C 
ATOM     17  C   LIG    1       17.780  49.136  18.642  0.00  0.00    -0.014 C 
ATOM     18  C   LIG    1       17.212  49.512  19.994  0.00  0.00    +0.012 C 
ATOM     19  C   LIG    1       17.775  50.291  17.671  0.00  0.00    +0.012 C 
ATOM     20  C   LIG    1       18.909  48.120  18.650  0.00  0.00    +0.032 C 
BRANCH  20  21
ATOM     21  C   LIG    1       20.027  48.167  17.694  0.00  0.00    -0.023 C 
ATOM     22  C   LIG    1       21.006  49.093  17.638  0.00  0.00    -0.079 C 
ATOM     23  C   LIG    1       22.097  49.017  16.606  0.00  0.00    +0.038 C 
ATOM     24  C   LIG    1       21.105  50.269  18.571  0.00  0.00    +0.038 C 
ENDBRANCH  20  21
ENDBRANCH  14  16
ENDBRANCH  13  14
ENDBRANCH   1  13
TORSDOF 5
ENDMDL
MODEL 8
REMARK VINA RESULT:      -6.7      1.645      3.388
REMARK  Name = 
REMARK                            x       y       z     vdW  Elec       q    Type
REMARK                         _______ _______ _______ _____ _____    ______ ____
ROOT
ATOM      1  C   LIG    1       18.529  46.760  14.883  0.00  0.00    +0.352 C 
ENDROOT
BRANCH   1   4
ATOM      2  O   LIG    1       18.475  49.661  14.864  0.00  0.00    -0.270 OA
ATOM      3  C   LIG    1       19.390  49.010  14.396  0.00  0.00    +0.252 C 
ATOM      4  N   LIG    1       19.526  47.658  14.341  0.00  0.00    -0.200 N 
ATOM      5  C   LIG    1       20.692  47.321  13.731  0.00  0.00    +0.252 C 
ATOM      6  O   LIG    1       21.176  46.231  13.486  0.00  0.00    -0.270 OA
ATOM      7  C   LIG    1       21.353  48.579  13.369  0.00  0.00    +0.023 C 
ATOM      8  C   LIG    1       22.652  48.689  12.686  0.00  0.00    +0.041 C 
ATOM      9  C   LIG    1       23.137  50.132  12.498  0.00  0.00    +0.005 C 
ATOM     10  C   LIG    1       22.193  51.299  12.849  0.00  0.00    +0.005 C 
ATOM     11  C   LIG    1       20.884  51.016  13.604  0.00  0.00    +0.041 C 
ATOM     12  C   LIG    1       20.583  49.584  13.767  0.00  0.00    +0.023 C 
ENDBRANCH   1   4
BRANCH   1  13
ATOM     13  O   LIG    1       18.507  46.858  16.296  0.00  0.00    -0.444 OA
BRANCH  13  14
ATOM     14  C   LIG    1       17.332  47.250  16.831  0.00  0.00    +0.313 C 
ATOM     15  O   LIG    1       16.239  47.190  16.284  0.00  0.00    -0.250 OA
BRANCH  14  16
ATOM     16  C   LIG    1       17.546  47.713  18.221  0.00  0.00    +0.111 C 
ATOM     17  C   LIG    1       17.798  49.147  18.660  0.00  0.00    -0.014 C 
ATOM     18  C   LIG    1       17.241  49.548  20.009  0.00  0.00    +0.012 C 
ATOM     19  C   LIG    1       17.776  50.281  17.665  0.00  0.00    +0.012 C 
ATOM     20  C   LIG    1       18.932  48.138  18.678  0.00  0.00    +0.032 C 
BRANCH  20  21
ATOM     21  C   LIG    1       20.041  48.170  17.710  0.00  0.00    -0.023 C 
ATOM     22  C   LIG    1       21.018  49.096  17.630  0.00  0.00    -0.079 C 
ATOM     23  C   LIG    1       22.099  49.005  16.588  0.00  0.00    +0.038 C 
ATOM     24  C   LIG    1       21.125  50.288  18.542  0.00  0.00    +0.038 C 
ENDBRANCH  20  21
ENDBRANCH  14  16
ENDBRANCH  13  14
ENDBRANCH   1  13
TORSDOF 5
ENDMDL
MODEL 9
REMARK VINA RESULT:      -6.4      0.962      2.904
REMARK  Name = 
REMARK                            x       y       z     vdW  Elec       q    Type
REMARK                         _______ _______ _______ _____ _____    ______ ____
ROOT
ATOM      1  C   LIG    1       19.412  47.017  14.577  0.00  0.00    +0.352 C 
ENDROOT
BRANCH   1   4
ATOM      2  O   LIG    1       21.866  46.790  13.044  0.00  0.00    -0.270 OA
ATOM      3  C   LIG    1       21.393  47.857  13.389  0.00  0.00    +0.252 C 
ATOM      4  N   LIG    1       20.262  48.090  14.107  0.00  0.00    -0.200 N 
ATOM      5  C   LIG    1       20.080  49.424  14.291  0.00  0.00    +0.252 C 
ATOM      6  O   LIG    1       19.203  50.035  14.873  0.00  0.00    -0.270 OA
ATOM      7  C   LIG    1       21.201  50.094  13.624  0.00  0.00    +0.023 C 
ATOM      8  C   LIG    1       21.407  51.549  13.568  0.00  0.00    +0.041 C 
ATOM      9  C   LIG    1       22.627  51.974  12.739  0.00  0.00    +0.005 C 
ATOM     10  C   LIG    1       23.597  50.898  12.214  0.00  0.00    +0.005 C 
ATOM     11  C   LIG    1       23.210  49.414  12.314  0.00  0.00    +0.041 C 
ATOM     12  C   LIG    1       21.981  49.164  13.083  0.00  0.00    +0.023 C 
ENDBRANCH   1   4
BRANCH   1  13
ATOM     13  O   LIG    1       19.723  46.707  15.923  0.00  0.00    -0.444 OA
BRANCH  13  14
ATOM     14  C   LIG    1       18.910  47.257  16.848  0.00  0.00    +0.313 C 
ATOM     15  O   LIG    1       19.196  48.183  17.596  0.00  0.00    -0.250 OA
BRANCH  14  16
ATOM     16  C   LIG    1       17.578  46.613  16.789  0.00  0.00    +0.111 C 
ATOM     17  C   LIG    1       16.418  47.031  15.901  0.00  0.00    -0.014 C 
ATOM     18  C   LIG    1       15.518  45.922  15.398  0.00  0.00    +0.012 C 
ATOM     19  C   LIG    1       16.565  48.153  14.903  0.00  0.00    +0.012 C 
ATOM     20  C   LIG    1       16.368  47.307  17.393  0.00  0.00    +0.032 C 
BRANCH  20  21
ATOM     21  C   LIG    1       16.509  48.659  17.957  0.00  0.00    -0.023 C 
ATOM     22  C   LIG    1       16.104  49.075  19.174  0.00  0.00    -0.079 C 
ATOM     23  C   LIG    1       16.317  50.493  19.627  0.00  0.00    +0.038 C 
ATOM     24  C   LIG    1       15.411  48.193  20.177  0.00  0.00    +0.038 C 
ENDBRANCH  20  21
ENDBRANCH  14  16
ENDBRANCH  13  14
ENDBRANCH   1  13
TORSDOF 5
ENDMDL
