REMARK  Name = 
REMARK                            x       y       z     vdW  Elec       q    Type
REMARK                         _______ _______ _______ _____ _____    ______ ____
ROOT
ATOM      1  C   LIG    1        2.645   2.585   0.023  0.00  0.00    +0.352 C 
ENDROOT
BRANCH   1   4
ATOM      2  O   LIG    1        0.985   0.205   0.014  0.00  0.00    -0.270 OA
ATOM      3  C   LIG    1        2.201   0.168   0.024  0.00  0.00    +0.252 C 
ATOM      4  N   LIG    1        3.080   1.205   0.034  0.00  0.00    -0.200 N 
ATOM      5  C   LIG    1        4.359   0.746   0.050  0.00  0.00    +0.252 C 
ATOM      6  O   LIG    1        5.419   1.344   0.065  0.00  0.00    -0.270 OA
ATOM      7  C   LIG    1        4.277  -0.718   0.048  0.00  0.00    +0.023 C 
ATOM      8  C   LIG    1        5.430  -1.632   0.060  0.00  0.00    +0.041 C 
ATOM      9  C   LIG    1        5.049  -3.116  -0.020  0.00  0.00    +0.005 C 
ATOM     10  C   LIG    1        3.566  -3.523   0.079  0.00  0.00    +0.005 C 
ATOM     11  C   LIG    1        2.476  -2.441   0.010  0.00  0.00    +0.041 C 
ATOM     12  C   LIG    1        2.995  -1.064   0.028  0.00  0.00    +0.023 C 
ENDBRANCH   1   4
BRANCH   1  13
ATOM     13  O   LIG    1        3.769   3.447   0.038  0.00  0.00    -0.444 OA
BRANCH  13  14
ATOM     14  C   LIG    1        3.488   4.766   0.070  0.00  0.00    +0.313 C 
ATOM     15  O   LIG    1        2.370   5.260   0.132  0.00  0.00    -0.250 OA
BRANCH  14  16
ATOM     16  C   LIG    1        4.747   5.545   0.081  0.00  0.00    +0.111 C 
ATOM     17  C   LIG    1        4.913   6.988  -0.367  0.00  0.00    -0.014 C 
ATOM     18  C   LIG    1        5.938   7.814   0.381  0.00  0.00    +0.012 C 
ATOM     19  C   LIG    1        3.727   7.806  -0.815  0.00  0.00    +0.012 C 
ATOM     20  C   LIG    1        5.460   5.860  -1.224  0.00  0.00    +0.032 C 
BRANCH  20  21
ATOM     21  C   LIG    1        4.848   5.465  -2.503  0.00  0.00    -0.023 C 
ATOM     22  C   LIG    1        5.115   4.354  -3.219  0.00  0.00    -0.079 C 
ATOM     23  C   LIG    1        4.408   4.070  -4.516  0.00  0.00    +0.038 C 
ATOM     24  C   LIG    1        6.123   3.314  -2.813  0.00  0.00    +0.038 C 
ENDBRANCH  20  21
ENDBRANCH  14  16
ENDBRANCH  13  14
ENDBRANCH   1  13
TORSDOF 5
