MODEL 1
REMARK VINA RESULT:      -7.5      0.000      0.000
REMARK  Name = 
REMARK                            x       y       z     vdW  Elec       q    Type
REMARK                         _______ _______ _______ _____ _____    ______ ____
ROOT
ATOM      1  O   LIG    1       -7.194  -5.210  12.662  0.00  0.00    -0.451 OA
ENDROOT
BRANCH   1   4
ATOM      2 CL   LIG    1       -6.507  -6.015   9.712  0.00  0.00    -0.080 Cl
ATOM      3  C   LIG    1       -7.075  -4.497  10.311  0.00  0.00    +0.085 A 
ATOM      4  C   LIG    1       -7.353  -4.277  11.668  0.00  0.00    +0.147 A 
ATOM      5  C   LIG    1       -7.951  -3.076  12.066  0.00  0.00    +0.049 A 
ATOM      6  C   LIG    1       -8.200  -2.069  11.133  0.00  0.00    +0.023 A 
ATOM      7  C   LIG    1       -7.849  -2.267   9.799  0.00  0.00    +0.043 A 
ATOM      8 CL   LIG    1       -8.126  -1.014   8.653  0.00  0.00    -0.083 Cl
ATOM      9  C   LIG    1       -7.294  -3.475   9.382  0.00  0.00    +0.043 A 
ENDBRANCH   1   4
BRANCH   1  10
ATOM     10  C   LIG    1       -6.396  -4.959  13.757  0.00  0.00    +0.170 A 
ATOM     11  C   LIG    1       -6.788  -4.698  15.080  0.00  0.00    +0.160 A 
ATOM     12  C   LIG    1       -5.827  -4.405  16.054  0.00  0.00    +0.069 A 
ATOM     13  C   LIG    1       -4.475  -4.415  15.723  0.00  0.00    +0.045 A 
ATOM     14 CL   LIG    1       -3.297  -4.046  16.923  0.00  0.00    -0.083 Cl
ATOM     15  C   LIG    1       -4.066  -4.726  14.429  0.00  0.00    +0.024 A 
ATOM     16  C   LIG    1       -5.028  -4.994  13.455  0.00  0.00    +0.051 A 
BRANCH  11  17
ATOM     17  O   LIG    1       -8.101  -4.733  15.452  0.00  0.00    -0.503 OA
ATOM     18  H   LIG    1       -8.504  -5.558  15.129  0.00  0.00    +0.292 HD
ENDBRANCH  11  17
ENDBRANCH   1  10
TORSDOF 3
ENDMDL
MODEL 2
REMARK VINA RESULT:      -7.3      1.063      5.791
REMARK  Name = 
REMARK                            x       y       z     vdW  Elec       q    Type
REMARK                         _______ _______ _______ _____ _____    ______ ____
ROOT
ATOM      1  O   LIG    1       -7.812  -4.842  12.782  0.00  0.00    -0.451 OA
ENDROOT
BRANCH   1   4
ATOM      2 CL   LIG    1       -4.934  -5.648  11.836  0.00  0.00    -0.080 Cl
ATOM      3  C   LIG    1       -5.442  -5.092  13.392  0.00  0.00    +0.085 A 
ATOM      4  C   LIG    1       -6.774  -4.756  13.676  0.00  0.00    +0.147 A 
ATOM      5  C   LIG    1       -7.093  -4.173  14.907  0.00  0.00    +0.049 A 
ATOM      6  C   LIG    1       -6.109  -3.996  15.879  0.00  0.00    +0.023 A 
ATOM      7  C   LIG    1       -4.803  -4.405  15.617  0.00  0.00    +0.043 A 
ATOM      8 CL   LIG    1       -3.594  -4.216  16.828  0.00  0.00    -0.083 Cl
ATOM      9  C   LIG    1       -4.462  -4.946  14.379  0.00  0.00    +0.043 A 
ENDBRANCH   1   4
BRANCH   1  10
ATOM     10  C   LIG    1       -7.899  -3.989  11.703  0.00  0.00    +0.170 A 
ATOM     11  C   LIG    1       -7.844  -4.305  10.336  0.00  0.00    +0.160 A 
ATOM     12  C   LIG    1       -7.891  -3.287   9.376  0.00  0.00    +0.069 A 
ATOM     13  C   LIG    1       -8.037  -1.962   9.773  0.00  0.00    +0.045 A 
ATOM     14 CL   LIG    1       -8.087  -0.713   8.590  0.00  0.00    -0.083 Cl
ATOM     15  C   LIG    1       -8.149  -1.637  11.123  0.00  0.00    +0.024 A 
ATOM     16  C   LIG    1       -8.078  -2.651  12.078  0.00  0.00    +0.051 A 
BRANCH  11  17
ATOM     17  O   LIG    1       -7.754  -5.599   9.908  0.00  0.00    -0.503 OA
ATOM     18  H   LIG    1       -8.650  -5.957   9.781  0.00  0.00    +0.292 HD
ENDBRANCH  11  17
ENDBRANCH   1  10
TORSDOF 3
ENDMDL
MODEL 3
REMARK VINA RESULT:      -7.2      1.473      2.593
REMARK  Name = 
REMARK                            x       y       z     vdW  Elec       q    Type
REMARK                         _______ _______ _______ _____ _____    ______ ____
ROOT
ATOM      1  O   LIG    1       -6.558  -3.195  12.415  0.00  0.00    -0.451 OA
ENDROOT
BRANCH   1   4
ATOM      2 CL   LIG    1       -8.260  -1.763  10.206  0.00  0.00    -0.080 Cl
ATOM      3  C   LIG    1       -7.807  -3.428  10.309  0.00  0.00    +0.085 A 
ATOM      4  C   LIG    1       -7.028  -3.935  11.359  0.00  0.00    +0.147 A 
ATOM      5  C   LIG    1       -6.572  -5.257  11.307  0.00  0.00    +0.049 A 
ATOM      6  C   LIG    1       -6.951  -6.093  10.256  0.00  0.00    +0.023 A 
ATOM      7  C   LIG    1       -7.790  -5.602   9.257  0.00  0.00    +0.043 A 
ATOM      8 CL   LIG    1       -8.285  -6.641   7.977  0.00  0.00    -0.083 Cl
ATOM      9  C   LIG    1       -8.215  -4.275   9.274  0.00  0.00    +0.043 A 
ENDBRANCH   1   4
BRANCH   1  10
ATOM     10  C   LIG    1       -6.372  -3.760  13.658  0.00  0.00    +0.170 A 
ATOM     11  C   LIG    1       -7.344  -4.140  14.597  0.00  0.00    +0.160 A 
ATOM     12  C   LIG    1       -6.960  -4.647  15.843  0.00  0.00    +0.069 A 
ATOM     13  C   LIG    1       -5.612  -4.817  16.139  0.00  0.00    +0.045 A 
ATOM     14 CL   LIG    1       -5.143  -5.435  17.676  0.00  0.00    -0.083 Cl
ATOM     15  C   LIG    1       -4.635  -4.497  15.199  0.00  0.00    +0.024 A 
ATOM     16  C   LIG    1       -5.021  -3.970  13.966  0.00  0.00    +0.051 A 
BRANCH  11  17
ATOM     17  O   LIG    1       -8.678  -4.037  14.320  0.00  0.00    -0.503 OA
ATOM     18  H   LIG    1       -8.863  -3.152  13.959  0.00  0.00    +0.292 HD
ENDBRANCH  11  17
ENDBRANCH   1  10
TORSDOF 3
ENDMDL
MODEL 4
REMARK VINA RESULT:      -7.1      2.168      3.095
REMARK  Name = 
REMARK                            x       y       z     vdW  Elec       q    Type
REMARK                         _______ _______ _______ _____ _____    ______ ____
ROOT
ATOM      1  O   LIG    1       -7.012  -3.269  12.802  0.00  0.00    -0.451 OA
ENDROOT
BRANCH   1   4
ATOM      2 CL   LIG    1      -10.038  -4.086  12.750  0.00  0.00    -0.080 Cl
ATOM      3  C   LIG    1       -8.778  -4.544  11.660  0.00  0.00    +0.085 A 
ATOM      4  C   LIG    1       -7.457  -4.093  11.799  0.00  0.00    +0.147 A 
ATOM      5  C   LIG    1       -6.519  -4.380  10.800  0.00  0.00    +0.049 A 
ATOM      6  C   LIG    1       -6.871  -5.174   9.709  0.00  0.00    +0.023 A 
ATOM      7  C   LIG    1       -8.166  -5.683   9.619  0.00  0.00    +0.043 A 
ATOM      8 CL   LIG    1       -8.592  -6.690   8.290  0.00  0.00    -0.083 Cl
ATOM      9  C   LIG    1       -9.121  -5.369  10.583  0.00  0.00    +0.043 A 
ENDBRANCH   1   4
BRANCH   1  10
ATOM     10  C   LIG    1       -6.413  -3.778  13.933  0.00  0.00    +0.170 A 
ATOM     11  C   LIG    1       -5.064  -4.117  14.128  0.00  0.00    +0.160 A 
ATOM     12  C   LIG    1       -4.648  -4.682  15.338  0.00  0.00    +0.069 A 
ATOM     13  C   LIG    1       -5.562  -4.871  16.369  0.00  0.00    +0.045 A 
ATOM     14 CL   LIG    1       -5.048  -5.574  17.854  0.00  0.00    -0.083 Cl
ATOM     15  C   LIG    1       -6.893  -4.490  16.213  0.00  0.00    +0.024 A 
ATOM     16  C   LIG    1       -7.309  -3.948  14.996  0.00  0.00    +0.051 A 
BRANCH  11  17
ATOM     17  O   LIG    1       -4.129  -3.897  13.157  0.00  0.00    -0.503 OA
ATOM     18  H   LIG    1       -4.237  -4.559  12.452  0.00  0.00    +0.292 HD
ENDBRANCH  11  17
ENDBRANCH   1  10
TORSDOF 3
ENDMDL
MODEL 5
REMARK VINA RESULT:      -6.8      2.180      5.879
REMARK  Name = 
REMARK                            x       y       z     vdW  Elec       q    Type
REMARK                         _______ _______ _______ _____ _____    ______ ____
ROOT
ATOM      1  O   LIG    1       -7.000  -3.258  13.019  0.00  0.00    -0.451 OA
ENDROOT
BRANCH   1   4
ATOM      2 CL   LIG    1       -3.954  -4.001  13.043  0.00  0.00    -0.080 Cl
ATOM      3  C   LIG    1       -5.132  -4.235  14.286  0.00  0.00    +0.085 A 
ATOM      4  C   LIG    1       -6.471  -3.843  14.142  0.00  0.00    +0.147 A 
ATOM      5  C   LIG    1       -7.338  -3.924  15.237  0.00  0.00    +0.049 A 
ATOM      6  C   LIG    1       -6.898  -4.464  16.446  0.00  0.00    +0.023 A 
ATOM      7  C   LIG    1       -5.586  -4.923  16.557  0.00  0.00    +0.043 A 
ATOM      8 CL   LIG    1       -5.051  -5.617  18.037  0.00  0.00    -0.083 Cl
ATOM      9  C   LIG    1       -4.700  -4.806  15.487  0.00  0.00    +0.043 A 
ENDBRANCH   1   4
BRANCH   1  10
ATOM     10  C   LIG    1       -7.545  -4.016  12.006  0.00  0.00    +0.170 A 
ATOM     11  C   LIG    1       -8.852  -4.518  11.901  0.00  0.00    +0.160 A 
ATOM     12  C   LIG    1       -9.211  -5.327  10.817  0.00  0.00    +0.069 A 
ATOM     13  C   LIG    1       -8.284  -5.600   9.816  0.00  0.00    +0.045 A 
ATOM     14 CL   LIG    1       -8.726  -6.602   8.488  0.00  0.00    -0.083 Cl
ATOM     15  C   LIG    1       -7.000  -5.065   9.876  0.00  0.00    +0.024 A 
ATOM     16  C   LIG    1       -6.639  -4.278  10.970  0.00  0.00    +0.051 A 
BRANCH  11  17
ATOM     17  O   LIG    1       -9.803  -4.227  12.837  0.00  0.00    -0.503 OA
ATOM     18  H   LIG    1      -10.436  -4.964  12.891  0.00  0.00    +0.292 HD
ENDBRANCH  11  17
ENDBRANCH   1  10
TORSDOF 3
ENDMDL
MODEL 6
REMARK VINA RESULT:      -6.8      3.133      4.969
REMARK  Name = 
REMARK                            x       y       z     vdW  Elec       q    Type
REMARK                         _______ _______ _______ _____ _____    ______ ____
ROOT
ATOM      1  O   LIG    1       -6.637  -3.586  12.153  0.00  0.00    -0.451 OA
ENDROOT
BRANCH   1   4
ATOM      2 CL   LIG    1       -7.141  -3.591   9.059  0.00  0.00    -0.080 Cl
ATOM      3  C   LIG    1       -6.800  -4.929  10.099  0.00  0.00    +0.085 A 
ATOM      4  C   LIG    1       -6.586  -4.779  11.476  0.00  0.00    +0.147 A 
ATOM      5  C   LIG    1       -6.168  -5.878  12.236  0.00  0.00    +0.049 A 
ATOM      6  C   LIG    1       -6.038  -7.135  11.645  0.00  0.00    +0.023 A 
ATOM      7  C   LIG    1       -6.329  -7.290  10.290  0.00  0.00    +0.043 A 
ATOM      8 CL   LIG    1       -6.201  -8.846   9.567  0.00  0.00    -0.083 Cl
ATOM      9  C   LIG    1       -6.703  -6.195   9.514  0.00  0.00    +0.043 A 
ENDBRANCH   1   4
BRANCH   1  10
ATOM     10  C   LIG    1       -7.839  -2.970  12.427  0.00  0.00    +0.170 A 
ATOM     11  C   LIG    1       -8.881  -3.421  13.252  0.00  0.00    +0.160 A 
ATOM     12  C   LIG    1      -10.063  -2.680  13.362  0.00  0.00    +0.069 A 
ATOM     13  C   LIG    1      -10.192  -1.470  12.688  0.00  0.00    +0.045 A 
ATOM     14 CL   LIG    1      -11.650  -0.566  12.820  0.00  0.00    -0.083 Cl
ATOM     15  C   LIG    1       -9.146  -0.981  11.909  0.00  0.00    +0.024 A 
ATOM     16  C   LIG    1       -7.978  -1.733  11.782  0.00  0.00    +0.051 A 
BRANCH  11  17
ATOM     17  O   LIG    1       -8.768  -4.577  13.971  0.00  0.00    -0.503 OA
ATOM     18  H   LIG    1       -8.956  -4.391  14.908  0.00  0.00    +0.292 HD
ENDBRANCH  11  17
ENDBRANCH   1  10
TORSDOF 3
ENDMDL
MODEL 7
REMARK VINA RESULT:      -6.8      1.433      1.831
REMARK  Name = 
REMARK                            x       y       z     vdW  Elec       q    Type
REMARK                         _______ _______ _______ _____ _____    ______ ____
ROOT
ATOM      1  O   LIG    1       -7.362  -5.385  13.081  0.00  0.00    -0.451 OA
ENDROOT
BRANCH   1   4
ATOM      2 CL   LIG    1       -9.543  -3.187  13.567  0.00  0.00    -0.080 Cl
ATOM      3  C   LIG    1       -8.580  -3.458  12.158  0.00  0.00    +0.085 A 
ATOM      4  C   LIG    1       -7.627  -4.484  12.080  0.00  0.00    +0.147 A 
ATOM      5  C   LIG    1       -6.778  -4.558  10.971  0.00  0.00    +0.049 A 
ATOM      6  C   LIG    1       -6.926  -3.665   9.909  0.00  0.00    +0.023 A 
ATOM      7  C   LIG    1       -7.928  -2.697   9.960  0.00  0.00    +0.043 A 
ATOM      8 CL   LIG    1       -8.132  -1.616   8.637  0.00  0.00    -0.083 Cl
ATOM      9  C   LIG    1       -8.751  -2.585  11.079  0.00  0.00    +0.043 A 
ENDBRANCH   1   4
BRANCH   1  10
ATOM     10  C   LIG    1       -6.498  -5.079  14.109  0.00  0.00    +0.170 A 
ATOM     11  C   LIG    1       -6.802  -4.821  15.456  0.00  0.00    +0.160 A 
ATOM     12  C   LIG    1       -5.787  -4.465  16.351  0.00  0.00    +0.069 A 
ATOM     13  C   LIG    1       -4.466  -4.408  15.918  0.00  0.00    +0.045 A 
ATOM     14 CL   LIG    1       -3.221  -3.962  17.021  0.00  0.00    -0.083 Cl
ATOM     15  C   LIG    1       -4.140  -4.714  14.600  0.00  0.00    +0.024 A 
ATOM     16  C   LIG    1       -5.157  -5.046  13.704  0.00  0.00    +0.051 A 
BRANCH  11  17
ATOM     17  O   LIG    1       -8.080  -4.920  15.927  0.00  0.00    -0.503 OA
ATOM     18  H   LIG    1       -8.187  -5.771  16.387  0.00  0.00    +0.292 HD
ENDBRANCH  11  17
ENDBRANCH   1  10
TORSDOF 3
ENDMDL
MODEL 8
REMARK VINA RESULT:      -6.7      2.138      2.670
REMARK  Name = 
REMARK                            x       y       z     vdW  Elec       q    Type
REMARK                         _______ _______ _______ _____ _____    ______ ____
ROOT
ATOM      1  O   LIG    1       -5.743  -3.604  12.625  0.00  0.00    -0.451 OA
ENDROOT
BRANCH   1   4
ATOM      2 CL   LIG    1       -5.713  -6.637  11.835  0.00  0.00    -0.080 Cl
ATOM      3  C   LIG    1       -6.896  -5.436  11.457  0.00  0.00    +0.085 A 
ATOM      4  C   LIG    1       -6.786  -4.106  11.886  0.00  0.00    +0.147 A 
ATOM      5  C   LIG    1       -7.848  -3.219  11.675  0.00  0.00    +0.049 A 
ATOM      6  C   LIG    1       -8.980  -3.631  10.972  0.00  0.00    +0.023 A 
ATOM      7  C   LIG    1       -9.048  -4.934  10.481  0.00  0.00    +0.043 A 
ATOM      8 CL   LIG    1      -10.431  -5.434   9.587  0.00  0.00    -0.083 Cl
ATOM      9  C   LIG    1       -8.017  -5.839  10.724  0.00  0.00    +0.043 A 
ENDBRANCH   1   4
BRANCH   1  10
ATOM     10  C   LIG    1       -5.493  -4.050  13.904  0.00  0.00    +0.170 A 
ATOM     11  C   LIG    1       -4.316  -4.622  14.413  0.00  0.00    +0.160 A 
ATOM     12  C   LIG    1       -4.268  -5.074  15.736  0.00  0.00    +0.069 A 
ATOM     13  C   LIG    1       -5.374  -4.918  16.566  0.00  0.00    +0.045 A 
ATOM     14 CL   LIG    1       -5.313  -5.482  18.191  0.00  0.00    -0.083 Cl
ATOM     15  C   LIG    1       -6.531  -4.303  16.093  0.00  0.00    +0.024 A 
ATOM     16  C   LIG    1       -6.583  -3.875  14.767  0.00  0.00    +0.051 A 
BRANCH  11  17
ATOM     17  O   LIG    1       -3.194  -4.742  13.644  0.00  0.00    -0.503 OA
ATOM     18  H   LIG    1       -3.445  -5.058  12.758  0.00  0.00    +0.292 HD
ENDBRANCH  11  17
ENDBRANCH   1  10
TORSDOF 3
ENDMDL
MODEL 9
REMARK VINA RESULT:      -6.7      2.209      2.511
REMARK  Name = 
REMARK                            x       y       z     vdW  Elec       q    Type
REMARK                         _______ _______ _______ _____ _____    ______ ____
ROOT
ATOM      1  O   LIG    1       -7.206  -4.196  12.430  0.00  0.00    -0.451 OA
ENDROOT
BRANCH   1   4
ATOM      2 CL   LIG    1      -10.094  -5.410  12.332  0.00  0.00    -0.080 Cl
ATOM      3  C   LIG    1       -9.624  -3.748  12.406  0.00  0.00    +0.085 A 
ATOM      4  C   LIG    1       -8.282  -3.344  12.454  0.00  0.00    +0.147 A 
ATOM      5  C   LIG    1       -7.972  -1.996  12.662  0.00  0.00    +0.049 A 
ATOM      6  C   LIG    1       -8.988  -1.043  12.745  0.00  0.00    +0.023 A 
ATOM      7  C   LIG    1      -10.317  -1.444  12.618  0.00  0.00    +0.043 A 
ATOM      8 CL   LIG    1      -11.569  -0.266  12.689  0.00  0.00    -0.083 Cl
ATOM      9  C   LIG    1      -10.641  -2.790  12.455  0.00  0.00    +0.043 A 
ENDBRANCH   1   4
BRANCH   1  10
ATOM     10  C   LIG    1       -6.389  -4.346  13.530  0.00  0.00    +0.170 A 
ATOM     11  C   LIG    1       -6.757  -4.601  14.861  0.00  0.00    +0.160 A 
ATOM     12  C   LIG    1       -5.781  -4.663  15.861  0.00  0.00    +0.069 A 
ATOM     13  C   LIG    1       -4.437  -4.516  15.533  0.00  0.00    +0.045 A 
ATOM     14 CL   LIG    1       -3.240  -4.586  16.768  0.00  0.00    -0.083 Cl
ATOM     15  C   LIG    1       -4.050  -4.318  14.210  0.00  0.00    +0.024 A 
ATOM     16  C   LIG    1       -5.027  -4.233  13.218  0.00  0.00    +0.051 A 
BRANCH  11  17
ATOM     17  O   LIG    1       -8.061  -4.803  15.211  0.00  0.00    -0.503 OA
ATOM     18  H   LIG    1       -8.323  -4.137  15.871  0.00  0.00    +0.292 HD
ENDBRANCH  11  17
ENDBRANCH   1  10
TORSDOF 3
ENDMDL
