MODEL 1
REMARK VINA RESULT:      -7.5      0.000      0.000
REMARK  Name = 
REMARK                            x       y       z     vdW  Elec       q    Type
REMARK                         _______ _______ _______ _____ _____    ______ ____
ROOT
ATOM      1  O   LIG    1       65.043  44.789  29.608  0.00  0.00    -0.451 OA
ENDROOT
BRANCH   1   4
ATOM      2 CL   LIG    1       63.032  43.180  27.821  0.00  0.00    -0.080 Cl
ATOM      3  C   LIG    1       63.067  44.877  28.146  0.00  0.00    +0.085 A 
ATOM      4  C   LIG    1       64.028  45.466  28.979  0.00  0.00    +0.147 A 
ATOM      5  C   LIG    1       63.913  46.818  29.321  0.00  0.00    +0.049 A 
ATOM      6  C   LIG    1       62.893  47.599  28.776  0.00  0.00    +0.023 A 
ATOM      7  C   LIG    1       61.987  47.022  27.887  0.00  0.00    +0.043 A 
ATOM      8 CL   LIG    1       60.748  47.990  27.189  0.00  0.00    -0.083 Cl
ATOM      9  C   LIG    1       62.064  45.666  27.574  0.00  0.00    +0.043 A 
ENDBRANCH   1   4
BRANCH   1  10
ATOM     10  C   LIG    1       64.988  44.506  30.955  0.00  0.00    +0.170 A 
ATOM     11  C   LIG    1       65.535  45.235  32.022  0.00  0.00    +0.160 A 
ATOM     12  C   LIG    1       65.427  44.756  33.332  0.00  0.00    +0.069 A 
ATOM     13  C   LIG    1       64.737  43.575  33.586  0.00  0.00    +0.045 A 
ATOM     14 CL   LIG    1       64.613  42.984  35.198  0.00  0.00    -0.083 Cl
ATOM     15  C   LIG    1       64.140  42.867  32.546  0.00  0.00    +0.024 A 
ATOM     16  C   LIG    1       64.270  43.336  31.238  0.00  0.00    +0.051 A 
BRANCH  11  17
ATOM     17  O   LIG    1       66.173  46.426  31.816  0.00  0.00    -0.503 OA
ATOM     18  H   LIG    1       67.040  46.258  31.407  0.00  0.00    +0.292 HD
ENDBRANCH  11  17
ENDBRANCH   1  10
TORSDOF 3
ENDMDL
MODEL 2
REMARK VINA RESULT:      -7.5      4.048      5.980
REMARK  Name = 
REMARK                            x       y       z     vdW  Elec       q    Type
REMARK                         _______ _______ _______ _____ _____    ______ ____
ROOT
ATOM      1  O   LIG    1       60.776  46.626  30.717  0.00  0.00    -0.451 OA
ENDROOT
BRANCH   1   4
ATOM      2 CL   LIG    1       58.993  45.697  33.122  0.00  0.00    -0.080 Cl
ATOM      3  C   LIG    1       58.619  45.688  31.435  0.00  0.00    +0.085 A 
ATOM      4  C   LIG    1       59.517  46.145  30.459  0.00  0.00    +0.147 A 
ATOM      5  C   LIG    1       59.098  46.250  29.128  0.00  0.00    +0.049 A 
ATOM      6  C   LIG    1       57.821  45.831  28.755  0.00  0.00    +0.023 A 
ATOM      7  C   LIG    1       56.962  45.305  29.719  0.00  0.00    +0.043 A 
ATOM      8 CL   LIG    1       55.398  44.757  29.255  0.00  0.00    -0.083 Cl
ATOM      9  C   LIG    1       57.351  45.236  31.056  0.00  0.00    +0.043 A 
ENDBRANCH   1   4
BRANCH   1  10
ATOM     10  C   LIG    1       61.723  46.721  29.721  0.00  0.00    +0.170 A 
ATOM     11  C   LIG    1       62.497  45.696  29.153  0.00  0.00    +0.160 A 
ATOM     12  C   LIG    1       63.460  45.995  28.184  0.00  0.00    +0.069 A 
ATOM     13  C   LIG    1       63.624  47.305  27.747  0.00  0.00    +0.045 A 
ATOM     14 CL   LIG    1       64.816  47.670  26.559  0.00  0.00    -0.083 Cl
ATOM     15  C   LIG    1       62.828  48.326  28.259  0.00  0.00    +0.024 A 
ATOM     16  C   LIG    1       61.884  48.028  29.242  0.00  0.00    +0.051 A 
BRANCH  11  17
ATOM     17  O   LIG    1       62.326  44.391  29.519  0.00  0.00    -0.503 OA
ATOM     18  H   LIG    1       63.151  43.902  29.356  0.00  0.00    +0.292 HD
ENDBRANCH  11  17
ENDBRANCH   1  10
TORSDOF 3
ENDMDL
MODEL 3
REMARK VINA RESULT:      -7.4      4.436      5.322
REMARK  Name = 
REMARK                            x       y       z     vdW  Elec       q    Type
REMARK                         _______ _______ _______ _____ _____    ______ ____
ROOT
ATOM      1  O   LIG    1       60.074  46.874  29.969  0.00  0.00    -0.451 OA
ENDROOT
BRANCH   1   4
ATOM      2 CL   LIG    1       59.081  45.812  32.746  0.00  0.00    -0.080 Cl
ATOM      3  C   LIG    1       58.309  45.688  31.205  0.00  0.00    +0.085 A 
ATOM      4  C   LIG    1       58.869  46.221  30.035  0.00  0.00    +0.147 A 
ATOM      5  C   LIG    1       58.127  46.218  28.849  0.00  0.00    +0.049 A 
ATOM      6  C   LIG    1       56.868  45.619  28.806  0.00  0.00    +0.023 A 
ATOM      7  C   LIG    1       56.352  45.022  29.956  0.00  0.00    +0.043 A 
ATOM      8 CL   LIG    1       54.812  44.256  29.897  0.00  0.00    -0.083 Cl
ATOM      9  C   LIG    1       57.062  45.058  31.155  0.00  0.00    +0.043 A 
ENDBRANCH   1   4
BRANCH   1  10
ATOM     10  C   LIG    1       61.265  46.191  30.089  0.00  0.00    +0.170 A 
ATOM     11  C   LIG    1       62.270  46.354  31.056  0.00  0.00    +0.160 A 
ATOM     12  C   LIG    1       63.448  45.603  30.980  0.00  0.00    +0.069 A 
ATOM     13  C   LIG    1       63.610  44.661  29.970  0.00  0.00    +0.045 A 
ATOM     14 CL   LIG    1       65.064  43.744  29.876  0.00  0.00    -0.083 Cl
ATOM     15  C   LIG    1       62.600  44.447  29.035  0.00  0.00    +0.024 A 
ATOM     16  C   LIG    1       61.436  45.214  29.099  0.00  0.00    +0.051 A 
BRANCH  11  17
ATOM     17  O   LIG    1       62.123  47.231  32.092  0.00  0.00    -0.503 OA
ATOM     18  H   LIG    1       62.145  48.141  31.747  0.00  0.00    +0.292 HD
ENDBRANCH  11  17
ENDBRANCH   1  10
TORSDOF 3
ENDMDL
MODEL 4
REMARK VINA RESULT:      -7.3      2.748      3.534
REMARK  Name = 
REMARK                            x       y       z     vdW  Elec       q    Type
REMARK                         _______ _______ _______ _____ _____    ______ ____
ROOT
ATOM      1  O   LIG    1       62.168  47.371  30.773  0.00  0.00    -0.451 OA
ENDROOT
BRANCH   1   4
ATOM      2 CL   LIG    1       61.625  48.311  27.833  0.00  0.00    -0.080 Cl
ATOM      3  C   LIG    1       60.581  47.437  28.896  0.00  0.00    +0.085 A 
ATOM      4  C   LIG    1       60.959  47.071  30.195  0.00  0.00    +0.147 A 
ATOM      5  C   LIG    1       60.127  46.238  30.951  0.00  0.00    +0.049 A 
ATOM      6  C   LIG    1       58.891  45.832  30.447  0.00  0.00    +0.023 A 
ATOM      7  C   LIG    1       58.488  46.264  29.184  0.00  0.00    +0.043 A 
ATOM      8 CL   LIG    1       56.950  45.791  28.575  0.00  0.00    -0.083 Cl
ATOM      9  C   LIG    1       59.327  47.058  28.404  0.00  0.00    +0.043 A 
ENDBRANCH   1   4
BRANCH   1  10
ATOM     10  C   LIG    1       62.915  46.405  31.411  0.00  0.00    +0.170 A 
ATOM     11  C   LIG    1       63.694  45.387  30.838  0.00  0.00    +0.160 A 
ATOM     12  C   LIG    1       64.341  44.452  31.653  0.00  0.00    +0.069 A 
ATOM     13  C   LIG    1       64.251  44.556  33.038  0.00  0.00    +0.045 A 
ATOM     14 CL   LIG    1       65.043  43.400  34.037  0.00  0.00    -0.083 Cl
ATOM     15  C   LIG    1       63.528  45.592  33.623  0.00  0.00    +0.024 A 
ATOM     16  C   LIG    1       62.865  46.509  32.807  0.00  0.00    +0.051 A 
BRANCH  11  17
ATOM     17  O   LIG    1       63.848  45.287  29.484  0.00  0.00    -0.503 OA
ATOM     18  H   LIG    1       63.008  45.514  29.048  0.00  0.00    +0.292 HD
ENDBRANCH  11  17
ENDBRANCH   1  10
TORSDOF 3
ENDMDL
MODEL 5
REMARK VINA RESULT:      -7.3      2.719      6.049
REMARK  Name = 
REMARK                            x       y       z     vdW  Elec       q    Type
REMARK                         _______ _______ _______ _____ _____    ______ ____
ROOT
ATOM      1  O   LIG    1       62.670  47.039  30.554  0.00  0.00    -0.451 OA
ENDROOT
BRANCH   1   4
ATOM      2 CL   LIG    1       64.321  44.643  29.389  0.00  0.00    -0.080 Cl
ATOM      3  C   LIG    1       63.981  45.016  31.042  0.00  0.00    +0.085 A 
ATOM      4  C   LIG    1       63.228  46.136  31.424  0.00  0.00    +0.147 A 
ATOM      5  C   LIG    1       63.115  46.464  32.779  0.00  0.00    +0.049 A 
ATOM      6  C   LIG    1       63.680  45.641  33.754  0.00  0.00    +0.023 A 
ATOM      7  C   LIG    1       64.361  44.487  33.368  0.00  0.00    +0.043 A 
ATOM      8 CL   LIG    1       65.031  43.455  34.570  0.00  0.00    -0.083 Cl
ATOM      9  C   LIG    1       64.519  44.173  32.020  0.00  0.00    +0.043 A 
ENDBRANCH   1   4
BRANCH   1  10
ATOM     10  C   LIG    1       61.459  46.790  29.945  0.00  0.00    +0.170 A 
ATOM     11  C   LIG    1       61.119  46.936  28.591  0.00  0.00    +0.160 A 
ATOM     12  C   LIG    1       59.810  46.690  28.163  0.00  0.00    +0.069 A 
ATOM     13  C   LIG    1       58.850  46.257  29.072  0.00  0.00    +0.045 A 
ATOM     14 CL   LIG    1       57.239  45.961  28.544  0.00  0.00    -0.083 Cl
ATOM     15  C   LIG    1       59.184  46.053  30.409  0.00  0.00    +0.024 A 
ATOM     16  C   LIG    1       60.485  46.322  30.836  0.00  0.00    +0.051 A 
BRANCH  11  17
ATOM     17  O   LIG    1       62.048  47.309  27.661  0.00  0.00    -0.503 OA
ATOM     18  H   LIG    1       62.875  46.823  27.822  0.00  0.00    +0.292 HD
ENDBRANCH  11  17
ENDBRANCH   1  10
TORSDOF 3
ENDMDL
MODEL 6
REMARK VINA RESULT:      -7.3      1.935      5.879
REMARK  Name = 
REMARK                            x       y       z     vdW  Elec       q    Type
REMARK                         _______ _______ _______ _____ _____    ______ ____
ROOT
ATOM      1  O   LIG    1       64.451  45.091  30.913  0.00  0.00    -0.451 OA
ENDROOT
BRANCH   1   4
ATOM      2 CL   LIG    1       64.220  42.532  32.707  0.00  0.00    -0.080 Cl
ATOM      3  C   LIG    1       64.275  44.189  33.194  0.00  0.00    +0.085 A 
ATOM      4  C   LIG    1       64.389  45.242  32.276  0.00  0.00    +0.147 A 
ATOM      5  C   LIG    1       64.579  46.549  32.740  0.00  0.00    +0.049 A 
ATOM      6  C   LIG    1       64.577  46.817  34.109  0.00  0.00    +0.023 A 
ATOM      7  C   LIG    1       64.385  45.774  35.014  0.00  0.00    +0.043 A 
ATOM      8 CL   LIG    1       64.351  46.108  36.701  0.00  0.00    -0.083 Cl
ATOM      9  C   LIG    1       64.240  44.462  34.565  0.00  0.00    +0.043 A 
ENDBRANCH   1   4
BRANCH   1  10
ATOM     10  C   LIG    1       63.647  45.832  30.074  0.00  0.00    +0.170 A 
ATOM     11  C   LIG    1       63.980  46.420  28.843  0.00  0.00    +0.160 A 
ATOM     12  C   LIG    1       63.039  47.194  28.155  0.00  0.00    +0.069 A 
ATOM     13  C   LIG    1       61.755  47.347  28.668  0.00  0.00    +0.045 A 
ATOM     14 CL   LIG    1       60.602  48.306  27.822  0.00  0.00    -0.083 Cl
ATOM     15  C   LIG    1       61.391  46.725  29.860  0.00  0.00    +0.024 A 
ATOM     16  C   LIG    1       62.339  45.974  30.555  0.00  0.00    +0.051 A 
BRANCH  11  17
ATOM     17  O   LIG    1       65.214  46.247  28.283  0.00  0.00    -0.503 OA
ATOM     18  H   LIG    1       65.673  45.519  28.738  0.00  0.00    +0.292 HD
ENDBRANCH  11  17
ENDBRANCH   1  10
TORSDOF 3
ENDMDL
MODEL 7
REMARK VINA RESULT:      -7.0      4.513      6.577
REMARK  Name = 
REMARK                            x       y       z     vdW  Elec       q    Type
REMARK                         _______ _______ _______ _____ _____    ______ ____
ROOT
ATOM      1  O   LIG    1       60.069  46.951  29.776  0.00  0.00    -0.451 OA
ENDROOT
BRANCH   1   4
ATOM      2 CL   LIG    1       61.901  47.469  32.266  0.00  0.00    -0.080 Cl
ATOM      3  C   LIG    1       62.174  46.411  30.927  0.00  0.00    +0.085 A 
ATOM      4  C   LIG    1       61.256  46.270  29.876  0.00  0.00    +0.147 A 
ATOM      5  C   LIG    1       61.466  45.290  28.900  0.00  0.00    +0.049 A 
ATOM      6  C   LIG    1       62.620  44.506  28.925  0.00  0.00    +0.023 A 
ATOM      7  C   LIG    1       63.565  44.705  29.930  0.00  0.00    +0.043 A 
ATOM      8 CL   LIG    1       65.003  43.761  29.944  0.00  0.00    -0.083 Cl
ATOM      9  C   LIG    1       63.346  45.648  30.933  0.00  0.00    +0.043 A 
ENDBRANCH   1   4
BRANCH   1  10
ATOM     10  C   LIG    1       58.861  46.312  29.948  0.00  0.00    +0.170 A 
ATOM     11  C   LIG    1       58.350  45.710  31.109  0.00  0.00    +0.160 A 
ATOM     12  C   LIG    1       57.117  45.050  31.077  0.00  0.00    +0.069 A 
ATOM     13  C   LIG    1       56.372  45.025  29.902  0.00  0.00    +0.045 A 
ATOM     14 CL   LIG    1       54.858  44.206  29.865  0.00  0.00    -0.083 Cl
ATOM     15  C   LIG    1       56.837  45.664  28.756  0.00  0.00    +0.024 A 
ATOM     16  C   LIG    1       58.078  46.302  28.785  0.00  0.00    +0.051 A 
BRANCH  11  17
ATOM     17  O   LIG    1       59.030  45.761  32.293  0.00  0.00    -0.503 OA
ATOM     18  H   LIG    1       59.975  45.595  32.127  0.00  0.00    +0.292 HD
ENDBRANCH  11  17
ENDBRANCH   1  10
TORSDOF 3
ENDMDL
MODEL 8
REMARK VINA RESULT:      -6.8      3.737      6.551
REMARK  Name = 
REMARK                            x       y       z     vdW  Elec       q    Type
REMARK                         _______ _______ _______ _____ _____    ______ ____
ROOT
ATOM      1  O   LIG    1       61.601  47.286  31.627  0.00  0.00    -0.451 OA
ENDROOT
BRANCH   1   4
ATOM      2 CL   LIG    1       61.459  47.212  34.758  0.00  0.00    -0.080 Cl
ATOM      3  C   LIG    1       62.557  46.388  33.708  0.00  0.00    +0.085 A 
ATOM      4  C   LIG    1       62.501  46.507  32.312  0.00  0.00    +0.147 A 
ATOM      5  C   LIG    1       63.320  45.701  31.514  0.00  0.00    +0.049 A 
ATOM      6  C   LIG    1       64.245  44.837  32.101  0.00  0.00    +0.023 A 
ATOM      7  C   LIG    1       64.349  44.782  33.490  0.00  0.00    +0.043 A 
ATOM      8 CL   LIG    1       65.511  43.741  34.215  0.00  0.00    -0.083 Cl
ATOM      9  C   LIG    1       63.507  45.547  34.296  0.00  0.00    +0.043 A 
ENDBRANCH   1   4
BRANCH   1  10
ATOM     10  C   LIG    1       60.526  46.728  30.971  0.00  0.00    +0.170 A 
ATOM     11  C   LIG    1       60.264  46.702  29.592  0.00  0.00    +0.160 A 
ATOM     12  C   LIG    1       59.078  46.136  29.111  0.00  0.00    +0.069 A 
ATOM     13  C   LIG    1       58.175  45.556  29.995  0.00  0.00    +0.045 A 
ATOM     14 CL   LIG    1       56.714  44.867  29.400  0.00  0.00    -0.083 Cl
ATOM     15  C   LIG    1       58.445  45.523  31.361  0.00  0.00    +0.024 A 
ATOM     16  C   LIG    1       59.617  46.109  31.840  0.00  0.00    +0.051 A 
BRANCH  11  17
ATOM     17  O   LIG    1       61.153  47.215  28.690  0.00  0.00    -0.503 OA
ATOM     18  H   LIG    1       60.832  47.037  27.788  0.00  0.00    +0.292 HD
ENDBRANCH  11  17
ENDBRANCH   1  10
TORSDOF 3
ENDMDL
MODEL 9
REMARK VINA RESULT:      -6.8      1.892      6.277
REMARK  Name = 
REMARK                            x       y       z     vdW  Elec       q    Type
REMARK                         _______ _______ _______ _____ _____    ______ ____
ROOT
ATOM      1  O   LIG    1       64.674  46.367  31.833  0.00  0.00    -0.451 OA
ENDROOT
BRANCH   1   4
ATOM      2 CL   LIG    1       64.045  47.588  34.650  0.00  0.00    -0.080 Cl
ATOM      3  C   LIG    1       64.298  45.933  34.224  0.00  0.00    +0.085 A 
ATOM      4  C   LIG    1       64.566  45.524  32.910  0.00  0.00    +0.147 A 
ATOM      5  C   LIG    1       64.613  44.159  32.606  0.00  0.00    +0.049 A 
ATOM      6  C   LIG    1       64.473  43.206  33.615  0.00  0.00    +0.023 A 
ATOM      7  C   LIG    1       64.285  43.623  34.932  0.00  0.00    +0.043 A 
ATOM      8 CL   LIG    1       64.144  42.450  36.183  0.00  0.00    -0.083 Cl
ATOM      9  C   LIG    1       64.191  44.979  35.241  0.00  0.00    +0.043 A 
ENDBRANCH   1   4
BRANCH   1  10
ATOM     10  C   LIG    1       63.736  46.362  30.823  0.00  0.00    +0.170 A 
ATOM     11  C   LIG    1       63.920  46.060  29.465  0.00  0.00    +0.160 A 
ATOM     12  C   LIG    1       62.851  46.167  28.568  0.00  0.00    +0.069 A 
ATOM     13  C   LIG    1       61.590  46.532  29.029  0.00  0.00    +0.045 A 
ATOM     14 CL   LIG    1       60.279  46.671  27.922  0.00  0.00    -0.083 Cl
ATOM     15  C   LIG    1       61.377  46.782  30.383  0.00  0.00    +0.024 A 
ATOM     16  C   LIG    1       62.451  46.697  31.270  0.00  0.00    +0.051 A 
BRANCH  11  17
ATOM     17  O   LIG    1       65.131  45.646  28.986  0.00  0.00    -0.503 OA
ATOM     18  H   LIG    1       65.011  44.822  28.482  0.00  0.00    +0.292 HD
ENDBRANCH  11  17
ENDBRANCH   1  10
TORSDOF 3
ENDMDL
