MODEL 1
REMARK VINA RESULT:      -8.2      0.000      0.000
REMARK  Name = 
REMARK                            x       y       z     vdW  Elec       q    Type
REMARK                         _______ _______ _______ _____ _____    ______ ____
ROOT
ATOM      1  O   LIG    1       43.341  -0.170  16.807  0.00  0.00    -0.451 OA
ENDROOT
BRANCH   1   4
ATOM      2 CL   LIG    1       44.712  -2.122  14.773  0.00  0.00    -0.080 Cl
ATOM      3  C   LIG    1       44.847  -2.089  16.496  0.00  0.00    +0.085 A 
ATOM      4  C   LIG    1       44.178  -1.146  17.288  0.00  0.00    +0.147 A 
ATOM      5  C   LIG    1       44.446  -1.078  18.660  0.00  0.00    +0.049 A 
ATOM      6  C   LIG    1       45.315  -1.993  19.254  0.00  0.00    +0.023 A 
ATOM      7  C   LIG    1       45.917  -2.978  18.471  0.00  0.00    +0.043 A 
ATOM      8 CL   LIG    1       46.965  -4.127  19.208  0.00  0.00    -0.083 Cl
ATOM      9  C   LIG    1       45.693  -3.027  17.096  0.00  0.00    +0.043 A 
ENDBRANCH   1   4
BRANCH   1  10
ATOM     10  C   LIG    1       41.975  -0.347  16.783  0.00  0.00    +0.170 A 
ATOM     11  C   LIG    1       41.063  -0.241  17.845  0.00  0.00    +0.160 A 
ATOM     12  C   LIG    1       39.707  -0.518  17.641  0.00  0.00    +0.069 A 
ATOM     13  C   LIG    1       39.250  -0.858  16.371  0.00  0.00    +0.045 A 
ATOM     14 CL   LIG    1       37.583  -1.205  16.125  0.00  0.00    -0.083 Cl
ATOM     15  C   LIG    1       40.132  -0.914  15.294  0.00  0.00    +0.024 A 
ATOM     16  C   LIG    1       41.487  -0.660  15.507  0.00  0.00    +0.051 A 
BRANCH  11  17
ATOM     17  O   LIG    1       41.468   0.142  19.093  0.00  0.00    -0.503 OA
ATOM     18  H   LIG    1       42.270   0.687  19.016  0.00  0.00    +0.292 HD
ENDBRANCH  11  17
ENDBRANCH   1  10
TORSDOF 3
ENDMDL
MODEL 2
REMARK VINA RESULT:      -8.1      1.777      6.125
REMARK  Name = 
REMARK                            x       y       z     vdW  Elec       q    Type
REMARK                         _______ _______ _______ _____ _____    ______ ____
ROOT
ATOM      1  O   LIG    1       43.162  -0.311  16.932  0.00  0.00    -0.451 OA
ENDROOT
BRANCH   1   4
ATOM      2 CL   LIG    1       40.555  -0.625  18.644  0.00  0.00    -0.080 Cl
ATOM      3  C   LIG    1       40.795  -0.978  16.970  0.00  0.00    +0.085 A 
ATOM      4  C   LIG    1       42.024  -0.780  16.325  0.00  0.00    +0.147 A 
ATOM      5  C   LIG    1       42.112  -0.944  14.938  0.00  0.00    +0.049 A 
ATOM      6  C   LIG    1       41.006  -1.377  14.207  0.00  0.00    +0.023 A 
ATOM      7  C   LIG    1       39.808  -1.646  14.868  0.00  0.00    +0.043 A 
ATOM      8 CL   LIG    1       38.452  -2.211  13.973  0.00  0.00    -0.083 Cl
ATOM      9  C   LIG    1       39.695  -1.444  16.243  0.00  0.00    +0.043 A 
ENDBRANCH   1   4
BRANCH   1  10
ATOM     10  C   LIG    1       44.102  -1.173  17.453  0.00  0.00    +0.170 A 
ATOM     11  C   LIG    1       45.058  -1.938  16.766  0.00  0.00    +0.160 A 
ATOM     12  C   LIG    1       45.897  -2.811  17.467  0.00  0.00    +0.069 A 
ATOM     13  C   LIG    1       45.817  -2.890  18.854  0.00  0.00    +0.045 A 
ATOM     14 CL   LIG    1       46.847  -3.969  19.712  0.00  0.00    -0.083 Cl
ATOM     15  C   LIG    1       44.913  -2.096  19.556  0.00  0.00    +0.024 A 
ATOM     16  C   LIG    1       44.061  -1.245  18.852  0.00  0.00    +0.051 A 
BRANCH  11  17
ATOM     17  O   LIG    1       45.201  -1.847  15.411  0.00  0.00    -0.503 OA
ATOM     18  H   LIG    1       45.418  -2.725  15.052  0.00  0.00    +0.292 HD
ENDBRANCH  11  17
ENDBRANCH   1  10
TORSDOF 3
ENDMDL
MODEL 3
REMARK VINA RESULT:      -7.9      2.801      6.661
REMARK  Name = 
REMARK                            x       y       z     vdW  Elec       q    Type
REMARK                         _______ _______ _______ _____ _____    ______ ____
ROOT
ATOM      1  O   LIG    1       39.446  -1.723  16.210  0.00  0.00    -0.451 OA
ENDROOT
BRANCH   1   4
ATOM      2 CL   LIG    1       40.621  -0.880  13.428  0.00  0.00    -0.080 Cl
ATOM      3  C   LIG    1       39.375  -0.115  14.350  0.00  0.00    +0.085 A 
ATOM      4  C   LIG    1       38.939  -0.610  15.587  0.00  0.00    +0.147 A 
ATOM      5  C   LIG    1       37.828  -0.032  16.211  0.00  0.00    +0.049 A 
ATOM      6  C   LIG    1       37.202   1.081  15.648  0.00  0.00    +0.023 A 
ATOM      7  C   LIG    1       37.691   1.614  14.457  0.00  0.00    +0.043 A 
ATOM      8 CL   LIG    1       36.940   3.005  13.777  0.00  0.00    -0.083 Cl
ATOM      9  C   LIG    1       38.769   1.020  13.802  0.00  0.00    +0.043 A 
ENDBRANCH   1   4
BRANCH   1  10
ATOM     10  C   LIG    1       40.695  -1.711  16.790  0.00  0.00    +0.170 A 
ATOM     11  C   LIG    1       41.806  -2.513  16.486  0.00  0.00    +0.160 A 
ATOM     12  C   LIG    1       42.985  -2.397  17.231  0.00  0.00    +0.069 A 
ATOM     13  C   LIG    1       43.074  -1.454  18.249  0.00  0.00    +0.045 A 
ATOM     14 CL   LIG    1       44.523  -1.319  19.168  0.00  0.00    -0.083 Cl
ATOM     15  C   LIG    1       42.001  -0.611  18.529  0.00  0.00    +0.024 A 
ATOM     16  C   LIG    1       40.819  -0.746  17.799  0.00  0.00    +0.051 A 
BRANCH  11  17
ATOM     17  O   LIG    1       41.772  -3.413  15.458  0.00  0.00    -0.503 OA
ATOM     18  H   LIG    1       42.419  -3.149  14.780  0.00  0.00    +0.292 HD
ENDBRANCH  11  17
ENDBRANCH   1  10
TORSDOF 3
ENDMDL
MODEL 4
REMARK VINA RESULT:      -7.8      2.783      6.782
REMARK  Name = 
REMARK                            x       y       z     vdW  Elec       q    Type
REMARK                         _______ _______ _______ _____ _____    ______ ____
ROOT
ATOM      1  O   LIG    1       38.734  -0.511  17.193  0.00  0.00    -0.451 OA
ENDROOT
BRANCH   1   4
ATOM      2 CL   LIG    1       37.178  -1.038  14.523  0.00  0.00    -0.080 Cl
ATOM      3  C   LIG    1       37.715   0.468  15.180  0.00  0.00    +0.085 A 
ATOM      4  C   LIG    1       38.399   0.558  16.401  0.00  0.00    +0.147 A 
ATOM      5  C   LIG    1       38.674   1.816  16.949  0.00  0.00    +0.049 A 
ATOM      6  C   LIG    1       38.339   2.977  16.251  0.00  0.00    +0.023 A 
ATOM      7  C   LIG    1       37.729   2.877  15.002  0.00  0.00    +0.043 A 
ATOM      8 CL   LIG    1       37.345   4.307  14.127  0.00  0.00    -0.083 Cl
ATOM      9  C   LIG    1       37.410   1.631  14.466  0.00  0.00    +0.043 A 
ENDBRANCH   1   4
BRANCH   1  10
ATOM     10  C   LIG    1       39.961  -1.128  17.082  0.00  0.00    +0.170 A 
ATOM     11  C   LIG    1       41.159  -0.810  17.741  0.00  0.00    +0.160 A 
ATOM     12  C   LIG    1       42.331  -1.518  17.453  0.00  0.00    +0.069 A 
ATOM     13  C   LIG    1       42.303  -2.569  16.542  0.00  0.00    +0.045 A 
ATOM     14 CL   LIG    1       43.748  -3.433  16.185  0.00  0.00    -0.083 Cl
ATOM     15  C   LIG    1       41.111  -2.934  15.920  0.00  0.00    +0.024 A 
ATOM     16  C   LIG    1       39.949  -2.211  16.193  0.00  0.00    +0.051 A 
BRANCH  11  17
ATOM     17  O   LIG    1       41.212   0.181  18.680  0.00  0.00    -0.503 OA
ATOM     18  H   LIG    1       42.070   0.143  19.137  0.00  0.00    +0.292 HD
ENDBRANCH  11  17
ENDBRANCH   1  10
TORSDOF 3
ENDMDL
MODEL 5
REMARK VINA RESULT:      -7.8      2.288      6.120
REMARK  Name = 
REMARK                            x       y       z     vdW  Elec       q    Type
REMARK                         _______ _______ _______ _____ _____    ______ ____
ROOT
ATOM      1  O   LIG    1       40.203  -1.430  16.919  0.00  0.00    -0.451 OA
ENDROOT
BRANCH   1   4
ATOM      2 CL   LIG    1       39.669  -2.362  13.974  0.00  0.00    -0.080 Cl
ATOM      3  C   LIG    1       39.600  -0.765  14.629  0.00  0.00    +0.085 A 
ATOM      4  C   LIG    1       39.857  -0.490  15.980  0.00  0.00    +0.147 A 
ATOM      5  C   LIG    1       39.640   0.799  16.478  0.00  0.00    +0.049 A 
ATOM      6  C   LIG    1       39.244   1.828  15.623  0.00  0.00    +0.023 A 
ATOM      7  C   LIG    1       39.066   1.563  14.266  0.00  0.00    +0.043 A 
ATOM      8 CL   LIG    1       38.609   2.838  13.205  0.00  0.00    -0.083 Cl
ATOM      9  C   LIG    1       39.236   0.274  13.766  0.00  0.00    +0.043 A 
ENDBRANCH   1   4
BRANCH   1  10
ATOM     10  C   LIG    1       41.511  -1.589  17.324  0.00  0.00    +0.170 A 
ATOM     11  C   LIG    1       42.210  -0.878  18.311  0.00  0.00    +0.160 A 
ATOM     12  C   LIG    1       43.564  -1.142  18.544  0.00  0.00    +0.069 A 
ATOM     13  C   LIG    1       44.211  -2.143  17.827  0.00  0.00    +0.045 A 
ATOM     14 CL   LIG    1       45.879  -2.461  18.111  0.00  0.00    -0.083 Cl
ATOM     15  C   LIG    1       43.518  -2.897  16.882  0.00  0.00    +0.024 A 
ATOM     16  C   LIG    1       42.174  -2.614  16.636  0.00  0.00    +0.051 A 
BRANCH  11  17
ATOM     17  O   LIG    1       41.594   0.075  19.072  0.00  0.00    -0.503 OA
ATOM     18  H   LIG    1       40.653   0.123  18.825  0.00  0.00    +0.292 HD
ENDBRANCH  11  17
ENDBRANCH   1  10
TORSDOF 3
ENDMDL
MODEL 6
REMARK VINA RESULT:      -7.7      2.049      2.517
REMARK  Name = 
REMARK                            x       y       z     vdW  Elec       q    Type
REMARK                         _______ _______ _______ _____ _____    ______ ____
ROOT
ATOM      1  O   LIG    1       42.840  -1.038  15.035  0.00  0.00    -0.451 OA
ENDROOT
BRANCH   1   4
ATOM      2 CL   LIG    1       45.447  -2.777  15.056  0.00  0.00    -0.080 Cl
ATOM      3  C   LIG    1       44.557  -2.151  16.398  0.00  0.00    +0.085 A 
ATOM      4  C   LIG    1       43.401  -1.373  16.241  0.00  0.00    +0.147 A 
ATOM      5  C   LIG    1       42.813  -0.773  17.360  0.00  0.00    +0.049 A 
ATOM      6  C   LIG    1       43.325  -1.007  18.637  0.00  0.00    +0.023 A 
ATOM      7  C   LIG    1       44.429  -1.845  18.791  0.00  0.00    +0.043 A 
ATOM      8 CL   LIG    1       45.042  -2.161  20.368  0.00  0.00    -0.083 Cl
ATOM      9  C   LIG    1       45.050  -2.413  17.681  0.00  0.00    +0.043 A 
ENDBRANCH   1   4
BRANCH   1  10
ATOM     10  C   LIG    1       41.517  -1.310  14.761  0.00  0.00    +0.170 A 
ATOM     11  C   LIG    1       40.810  -2.503  14.978  0.00  0.00    +0.160 A 
ATOM     12  C   LIG    1       39.474  -2.612  14.577  0.00  0.00    +0.069 A 
ATOM     13  C   LIG    1       38.828  -1.523  14.001  0.00  0.00    +0.045 A 
ATOM     14 CL   LIG    1       37.187  -1.663  13.503  0.00  0.00    -0.083 Cl
ATOM     15  C   LIG    1       39.498  -0.314  13.830  0.00  0.00    +0.024 A 
ATOM     16  C   LIG    1       40.838  -0.216  14.209  0.00  0.00    +0.051 A 
BRANCH  11  17
ATOM     17  O   LIG    1       41.395  -3.575  15.589  0.00  0.00    -0.503 OA
ATOM     18  H   LIG    1       42.362  -3.506  15.499  0.00  0.00    +0.292 HD
ENDBRANCH  11  17
ENDBRANCH   1  10
TORSDOF 3
ENDMDL
MODEL 7
REMARK VINA RESULT:      -7.7      1.756      6.105
REMARK  Name = 
REMARK                            x       y       z     vdW  Elec       q    Type
REMARK                         _______ _______ _______ _____ _____    ______ ____
ROOT
ATOM      1  O   LIG    1       41.418   0.306  16.130  0.00  0.00    -0.451 OA
ENDROOT
BRANCH   1   4
ATOM      2 CL   LIG    1       39.192  -1.451  17.465  0.00  0.00    -0.080 Cl
ATOM      3  C   LIG    1       39.427  -1.097  15.790  0.00  0.00    +0.085 A 
ATOM      4  C   LIG    1       40.470  -0.282  15.330  0.00  0.00    +0.147 A 
ATOM      5  C   LIG    1       40.518   0.086  13.981  0.00  0.00    +0.049 A 
ATOM      6  C   LIG    1       39.579  -0.416  13.080  0.00  0.00    +0.023 A 
ATOM      7  C   LIG    1       38.591  -1.289  13.532  0.00  0.00    +0.043 A 
ATOM      8 CL   LIG    1       37.451  -1.934  12.416  0.00  0.00    -0.083 Cl
ATOM      9  C   LIG    1       38.506  -1.628  14.881  0.00  0.00    +0.043 A 
ENDBRANCH   1   4
BRANCH   1  10
ATOM     10  C   LIG    1       42.370  -0.447  16.782  0.00  0.00    +0.170 A 
ATOM     11  C   LIG    1       42.548  -0.620  18.164  0.00  0.00    +0.160 A 
ATOM     12  C   LIG    1       43.618  -1.383  18.646  0.00  0.00    +0.069 A 
ATOM     13  C   LIG    1       44.484  -2.008  17.755  0.00  0.00    +0.045 A 
ATOM     14 CL   LIG    1       45.803  -2.939  18.352  0.00  0.00    -0.083 Cl
ATOM     15  C   LIG    1       44.289  -1.893  16.381  0.00  0.00    +0.024 A 
ATOM     16  C   LIG    1       43.236  -1.113  15.904  0.00  0.00    +0.051 A 
BRANCH  11  17
ATOM     17  O   LIG    1       41.686  -0.065  19.067  0.00  0.00    -0.503 OA
ATOM     18  H   LIG    1       41.149  -0.769  19.471  0.00  0.00    +0.292 HD
ENDBRANCH  11  17
ENDBRANCH   1  10
TORSDOF 3
ENDMDL
MODEL 8
REMARK VINA RESULT:      -7.7      2.079      2.937
REMARK  Name = 
REMARK                            x       y       z     vdW  Elec       q    Type
REMARK                         _______ _______ _______ _____ _____    ______ ____
ROOT
ATOM      1  O   LIG    1       44.592  -1.395  16.418  0.00  0.00    -0.451 OA
ENDROOT
BRANCH   1   4
ATOM      2 CL   LIG    1       44.532  -1.942  19.504  0.00  0.00    -0.080 Cl
ATOM      3  C   LIG    1       45.616  -2.575  18.317  0.00  0.00    +0.085 A 
ATOM      4  C   LIG    1       45.522  -2.249  16.957  0.00  0.00    +0.147 A 
ATOM      5  C   LIG    1       46.335  -2.909  16.028  0.00  0.00    +0.049 A 
ATOM      6  C   LIG    1       47.289  -3.832  16.457  0.00  0.00    +0.023 A 
ATOM      7  C   LIG    1       47.429  -4.093  17.819  0.00  0.00    +0.043 A 
ATOM      8 CL   LIG    1       48.627  -5.207  18.352  0.00  0.00    -0.083 Cl
ATOM      9  C   LIG    1       46.596  -3.475  18.750  0.00  0.00    +0.043 A 
ENDBRANCH   1   4
BRANCH   1  10
ATOM     10  C   LIG    1       43.243  -1.663  16.499  0.00  0.00    +0.170 A 
ATOM     11  C   LIG    1       42.538  -2.752  15.963  0.00  0.00    +0.160 A 
ATOM     12  C   LIG    1       41.147  -2.825  16.097  0.00  0.00    +0.069 A 
ATOM     13  C   LIG    1       40.463  -1.839  16.802  0.00  0.00    +0.045 A 
ATOM     14 CL   LIG    1       38.751  -1.928  16.959  0.00  0.00    -0.083 Cl
ATOM     15  C   LIG    1       41.154  -0.781  17.387  0.00  0.00    +0.024 A 
ATOM     16  C   LIG    1       42.538  -0.699  17.231  0.00  0.00    +0.051 A 
BRANCH  11  17
ATOM     17  O   LIG    1       43.182  -3.765  15.312  0.00  0.00    -0.503 OA
ATOM     18  H   LIG    1       42.943  -3.743  14.368  0.00  0.00    +0.292 HD
ENDBRANCH  11  17
ENDBRANCH   1  10
TORSDOF 3
ENDMDL
MODEL 9
REMARK VINA RESULT:      -7.6      2.390      6.394
REMARK  Name = 
REMARK                            x       y       z     vdW  Elec       q    Type
REMARK                         _______ _______ _______ _____ _____    ______ ____
ROOT
ATOM      1  O   LIG    1       41.094  -0.895  15.179  0.00  0.00    -0.451 OA
ENDROOT
BRANCH   1   4
ATOM      2 CL   LIG    1       38.826  -1.898  17.097  0.00  0.00    -0.080 Cl
ATOM      3  C   LIG    1       39.042  -0.327  16.410  0.00  0.00    +0.085 A 
ATOM      4  C   LIG    1       40.117  -0.012  15.567  0.00  0.00    +0.147 A 
ATOM      5  C   LIG    1       40.317   1.313  15.164  0.00  0.00    +0.049 A 
ATOM      6  C   LIG    1       39.411   2.306  15.535  0.00  0.00    +0.023 A 
ATOM      7  C   LIG    1       38.301   1.970  16.309  0.00  0.00    +0.043 A 
ATOM      8 CL   LIG    1       37.165   3.189  16.740  0.00  0.00    -0.083 Cl
ATOM      9  C   LIG    1       38.115   0.663  16.754  0.00  0.00    +0.043 A 
ENDBRANCH   1   4
BRANCH   1  10
ATOM     10  C   LIG    1       42.023  -1.374  16.077  0.00  0.00    +0.170 A 
ATOM     11  C   LIG    1       42.395  -2.706  16.319  0.00  0.00    +0.160 A 
ATOM     12  C   LIG    1       43.323  -3.006  17.323  0.00  0.00    +0.069 A 
ATOM     13  C   LIG    1       43.913  -1.981  18.055  0.00  0.00    +0.045 A 
ATOM     14 CL   LIG    1       45.049  -2.355  19.293  0.00  0.00    -0.083 Cl
ATOM     15  C   LIG    1       43.596  -0.651  17.790  0.00  0.00    +0.024 A 
ATOM     16  C   LIG    1       42.653  -0.356  16.805  0.00  0.00    +0.051 A 
BRANCH  11  17
ATOM     17  O   LIG    1       41.877  -3.734  15.584  0.00  0.00    -0.503 OA
ATOM     18  H   LIG    1       40.910  -3.632  15.529  0.00  0.00    +0.292 HD
ENDBRANCH  11  17
ENDBRANCH   1  10
TORSDOF 3
ENDMDL
