MODEL 1
REMARK VINA RESULT:      -7.4      0.000      0.000
REMARK  Name = 
REMARK                            x       y       z     vdW  Elec       q    Type
REMARK                         _______ _______ _______ _____ _____    ______ ____
ROOT
ATOM      1  O   LIG    1       19.591  28.369   9.865  0.00  0.00    -0.451 OA
ENDROOT
BRANCH   1   4
ATOM      2 CL   LIG    1       19.091  30.586  12.024  0.00  0.00    -0.080 Cl
ATOM      3  C   LIG    1       18.083  30.123  10.699  0.00  0.00    +0.085 A 
ATOM      4  C   LIG    1       18.438  29.110   9.798  0.00  0.00    +0.147 A 
ATOM      5  C   LIG    1       17.650  28.885   8.663  0.00  0.00    +0.049 A 
ATOM      6  C   LIG    1       16.474  29.610   8.467  0.00  0.00    +0.023 A 
ATOM      7  C   LIG    1       16.088  30.562   9.409  0.00  0.00    +0.043 A 
ATOM      8 CL   LIG    1       14.622  31.435   9.184  0.00  0.00    -0.083 Cl
ATOM      9  C   LIG    1       16.887  30.827  10.520  0.00  0.00    +0.043 A 
ENDBRANCH   1   4
BRANCH   1  10
ATOM     10  C   LIG    1       20.612  28.551   8.958  0.00  0.00    +0.170 A 
ATOM     11  C   LIG    1       21.412  27.577   8.339  0.00  0.00    +0.160 A 
ATOM     12  C   LIG    1       22.450  27.958   7.482  0.00  0.00    +0.069 A 
ATOM     13  C   LIG    1       22.665  29.305   7.206  0.00  0.00    +0.045 A 
ATOM     14 CL   LIG    1       23.948  29.770   6.157  0.00  0.00    -0.083 Cl
ATOM     15  C   LIG    1       21.846  30.281   7.767  0.00  0.00    +0.024 A 
ATOM     16  C   LIG    1       20.826  29.898   8.640  0.00  0.00    +0.051 A 
BRANCH  11  17
ATOM     17  O   LIG    1       21.196  26.244   8.546  0.00  0.00    -0.503 OA
ATOM     18  H   LIG    1       20.616  26.129   9.319  0.00  0.00    +0.292 HD
ENDBRANCH  11  17
ENDBRANCH   1  10
TORSDOF 3
ENDMDL
MODEL 2
REMARK VINA RESULT:      -7.4      3.524      5.796
REMARK  Name = 
REMARK                            x       y       z     vdW  Elec       q    Type
REMARK                         _______ _______ _______ _____ _____    ______ ____
ROOT
ATOM      1  O   LIG    1       19.657  29.300  10.475  0.00  0.00    -0.451 OA
ENDROOT
BRANCH   1   4
ATOM      2 CL   LIG    1       18.136  27.324  12.375  0.00  0.00    -0.080 Cl
ATOM      3  C   LIG    1       19.423  28.412  12.757  0.00  0.00    +0.085 A 
ATOM      4  C   LIG    1       20.022  29.241  11.797  0.00  0.00    +0.147 A 
ATOM      5  C   LIG    1       21.155  29.988  12.137  0.00  0.00    +0.049 A 
ATOM      6  C   LIG    1       21.644  29.972  13.443  0.00  0.00    +0.023 A 
ATOM      7  C   LIG    1       20.996  29.206  14.410  0.00  0.00    +0.043 A 
ATOM      8 CL   LIG    1       21.579  29.210  16.029  0.00  0.00    -0.083 Cl
ATOM      9  C   LIG    1       19.893  28.422  14.074  0.00  0.00    +0.043 A 
ENDBRANCH   1   4
BRANCH   1  10
ATOM     10  C   LIG    1       18.419  29.773  10.095  0.00  0.00    +0.170 A 
ATOM     11  C   LIG    1       17.546  29.249   9.129  0.00  0.00    +0.160 A 
ATOM     12  C   LIG    1       16.346  29.907   8.835  0.00  0.00    +0.069 A 
ATOM     13  C   LIG    1       15.994  31.058   9.532  0.00  0.00    +0.045 A 
ATOM     14 CL   LIG    1       14.521  31.868   9.162  0.00  0.00    -0.083 Cl
ATOM     15  C   LIG    1       16.823  31.560  10.532  0.00  0.00    +0.024 A 
ATOM     16  C   LIG    1       18.030  30.915  10.806  0.00  0.00    +0.051 A 
BRANCH  11  17
ATOM     17  O   LIG    1       17.833  28.092   8.464  0.00  0.00    -0.503 OA
ATOM     18  H   LIG    1       18.796  27.954   8.461  0.00  0.00    +0.292 HD
ENDBRANCH  11  17
ENDBRANCH   1  10
TORSDOF 3
ENDMDL
MODEL 3
REMARK VINA RESULT:      -7.2      2.006      3.237
REMARK  Name = 
REMARK                            x       y       z     vdW  Elec       q    Type
REMARK                         _______ _______ _______ _____ _____    ______ ____
ROOT
ATOM      1  O   LIG    1       19.342  28.068   9.642  0.00  0.00    -0.451 OA
ENDROOT
BRANCH   1   4
ATOM      2 CL   LIG    1       17.387  30.293  10.670  0.00  0.00    -0.080 Cl
ATOM      3  C   LIG    1       18.499  29.331  11.577  0.00  0.00    +0.085 A 
ATOM      4  C   LIG    1       19.315  28.357  10.983  0.00  0.00    +0.147 A 
ATOM      5  C   LIG    1       20.083  27.511  11.791  0.00  0.00    +0.049 A 
ATOM      6  C   LIG    1       20.101  27.682  13.175  0.00  0.00    +0.023 A 
ATOM      7  C   LIG    1       19.347  28.704  13.751  0.00  0.00    +0.043 A 
ATOM      8 CL   LIG    1       19.392  28.937  15.455  0.00  0.00    -0.083 Cl
ATOM      9  C   LIG    1       18.543  29.524  12.962  0.00  0.00    +0.043 A 
ENDBRANCH   1   4
BRANCH   1  10
ATOM     10  C   LIG    1       20.441  28.369   8.868  0.00  0.00    +0.170 A 
ATOM     11  C   LIG    1       21.400  27.491   8.337  0.00  0.00    +0.160 A 
ATOM     12  C   LIG    1       22.491  27.990   7.618  0.00  0.00    +0.069 A 
ATOM     13  C   LIG    1       22.606  29.358   7.388  0.00  0.00    +0.045 A 
ATOM     14 CL   LIG    1       23.953  29.969   6.508  0.00  0.00    -0.083 Cl
ATOM     15  C   LIG    1       21.635  30.238   7.859  0.00  0.00    +0.024 A 
ATOM     16  C   LIG    1       20.560  29.738   8.596  0.00  0.00    +0.051 A 
BRANCH  11  17
ATOM     17  O   LIG    1       21.291  26.139   8.497  0.00  0.00    -0.503 OA
ATOM     18  H   LIG    1       20.462  25.937   8.967  0.00  0.00    +0.292 HD
ENDBRANCH  11  17
ENDBRANCH   1  10
TORSDOF 3
ENDMDL
MODEL 4
REMARK VINA RESULT:      -7.1      1.662      5.799
REMARK  Name = 
REMARK                            x       y       z     vdW  Elec       q    Type
REMARK                         _______ _______ _______ _____ _____    ______ ____
ROOT
ATOM      1  O   LIG    1       19.645  29.400  10.161  0.00  0.00    -0.451 OA
ENDROOT
BRANCH   1   4
ATOM      2 CL   LIG    1       20.736  26.523   9.560  0.00  0.00    -0.080 Cl
ATOM      3  C   LIG    1       21.202  28.025   8.844  0.00  0.00    +0.085 A 
ATOM      4  C   LIG    1       20.620  29.248   9.206  0.00  0.00    +0.147 A 
ATOM      5  C   LIG    1       20.935  30.406   8.486  0.00  0.00    +0.049 A 
ATOM      6  C   LIG    1       21.881  30.363   7.462  0.00  0.00    +0.023 A 
ATOM      7  C   LIG    1       22.513  29.158   7.160  0.00  0.00    +0.043 A 
ATOM      8 CL   LIG    1       23.704  29.110   5.919  0.00  0.00    -0.083 Cl
ATOM      9  C   LIG    1       22.176  27.989   7.840  0.00  0.00    +0.043 A 
ENDBRANCH   1   4
BRANCH   1  10
ATOM     10  C   LIG    1       18.387  29.856   9.833  0.00  0.00    +0.170 A 
ATOM     11  C   LIG    1       17.459  29.288   8.946  0.00  0.00    +0.160 A 
ATOM     12  C   LIG    1       16.242  29.932   8.693  0.00  0.00    +0.069 A 
ATOM     13  C   LIG    1       15.931  31.116   9.354  0.00  0.00    +0.045 A 
ATOM     14 CL   LIG    1       14.437  31.909   9.034  0.00  0.00    -0.083 Cl
ATOM     15  C   LIG    1       16.816  31.663  10.279  0.00  0.00    +0.024 A 
ATOM     16  C   LIG    1       18.038  31.031  10.511  0.00  0.00    +0.051 A 
BRANCH  11  17
ATOM     17  O   LIG    1       17.708  28.100   8.320  0.00  0.00    -0.503 OA
ATOM     18  H   LIG    1       17.679  27.381   8.975  0.00  0.00    +0.292 HD
ENDBRANCH  11  17
ENDBRANCH   1  10
TORSDOF 3
ENDMDL
MODEL 5
REMARK VINA RESULT:      -7.0      2.816      5.636
REMARK  Name = 
REMARK                            x       y       z     vdW  Elec       q    Type
REMARK                         _______ _______ _______ _____ _____    ______ ____
ROOT
ATOM      1  O   LIG    1       18.388  28.027  10.115  0.00  0.00    -0.451 OA
ENDROOT
BRANCH   1   4
ATOM      2 CL   LIG    1       21.016  29.711   9.825  0.00  0.00    -0.080 Cl
ATOM      3  C   LIG    1       20.334  29.011  11.251  0.00  0.00    +0.085 A 
ATOM      4  C   LIG    1       19.136  28.282  11.237  0.00  0.00    +0.147 A 
ATOM      5  C   LIG    1       18.562  27.870  12.444  0.00  0.00    +0.049 A 
ATOM      6  C   LIG    1       19.213  28.114  13.654  0.00  0.00    +0.023 A 
ATOM      7  C   LIG    1       20.442  28.771  13.652  0.00  0.00    +0.043 A 
ATOM      8 CL   LIG    1       21.261  29.044  15.141  0.00  0.00    -0.083 Cl
ATOM      9  C   LIG    1       21.003  29.226  12.460  0.00  0.00    +0.043 A 
ENDBRANCH   1   4
BRANCH   1  10
ATOM     10  C   LIG    1       17.419  28.907   9.685  0.00  0.00    +0.170 A 
ATOM     11  C   LIG    1       16.467  28.728   8.669  0.00  0.00    +0.160 A 
ATOM     12  C   LIG    1       15.595  29.768   8.330  0.00  0.00    +0.069 A 
ATOM     13  C   LIG    1       15.639  30.970   9.030  0.00  0.00    +0.045 A 
ATOM     14 CL   LIG    1       14.569  32.249   8.605  0.00  0.00    -0.083 Cl
ATOM     15  C   LIG    1       16.540  31.145  10.077  0.00  0.00    +0.024 A 
ATOM     16  C   LIG    1       17.424  30.114  10.397  0.00  0.00    +0.051 A 
BRANCH  11  17
ATOM     17  O   LIG    1       16.359  27.544   7.997  0.00  0.00    -0.503 OA
ATOM     18  H   LIG    1       15.423  27.375   7.794  0.00  0.00    +0.292 HD
ENDBRANCH  11  17
ENDBRANCH   1  10
TORSDOF 3
ENDMDL
MODEL 6
REMARK VINA RESULT:      -6.8      1.798      5.975
REMARK  Name = 
REMARK                            x       y       z     vdW  Elec       q    Type
REMARK                         _______ _______ _______ _____ _____    ______ ____
ROOT
ATOM      1  O   LIG    1       19.554  29.902  10.766  0.00  0.00    -0.451 OA
ENDROOT
BRANCH   1   4
ATOM      2 CL   LIG    1       20.098  26.816  10.835  0.00  0.00    -0.080 Cl
ATOM      3  C   LIG    1       20.716  27.996   9.734  0.00  0.00    +0.085 A 
ATOM      4  C   LIG    1       20.379  29.354   9.816  0.00  0.00    +0.147 A 
ATOM      5  C   LIG    1       20.793  30.232   8.807  0.00  0.00    +0.049 A 
ATOM      6  C   LIG    1       21.601  29.778   7.765  0.00  0.00    +0.023 A 
ATOM      7  C   LIG    1       21.995  28.441   7.734  0.00  0.00    +0.043 A 
ATOM      8 CL   LIG    1       23.018  27.886   6.467  0.00  0.00    -0.083 Cl
ATOM      9  C   LIG    1       21.553  27.547   8.708  0.00  0.00    +0.043 A 
ENDBRANCH   1   4
BRANCH   1  10
ATOM     10  C   LIG    1       18.338  30.454  10.425  0.00  0.00    +0.170 A 
ATOM     11  C   LIG    1       17.571  31.385  11.144  0.00  0.00    +0.160 A 
ATOM     12  C   LIG    1       16.321  31.788  10.663  0.00  0.00    +0.069 A 
ATOM     13  C   LIG    1       15.852  31.301   9.447  0.00  0.00    +0.045 A 
ATOM     14 CL   LIG    1       14.311  31.795   8.862  0.00  0.00    -0.083 Cl
ATOM     15  C   LIG    1       16.624  30.420   8.694  0.00  0.00    +0.024 A 
ATOM     16  C   LIG    1       17.860  30.001   9.188  0.00  0.00    +0.051 A 
BRANCH  11  17
ATOM     17  O   LIG    1       18.023  31.925  12.314  0.00  0.00    -0.503 OA
ATOM     18  H   LIG    1       18.195  31.209  12.952  0.00  0.00    +0.292 HD
ENDBRANCH  11  17
ENDBRANCH   1  10
TORSDOF 3
ENDMDL
MODEL 7
REMARK VINA RESULT:      -6.7      3.641      5.109
REMARK  Name = 
REMARK                            x       y       z     vdW  Elec       q    Type
REMARK                         _______ _______ _______ _____ _____    ______ ____
ROOT
ATOM      1  O   LIG    1       19.190  30.259  10.908  0.00  0.00    -0.451 OA
ENDROOT
BRANCH   1   4
ATOM      2 CL   LIG    1       18.073  28.553   8.527  0.00  0.00    -0.080 Cl
ATOM      3  C   LIG    1       17.397  29.970   9.250  0.00  0.00    +0.085 A 
ATOM      4  C   LIG    1       18.006  30.634  10.325  0.00  0.00    +0.147 A 
ATOM      5  C   LIG    1       17.335  31.685  10.960  0.00  0.00    +0.049 A 
ATOM      6  C   LIG    1       16.101  32.125  10.480  0.00  0.00    +0.023 A 
ATOM      7  C   LIG    1       15.539  31.510   9.362  0.00  0.00    +0.043 A 
ATOM      8 CL   LIG    1       14.032  32.072   8.750  0.00  0.00    -0.083 Cl
ATOM      9  C   LIG    1       16.177  30.433   8.748  0.00  0.00    +0.043 A 
ENDBRANCH   1   4
BRANCH   1  10
ATOM     10  C   LIG    1       19.228  29.749  12.188  0.00  0.00    +0.170 A 
ATOM     11  C   LIG    1       18.754  28.510  12.646  0.00  0.00    +0.160 A 
ATOM     12  C   LIG    1       18.826  28.188  14.006  0.00  0.00    +0.069 A 
ATOM     13  C   LIG    1       19.409  29.078  14.903  0.00  0.00    +0.045 A 
ATOM     14 CL   LIG    1       19.490  28.681  16.575  0.00  0.00    -0.083 Cl
ATOM     15  C   LIG    1       19.934  30.288  14.456  0.00  0.00    +0.024 A 
ATOM     16  C   LIG    1       19.839  30.616  13.103  0.00  0.00    +0.051 A 
BRANCH  11  17
ATOM     17  O   LIG    1       18.225  27.589  11.787  0.00  0.00    -0.503 OA
ATOM     18  H   LIG    1       18.944  27.058  11.404  0.00  0.00    +0.292 HD
ENDBRANCH  11  17
ENDBRANCH   1  10
TORSDOF 3
ENDMDL
MODEL 8
REMARK VINA RESULT:      -6.7      1.416      1.987
REMARK  Name = 
REMARK                            x       y       z     vdW  Elec       q    Type
REMARK                         _______ _______ _______ _____ _____    ______ ____
ROOT
ATOM      1  O   LIG    1       20.032  28.379  10.106  0.00  0.00    -0.451 OA
ENDROOT
BRANCH   1   4
ATOM      2 CL   LIG    1       17.441  28.368   8.342  0.00  0.00    -0.080 Cl
ATOM      3  C   LIG    1       17.859  29.430   9.639  0.00  0.00    +0.085 A 
ATOM      4  C   LIG    1       19.059  29.315  10.354  0.00  0.00    +0.147 A 
ATOM      5  C   LIG    1       19.270  30.109  11.486  0.00  0.00    +0.049 A 
ATOM      6  C   LIG    1       18.328  31.067  11.861  0.00  0.00    +0.023 A 
ATOM      7  C   LIG    1       17.172  31.229  11.098  0.00  0.00    +0.043 A 
ATOM      8 CL   LIG    1       16.024  32.432  11.541  0.00  0.00    -0.083 Cl
ATOM      9  C   LIG    1       16.930  30.413   9.994  0.00  0.00    +0.043 A 
ENDBRANCH   1   4
BRANCH   1  10
ATOM     10  C   LIG    1       20.893  28.508   9.038  0.00  0.00    +0.170 A 
ATOM     11  C   LIG    1       21.540  27.495   8.312  0.00  0.00    +0.160 A 
ATOM     12  C   LIG    1       22.434  27.824   7.287  0.00  0.00    +0.069 A 
ATOM     13  C   LIG    1       22.652  29.157   6.955  0.00  0.00    +0.045 A 
ATOM     14 CL   LIG    1       23.758  29.558   5.699  0.00  0.00    -0.083 Cl
ATOM     15  C   LIG    1       21.977  30.173   7.628  0.00  0.00    +0.024 A 
ATOM     16  C   LIG    1       21.104  29.842   8.664  0.00  0.00    +0.051 A 
BRANCH  11  17
ATOM     17  O   LIG    1       21.310  26.175   8.575  0.00  0.00    -0.503 OA
ATOM     18  H   LIG    1       21.858  25.899   9.331  0.00  0.00    +0.292 HD
ENDBRANCH  11  17
ENDBRANCH   1  10
TORSDOF 3
ENDMDL
MODEL 9
REMARK VINA RESULT:      -6.7      1.722      2.206
REMARK  Name = 
REMARK                            x       y       z     vdW  Elec       q    Type
REMARK                         _______ _______ _______ _____ _____    ______ ____
ROOT
ATOM      1  O   LIG    1       19.061  29.739  10.853  0.00  0.00    -0.451 OA
ENDROOT
BRANCH   1   4
ATOM      2 CL   LIG    1       17.335  27.961   8.934  0.00  0.00    -0.080 Cl
ATOM      3  C   LIG    1       17.047  29.585   9.451  0.00  0.00    +0.085 A 
ATOM      4  C   LIG    1       17.906  30.263  10.327  0.00  0.00    +0.147 A 
ATOM      5  C   LIG    1       17.540  31.519  10.823  0.00  0.00    +0.049 A 
ATOM      6  C   LIG    1       16.364  32.132  10.391  0.00  0.00    +0.023 A 
ATOM      7  C   LIG    1       15.553  31.484   9.460  0.00  0.00    +0.043 A 
ATOM      8 CL   LIG    1       14.118  32.252   8.902  0.00  0.00    -0.083 Cl
ATOM      9  C   LIG    1       15.884  30.213   8.992  0.00  0.00    +0.043 A 
ENDBRANCH   1   4
BRANCH   1  10
ATOM     10  C   LIG    1       20.005  29.138  10.050  0.00  0.00    +0.170 A 
ATOM     11  C   LIG    1       20.519  27.835  10.134  0.00  0.00    +0.160 A 
ATOM     12  C   LIG    1       21.527  27.417   9.258  0.00  0.00    +0.069 A 
ATOM     13  C   LIG    1       21.993  28.279   8.271  0.00  0.00    +0.045 A 
ATOM     14 CL   LIG    1       23.238  27.764   7.200  0.00  0.00    -0.083 Cl
ATOM     15  C   LIG    1       21.456  29.557   8.138  0.00  0.00    +0.024 A 
ATOM     16  C   LIG    1       20.467  29.979   9.028  0.00  0.00    +0.051 A 
BRANCH  11  17
ATOM     17  O   LIG    1       20.048  26.943  11.056  0.00  0.00    -0.503 OA
ATOM     18  H   LIG    1       19.985  27.382  11.923  0.00  0.00    +0.292 HD
ENDBRANCH  11  17
ENDBRANCH   1  10
TORSDOF 3
ENDMDL
