MODEL 1
REMARK VINA RESULT:      -7.7      0.000      0.000
REMARK  Name = 
REMARK                            x       y       z     vdW  Elec       q    Type
REMARK                         _______ _______ _______ _____ _____    ______ ____
ROOT
ATOM      1  O   LIG    1       29.519   0.648  26.384  0.00  0.00    -0.451 OA
ENDROOT
BRANCH   1   4
ATOM      2 CL   LIG    1       32.078  -0.349  24.871  0.00  0.00    -0.080 Cl
ATOM      3  C   LIG    1       31.963   0.371  26.438  0.00  0.00    +0.085 A 
ATOM      4  C   LIG    1       30.742   0.781  26.993  0.00  0.00    +0.147 A 
ATOM      5  C   LIG    1       30.733   1.491  28.199  0.00  0.00    +0.049 A 
ATOM      6  C   LIG    1       31.924   1.725  28.888  0.00  0.00    +0.023 A 
ATOM      7  C   LIG    1       33.125   1.246  28.367  0.00  0.00    +0.043 A 
ATOM      8 CL   LIG    1       34.590   1.506  29.231  0.00  0.00    -0.083 Cl
ATOM      9  C   LIG    1       33.152   0.577  27.145  0.00  0.00    +0.043 A 
ENDBRANCH   1   4
BRANCH   1  10
ATOM     10  C   LIG    1       28.569  -0.223  26.871  0.00  0.00    +0.170 A 
ATOM     11  C   LIG    1       27.301   0.075  27.395  0.00  0.00    +0.160 A 
ATOM     12  C   LIG    1       26.490  -0.947  27.901  0.00  0.00    +0.069 A 
ATOM     13  C   LIG    1       26.921  -2.269  27.847  0.00  0.00    +0.045 A 
ATOM     14 CL   LIG    1       25.924  -3.522  28.477  0.00  0.00    -0.083 Cl
ATOM     15  C   LIG    1       28.153  -2.588  27.280  0.00  0.00    +0.024 A 
ATOM     16  C   LIG    1       28.968  -1.564  26.797  0.00  0.00    +0.051 A 
BRANCH  11  17
ATOM     17  O   LIG    1       26.823   1.354  27.415  0.00  0.00    -0.503 OA
ATOM     18  H   LIG    1       27.290   1.881  26.743  0.00  0.00    +0.292 HD
ENDBRANCH  11  17
ENDBRANCH   1  10
TORSDOF 3
ENDMDL
MODEL 2
REMARK VINA RESULT:      -7.3      1.758      6.143
REMARK  Name = 
REMARK                            x       y       z     vdW  Elec       q    Type
REMARK                         _______ _______ _______ _____ _____    ______ ____
ROOT
ATOM      1  O   LIG    1       30.256  -0.139  26.352  0.00  0.00    -0.451 OA
ENDROOT
BRANCH   1   4
ATOM      2 CL   LIG    1       27.620   1.376  27.116  0.00  0.00    -0.080 Cl
ATOM      3  C   LIG    1       27.989  -0.303  27.292  0.00  0.00    +0.085 A 
ATOM      4  C   LIG    1       29.217  -0.852  26.897  0.00  0.00    +0.147 A 
ATOM      5  C   LIG    1       29.397  -2.239  26.929  0.00  0.00    +0.049 A 
ATOM      6  C   LIG    1       28.392  -3.070  27.423  0.00  0.00    +0.023 A 
ATOM      7  C   LIG    1       27.203  -2.508  27.887  0.00  0.00    +0.043 A 
ATOM      8 CL   LIG    1       25.974  -3.529  28.527  0.00  0.00    -0.083 Cl
ATOM      9  C   LIG    1       26.994  -1.132  27.819  0.00  0.00    +0.043 A 
ENDBRANCH   1   4
BRANCH   1  10
ATOM     10  C   LIG    1       31.398   0.127  27.075  0.00  0.00    +0.170 A 
ATOM     11  C   LIG    1       32.644  -0.515  27.003  0.00  0.00    +0.160 A 
ATOM     12  C   LIG    1       33.680  -0.143  27.867  0.00  0.00    +0.069 A 
ATOM     13  C   LIG    1       33.491   0.896  28.773  0.00  0.00    +0.045 A 
ATOM     14 CL   LIG    1       34.764   1.346  29.840  0.00  0.00    -0.083 Cl
ATOM     15  C   LIG    1       32.279   1.581  28.820  0.00  0.00    +0.024 A 
ATOM     16  C   LIG    1       31.241   1.191  27.973  0.00  0.00    +0.051 A 
BRANCH  11  17
ATOM     17  O   LIG    1       32.883  -1.503  26.090  0.00  0.00    -0.503 OA
ATOM     18  H   LIG    1       33.165  -2.309  26.557  0.00  0.00    +0.292 HD
ENDBRANCH  11  17
ENDBRANCH   1  10
TORSDOF 3
ENDMDL
MODEL 3
REMARK VINA RESULT:      -7.3      1.618      2.524
REMARK  Name = 
REMARK                            x       y       z     vdW  Elec       q    Type
REMARK                         _______ _______ _______ _____ _____    ______ ____
ROOT
ATOM      1  O   LIG    1       29.685  -0.025  25.969  0.00  0.00    -0.451 OA
ENDROOT
BRANCH   1   4
ATOM      2 CL   LIG    1       29.343   1.559  28.652  0.00  0.00    -0.080 Cl
ATOM      3  C   LIG    1       30.790   1.247  27.761  0.00  0.00    +0.085 A 
ATOM      4  C   LIG    1       30.798   0.510  26.569  0.00  0.00    +0.147 A 
ATOM      5  C   LIG    1       32.018   0.166  25.975  0.00  0.00    +0.049 A 
ATOM      6  C   LIG    1       33.220   0.618  26.522  0.00  0.00    +0.023 A 
ATOM      7  C   LIG    1       33.198   1.416  27.664  0.00  0.00    +0.043 A 
ATOM      8 CL   LIG    1       34.677   2.000  28.321  0.00  0.00    -0.083 Cl
ATOM      9  C   LIG    1       31.992   1.728  28.290  0.00  0.00    +0.043 A 
ENDBRANCH   1   4
BRANCH   1  10
ATOM     10  C   LIG    1       28.907  -0.962  26.613  0.00  0.00    +0.170 A 
ATOM     11  C   LIG    1       29.272  -2.245  27.052  0.00  0.00    +0.160 A 
ATOM     12  C   LIG    1       28.320  -3.086  27.638  0.00  0.00    +0.069 A 
ATOM     13  C   LIG    1       27.017  -2.637  27.828  0.00  0.00    +0.045 A 
ATOM     14 CL   LIG    1       25.847  -3.678  28.543  0.00  0.00    -0.083 Cl
ATOM     15  C   LIG    1       26.652  -1.348  27.449  0.00  0.00    +0.024 A 
ATOM     16  C   LIG    1       27.598  -0.520  26.843  0.00  0.00    +0.051 A 
BRANCH  11  17
ATOM     17  O   LIG    1       30.555  -2.699  26.930  0.00  0.00    -0.503 OA
ATOM     18  H   LIG    1       30.881  -2.501  26.034  0.00  0.00    +0.292 HD
ENDBRANCH  11  17
ENDBRANCH   1  10
TORSDOF 3
ENDMDL
MODEL 4
REMARK VINA RESULT:      -7.3      1.221      5.734
REMARK  Name = 
REMARK                            x       y       z     vdW  Elec       q    Type
REMARK                         _______ _______ _______ _____ _____    ______ ____
ROOT
ATOM      1  O   LIG    1       29.689   0.279  26.141  0.00  0.00    -0.451 OA
ENDROOT
BRANCH   1   4
ATOM      2 CL   LIG    1       30.936  -2.504  26.867  0.00  0.00    -0.080 Cl
ATOM      3  C   LIG    1       29.297  -1.980  27.032  0.00  0.00    +0.085 A 
ATOM      4  C   LIG    1       28.876  -0.692  26.672  0.00  0.00    +0.147 A 
ATOM      5  C   LIG    1       27.572  -0.281  26.968  0.00  0.00    +0.049 A 
ATOM      6  C   LIG    1       26.668  -1.171  27.548  0.00  0.00    +0.023 A 
ATOM      7  C   LIG    1       27.072  -2.475  27.832  0.00  0.00    +0.043 A 
ATOM      8 CL   LIG    1       25.949  -3.582  28.519  0.00  0.00    -0.083 Cl
ATOM      9  C   LIG    1       28.382  -2.882  27.583  0.00  0.00    +0.043 A 
ENDBRANCH   1   4
BRANCH   1  10
ATOM     10  C   LIG    1       30.810   0.718  26.811  0.00  0.00    +0.170 A 
ATOM     11  C   LIG    1       30.902   1.227  28.116  0.00  0.00    +0.160 A 
ATOM     12  C   LIG    1       32.130   1.683  28.609  0.00  0.00    +0.069 A 
ATOM     13  C   LIG    1       33.273   1.593  27.821  0.00  0.00    +0.045 A 
ATOM     14 CL   LIG    1       34.780   2.161  28.429  0.00  0.00    -0.083 Cl
ATOM     15  C   LIG    1       33.210   1.039  26.545  0.00  0.00    +0.024 A 
ATOM     16  C   LIG    1       31.980   0.607  26.048  0.00  0.00    +0.051 A 
BRANCH  11  17
ATOM     17  O   LIG    1       29.811   1.282  28.936  0.00  0.00    -0.503 OA
ATOM     18  H   LIG    1       29.989   1.902  29.665  0.00  0.00    +0.292 HD
ENDBRANCH  11  17
ENDBRANCH   1  10
TORSDOF 3
ENDMDL
MODEL 5
REMARK VINA RESULT:      -7.2      2.275      2.613
REMARK  Name = 
REMARK                            x       y       z     vdW  Elec       q    Type
REMARK                         _______ _______ _______ _____ _____    ______ ____
ROOT
ATOM      1  O   LIG    1       30.652  -2.589  27.369  0.00  0.00    -0.451 OA
ENDROOT
BRANCH   1   4
ATOM      2 CL   LIG    1       32.892  -1.474  25.480  0.00  0.00    -0.080 Cl
ATOM      3  C   LIG    1       32.632  -1.146  27.157  0.00  0.00    +0.085 A 
ATOM      4  C   LIG    1       31.575  -1.713  27.883  0.00  0.00    +0.147 A 
ATOM      5  C   LIG    1       31.332  -1.293  29.195  0.00  0.00    +0.049 A 
ATOM      6  C   LIG    1       32.181  -0.371  29.809  0.00  0.00    +0.023 A 
ATOM      7  C   LIG    1       33.276   0.129  29.105  0.00  0.00    +0.043 A 
ATOM      8 CL   LIG    1       34.342   1.241  29.872  0.00  0.00    -0.083 Cl
ATOM      9  C   LIG    1       33.503  -0.248  27.783  0.00  0.00    +0.043 A 
ENDBRANCH   1   4
BRANCH   1  10
ATOM     10  C   LIG    1       29.324  -2.242  27.253  0.00  0.00    +0.170 A 
ATOM     11  C   LIG    1       28.194  -2.977  27.645  0.00  0.00    +0.160 A 
ATOM     12  C   LIG    1       26.909  -2.484  27.389  0.00  0.00    +0.069 A 
ATOM     13  C   LIG    1       26.749  -1.241  26.784  0.00  0.00    +0.045 A 
ATOM     14 CL   LIG    1       25.167  -0.641  26.465  0.00  0.00    -0.083 Cl
ATOM     15  C   LIG    1       27.859  -0.474  26.439  0.00  0.00    +0.024 A 
ATOM     16  C   LIG    1       29.138  -0.980  26.674  0.00  0.00    +0.051 A 
BRANCH  11  17
ATOM     17  O   LIG    1       28.314  -4.176  28.289  0.00  0.00    -0.503 OA
ATOM     18  H   LIG    1       28.569  -4.861  27.646  0.00  0.00    +0.292 HD
ENDBRANCH  11  17
ENDBRANCH   1  10
TORSDOF 3
ENDMDL
MODEL 6
REMARK VINA RESULT:      -7.2      2.249      2.700
REMARK  Name = 
REMARK                            x       y       z     vdW  Elec       q    Type
REMARK                         _______ _______ _______ _____ _____    ______ ____
ROOT
ATOM      1  O   LIG    1       31.220  -0.800  25.837  0.00  0.00    -0.451 OA
ENDROOT
BRANCH   1   4
ATOM      2 CL   LIG    1       32.733  -2.024  28.294  0.00  0.00    -0.080 Cl
ATOM      3  C   LIG    1       32.953  -0.479  27.553  0.00  0.00    +0.085 A 
ATOM      4  C   LIG    1       32.205  -0.060  26.444  0.00  0.00    +0.147 A 
ATOM      5  C   LIG    1       32.532   1.139  25.800  0.00  0.00    +0.049 A 
ATOM      6  C   LIG    1       33.546   1.955  26.303  0.00  0.00    +0.023 A 
ATOM      7  C   LIG    1       34.233   1.568  27.453  0.00  0.00    +0.043 A 
ATOM      8 CL   LIG    1       35.462   2.588  28.092  0.00  0.00    -0.083 Cl
ATOM      9  C   LIG    1       33.946   0.355  28.076  0.00  0.00    +0.043 A 
ENDBRANCH   1   4
BRANCH   1  10
ATOM     10  C   LIG    1       29.933  -0.817  26.328  0.00  0.00    +0.170 A 
ATOM     11  C   LIG    1       29.231  -1.892  26.894  0.00  0.00    +0.160 A 
ATOM     12  C   LIG    1       27.897  -1.734  27.286  0.00  0.00    +0.069 A 
ATOM     13  C   LIG    1       27.275  -0.497  27.156  0.00  0.00    +0.045 A 
ATOM     14 CL   LIG    1       25.632  -0.308  27.633  0.00  0.00    -0.083 Cl
ATOM     15  C   LIG    1       27.974   0.596  26.648  0.00  0.00    +0.024 A 
ATOM     16  C   LIG    1       29.297   0.428  26.236  0.00  0.00    +0.051 A 
BRANCH  11  17
ATOM     17  O   LIG    1       29.825  -3.107  27.086  0.00  0.00    -0.503 OA
ATOM     18  H   LIG    1       30.170  -3.155  27.995  0.00  0.00    +0.292 HD
ENDBRANCH  11  17
ENDBRANCH   1  10
TORSDOF 3
ENDMDL
MODEL 7
REMARK VINA RESULT:      -7.1      1.134      5.845
REMARK  Name = 
REMARK                            x       y       z     vdW  Elec       q    Type
REMARK                         _______ _______ _______ _____ _____    ______ ____
ROOT
ATOM      1  O   LIG    1       29.667   0.392  26.507  0.00  0.00    -0.451 OA
ENDROOT
BRANCH   1   4
ATOM      2 CL   LIG    1       30.801  -2.525  26.677  0.00  0.00    -0.080 Cl
ATOM      3  C   LIG    1       29.211  -1.962  27.052  0.00  0.00    +0.085 A 
ATOM      4  C   LIG    1       28.840  -0.615  26.937  0.00  0.00    +0.147 A 
ATOM      5  C   LIG    1       27.585  -0.201  27.398  0.00  0.00    +0.049 A 
ATOM      6  C   LIG    1       26.675  -1.132  27.897  0.00  0.00    +0.023 A 
ATOM      7  C   LIG    1       27.024  -2.481  27.936  0.00  0.00    +0.043 A 
ATOM      8 CL   LIG    1       25.890  -3.636  28.522  0.00  0.00    -0.083 Cl
ATOM      9  C   LIG    1       28.287  -2.901  27.522  0.00  0.00    +0.043 A 
ENDBRANCH   1   4
BRANCH   1  10
ATOM     10  C   LIG    1       30.873   0.641  27.125  0.00  0.00    +0.170 A 
ATOM     11  C   LIG    1       32.164   0.568  26.577  0.00  0.00    +0.160 A 
ATOM     12  C   LIG    1       33.285   0.799  27.382  0.00  0.00    +0.069 A 
ATOM     13  C   LIG    1       33.121   1.146  28.720  0.00  0.00    +0.045 A 
ATOM     14 CL   LIG    1       34.502   1.423  29.709  0.00  0.00    -0.083 Cl
ATOM     15  C   LIG    1       31.846   1.277  29.265  0.00  0.00    +0.024 A 
ATOM     16  C   LIG    1       30.732   1.022  28.465  0.00  0.00    +0.051 A 
BRANCH  11  17
ATOM     17  O   LIG    1       32.360   0.283  25.256  0.00  0.00    -0.503 OA
ATOM     18  H   LIG    1       31.978  -0.590  25.056  0.00  0.00    +0.292 HD
ENDBRANCH  11  17
ENDBRANCH   1  10
TORSDOF 3
ENDMDL
MODEL 8
REMARK VINA RESULT:      -6.9      2.128      2.660
REMARK  Name = 
REMARK                            x       y       z     vdW  Elec       q    Type
REMARK                         _______ _______ _______ _____ _____    ______ ____
ROOT
ATOM      1  O   LIG    1       30.820  -1.361  28.515  0.00  0.00    -0.451 OA
ENDROOT
BRANCH   1   4
ATOM      2 CL   LIG    1       32.083  -0.278  31.171  0.00  0.00    -0.080 Cl
ATOM      3  C   LIG    1       32.482   0.134  29.541  0.00  0.00    +0.085 A 
ATOM      4  C   LIG    1       31.835  -0.439  28.437  0.00  0.00    +0.147 A 
ATOM      5  C   LIG    1       32.303  -0.175  27.146  0.00  0.00    +0.049 A 
ATOM      6  C   LIG    1       33.360   0.715  26.948  0.00  0.00    +0.023 A 
ATOM      7  C   LIG    1       33.947   1.340  28.046  0.00  0.00    +0.043 A 
ATOM      8 CL   LIG    1       35.228   2.461  27.801  0.00  0.00    -0.083 Cl
ATOM      9  C   LIG    1       33.518   1.051  29.341  0.00  0.00    +0.043 A 
ENDBRANCH   1   4
BRANCH   1  10
ATOM     10  C   LIG    1       29.558  -1.076  28.041  0.00  0.00    +0.170 A 
ATOM     11  C   LIG    1       28.799   0.089  28.229  0.00  0.00    +0.160 A 
ATOM     12  C   LIG    1       27.499   0.174  27.717  0.00  0.00    +0.069 A 
ATOM     13  C   LIG    1       26.971  -0.882  26.982  0.00  0.00    +0.045 A 
ATOM     14 CL   LIG    1       25.369  -0.777  26.359  0.00  0.00    -0.083 Cl
ATOM     15  C   LIG    1       27.731  -2.024  26.738  0.00  0.00    +0.024 A 
ATOM     16  C   LIG    1       29.017  -2.114  27.270  0.00  0.00    +0.051 A 
BRANCH  11  17
ATOM     17  O   LIG    1       29.305   1.166  28.900  0.00  0.00    -0.503 OA
ATOM     18  H   LIG    1       28.571   1.734  29.194  0.00  0.00    +0.292 HD
ENDBRANCH  11  17
ENDBRANCH   1  10
TORSDOF 3
ENDMDL
MODEL 9
REMARK VINA RESULT:      -6.9      2.520      6.216
REMARK  Name = 
REMARK                            x       y       z     vdW  Elec       q    Type
REMARK                         _______ _______ _______ _____ _____    ______ ____
ROOT
ATOM      1  O   LIG    1       30.481  -2.588  27.568  0.00  0.00    -0.451 OA
ENDROOT
BRANCH   1   4
ATOM      2 CL   LIG    1       28.132  -4.329  28.700  0.00  0.00    -0.080 Cl
ATOM      3  C   LIG    1       28.046  -2.878  27.765  0.00  0.00    +0.085 A 
ATOM      4  C   LIG    1       29.189  -2.192  27.328  0.00  0.00    +0.147 A 
ATOM      5  C   LIG    1       29.052  -0.947  26.705  0.00  0.00    +0.049 A 
ATOM      6  C   LIG    1       27.785  -0.423  26.447  0.00  0.00    +0.023 A 
ATOM      7  C   LIG    1       26.654  -1.148  26.815  0.00  0.00    +0.043 A 
ATOM      8 CL   LIG    1       25.090  -0.517  26.470  0.00  0.00    -0.083 Cl
ATOM      9  C   LIG    1       26.776  -2.369  27.477  0.00  0.00    +0.043 A 
ENDBRANCH   1   4
BRANCH   1  10
ATOM     10  C   LIG    1       31.452  -1.680  27.930  0.00  0.00    +0.170 A 
ATOM     11  C   LIG    1       32.538  -1.217  27.170  0.00  0.00    +0.160 A 
ATOM     12  C   LIG    1       33.463  -0.331  27.733  0.00  0.00    +0.069 A 
ATOM     13  C   LIG    1       33.285   0.129  29.034  0.00  0.00    +0.045 A 
ATOM     14 CL   LIG    1       34.430   1.213  29.724  0.00  0.00    -0.083 Cl
ATOM     15  C   LIG    1       32.183  -0.277  29.782  0.00  0.00    +0.024 A 
ATOM     16  C   LIG    1       31.275  -1.179  29.226  0.00  0.00    +0.051 A 
BRANCH  11  17
ATOM     17  O   LIG    1       32.715  -1.605  25.873  0.00  0.00    -0.503 OA
ATOM     18  H   LIG    1       32.926  -2.555  25.848  0.00  0.00    +0.292 HD
ENDBRANCH  11  17
ENDBRANCH   1  10
TORSDOF 3
ENDMDL
