MODEL 1
REMARK VINA RESULT:      -7.5      0.000      0.000
REMARK  Name = 
REMARK                            x       y       z     vdW  Elec       q    Type
REMARK                         _______ _______ _______ _____ _____    ______ ____
ROOT
ATOM      1  O   LIG    1       69.640  47.982  97.495  0.00  0.00    -0.451 OA
ENDROOT
BRANCH   1   4
ATOM      2 CL   LIG    1       68.217  49.541  99.812  0.00  0.00    -0.080 Cl
ATOM      3  C   LIG    1       67.964  47.912  99.293  0.00  0.00    +0.085 A 
ATOM      4  C   LIG    1       68.672  47.341  98.226  0.00  0.00    +0.147 A 
ATOM      5  C   LIG    1       68.316  46.070  97.761  0.00  0.00    +0.049 A 
ATOM      6  C   LIG    1       67.314  45.340  98.401  0.00  0.00    +0.023 A 
ATOM      7  C   LIG    1       66.668  45.885  99.510  0.00  0.00    +0.043 A 
ATOM      8 CL   LIG    1       65.455  44.973 100.319  0.00  0.00    -0.083 Cl
ATOM      9  C   LIG    1       66.983  47.167  99.955  0.00  0.00    +0.043 A 
ENDBRANCH   1   4
BRANCH   1  10
ATOM     10  C   LIG    1       69.432  48.323  96.176  0.00  0.00    +0.170 A 
ATOM     11  C   LIG    1       68.552  49.284  95.653  0.00  0.00    +0.160 A 
ATOM     12  C   LIG    1       68.433  49.450  94.268  0.00  0.00    +0.069 A 
ATOM     13  C   LIG    1       69.219  48.692  93.406  0.00  0.00    +0.045 A 
ATOM     14 CL   LIG    1       69.064  48.894  91.704  0.00  0.00    -0.083 Cl
ATOM     15  C   LIG    1       70.137  47.774  93.910  0.00  0.00    +0.024 A 
ATOM     16  C   LIG    1       70.236  47.594  95.290  0.00  0.00    +0.051 A 
BRANCH  11  17
ATOM     17  O   LIG    1       67.804  50.083  96.470  0.00  0.00    -0.503 OA
ATOM     18  H   LIG    1       67.746  49.674  97.352  0.00  0.00    +0.292 HD
ENDBRANCH  11  17
ENDBRANCH   1  10
TORSDOF 3
ENDMDL
MODEL 2
REMARK VINA RESULT:      -7.5      1.200      1.794
REMARK  Name = 
REMARK                            x       y       z     vdW  Elec       q    Type
REMARK                         _______ _______ _______ _____ _____    ______ ____
ROOT
ATOM      1  O   LIG    1       67.339  49.127  96.896  0.00  0.00    -0.451 OA
ENDROOT
BRANCH   1   4
ATOM      2 CL   LIG    1       68.802  50.009  99.525  0.00  0.00    -0.080 Cl
ATOM      3  C   LIG    1       68.065  48.489  99.158  0.00  0.00    +0.085 A 
ATOM      4  C   LIG    1       67.433  48.233  97.933  0.00  0.00    +0.147 A 
ATOM      5  C   LIG    1       66.728  47.037  97.755  0.00  0.00    +0.049 A 
ATOM      6  C   LIG    1       66.717  46.069  98.759  0.00  0.00    +0.023 A 
ATOM      7  C   LIG    1       67.414  46.300  99.944  0.00  0.00    +0.043 A 
ATOM      8 CL   LIG    1       67.427  45.093 101.171  0.00  0.00    -0.083 Cl
ATOM      9  C   LIG    1       68.082  47.505 100.151  0.00  0.00    +0.043 A 
ENDBRANCH   1   4
BRANCH   1  10
ATOM     10  C   LIG    1       68.036  48.938  95.723  0.00  0.00    +0.170 A 
ATOM     11  C   LIG    1       69.424  48.839  95.539  0.00  0.00    +0.160 A 
ATOM     12  C   LIG    1       69.957  48.706  94.252  0.00  0.00    +0.069 A 
ATOM     13  C   LIG    1       69.109  48.627  93.153  0.00  0.00    +0.045 A 
ATOM     14 CL   LIG    1       69.768  48.470  91.570  0.00  0.00    -0.083 Cl
ATOM     15  C   LIG    1       67.727  48.668  93.321  0.00  0.00    +0.024 A 
ATOM     16  C   LIG    1       67.200  48.824  94.604  0.00  0.00    +0.051 A 
BRANCH  11  17
ATOM     17  O   LIG    1       70.284  48.859  96.600  0.00  0.00    -0.503 OA
ATOM     18  H   LIG    1       70.175  49.695  97.086  0.00  0.00    +0.292 HD
ENDBRANCH  11  17
ENDBRANCH   1  10
TORSDOF 3
ENDMDL
MODEL 3
REMARK VINA RESULT:      -7.4      1.753      5.950
REMARK  Name = 
REMARK                            x       y       z     vdW  Elec       q    Type
REMARK                         _______ _______ _______ _____ _____    ______ ____
ROOT
ATOM      1  O   LIG    1       68.205  49.064  97.098  0.00  0.00    -0.451 OA
ENDROOT
BRANCH   1   4
ATOM      2 CL   LIG    1       65.986  49.672  94.970  0.00  0.00    -0.080 Cl
ATOM      3  C   LIG    1       67.611  49.144  94.713  0.00  0.00    +0.085 A 
ATOM      4  C   LIG    1       68.507  48.916  95.767  0.00  0.00    +0.147 A 
ATOM      5  C   LIG    1       69.849  48.634  95.487  0.00  0.00    +0.049 A 
ATOM      6  C   LIG    1       70.280  48.503  94.167  0.00  0.00    +0.023 A 
ATOM      7  C   LIG    1       69.365  48.654  93.127  0.00  0.00    +0.043 A 
ATOM      8 CL   LIG    1       69.890  48.461  91.499  0.00  0.00    -0.083 Cl
ATOM      9  C   LIG    1       68.036  48.979  93.391  0.00  0.00    +0.043 A 
ENDBRANCH   1   4
BRANCH   1  10
ATOM     10  C   LIG    1       68.113  47.974  97.936  0.00  0.00    +0.170 A 
ATOM     11  C   LIG    1       69.069  47.488  98.842  0.00  0.00    +0.160 A 
ATOM     12  C   LIG    1       68.818  46.321  99.572  0.00  0.00    +0.069 A 
ATOM     13  C   LIG    1       67.600  45.662  99.434  0.00  0.00    +0.045 A 
ATOM     14 CL   LIG    1       67.298  44.223 100.329  0.00  0.00    -0.083 Cl
ATOM     15  C   LIG    1       66.619  46.161  98.581  0.00  0.00    +0.024 A 
ATOM     16  C   LIG    1       66.882  47.312  97.837  0.00  0.00    +0.051 A 
BRANCH  11  17
ATOM     17  O   LIG    1       70.253  48.138  99.043  0.00  0.00    -0.503 OA
ATOM     18  H   LIG    1       70.636  47.852  99.891  0.00  0.00    +0.292 HD
ENDBRANCH  11  17
ENDBRANCH   1  10
TORSDOF 3
ENDMDL
MODEL 4
REMARK VINA RESULT:      -7.3      1.139      5.721
REMARK  Name = 
REMARK                            x       y       z     vdW  Elec       q    Type
REMARK                         _______ _______ _______ _____ _____    ______ ____
ROOT
ATOM      1  O   LIG    1       69.808  47.662  97.298  0.00  0.00    -0.451 OA
ENDROOT
BRANCH   1   4
ATOM      2 CL   LIG    1       68.164  50.290  96.834  0.00  0.00    -0.080 Cl
ATOM      3  C   LIG    1       68.807  49.198  95.659  0.00  0.00    +0.085 A 
ATOM      4  C   LIG    1       69.537  48.054  96.011  0.00  0.00    +0.147 A 
ATOM      5  C   LIG    1       70.156  47.294  95.012  0.00  0.00    +0.049 A 
ATOM      6  C   LIG    1       69.986  47.624  93.668  0.00  0.00    +0.023 A 
ATOM      7  C   LIG    1       69.194  48.718  93.324  0.00  0.00    +0.043 A 
ATOM      8 CL   LIG    1       68.957  49.107  91.664  0.00  0.00    -0.083 Cl
ATOM      9  C   LIG    1       68.609  49.510  94.310  0.00  0.00    +0.043 A 
ENDBRANCH   1   4
BRANCH   1  10
ATOM     10  C   LIG    1       68.818  47.166  98.118  0.00  0.00    +0.170 A 
ATOM     11  C   LIG    1       68.521  47.528  99.441  0.00  0.00    +0.160 A 
ATOM     12  C   LIG    1       67.506  46.866 100.142  0.00  0.00    +0.069 A 
ATOM     13  C   LIG    1       66.759  45.875  99.513  0.00  0.00    +0.045 A 
ATOM     14 CL   LIG    1       65.517  45.058 100.380  0.00  0.00    -0.083 Cl
ATOM     15  C   LIG    1       67.004  45.542  98.183  0.00  0.00    +0.024 A 
ATOM     16  C   LIG    1       68.032  46.188  97.495  0.00  0.00    +0.051 A 
BRANCH  11  17
ATOM     17  O   LIG    1       69.198  48.533 100.073  0.00  0.00    -0.503 OA
ATOM     18  H   LIG    1       68.705  48.800 100.869  0.00  0.00    +0.292 HD
ENDBRANCH  11  17
ENDBRANCH   1  10
TORSDOF 3
ENDMDL
MODEL 5
REMARK VINA RESULT:      -7.3      1.629      2.482
REMARK  Name = 
REMARK                            x       y       z     vdW  Elec       q    Type
REMARK                         _______ _______ _______ _____ _____    ______ ____
ROOT
ATOM      1  O   LIG    1       67.195  48.915  96.806  0.00  0.00    -0.451 OA
ENDROOT
BRANCH   1   4
ATOM      2 CL   LIG    1       66.230  45.990  96.224  0.00  0.00    -0.080 Cl
ATOM      3  C   LIG    1       66.839  46.652  97.700  0.00  0.00    +0.085 A 
ATOM      4  C   LIG    1       67.245  47.989  97.817  0.00  0.00    +0.147 A 
ATOM      5  C   LIG    1       67.866  48.423  98.994  0.00  0.00    +0.049 A 
ATOM      6  C   LIG    1       68.012  47.555 100.076  0.00  0.00    +0.023 A 
ATOM      7  C   LIG    1       67.534  46.249  99.978  0.00  0.00    +0.043 A 
ATOM      8 CL   LIG    1       67.685  45.187 101.323  0.00  0.00    -0.083 Cl
ATOM      9  C   LIG    1       66.954  45.791  98.796  0.00  0.00    +0.043 A 
ENDBRANCH   1   4
BRANCH   1  10
ATOM     10  C   LIG    1       67.940  48.762  95.657  0.00  0.00    +0.170 A 
ATOM     11  C   LIG    1       69.330  48.605  95.534  0.00  0.00    +0.160 A 
ATOM     12  C   LIG    1       69.920  48.522  94.268  0.00  0.00    +0.069 A 
ATOM     13  C   LIG    1       69.126  48.552  93.127  0.00  0.00    +0.045 A 
ATOM     14 CL   LIG    1       69.856  48.457  91.571  0.00  0.00    -0.083 Cl
ATOM     15  C   LIG    1       67.741  48.651  93.232  0.00  0.00    +0.024 A 
ATOM     16  C   LIG    1       67.157  48.757  94.495  0.00  0.00    +0.051 A 
BRANCH  11  17
ATOM     17  O   LIG    1       70.135  48.519  96.634  0.00  0.00    -0.503 OA
ATOM     18  H   LIG    1       70.270  49.409  97.003  0.00  0.00    +0.292 HD
ENDBRANCH  11  17
ENDBRANCH   1  10
TORSDOF 3
ENDMDL
MODEL 6
REMARK VINA RESULT:      -7.1      2.030      5.767
REMARK  Name = 
REMARK                            x       y       z     vdW  Elec       q    Type
REMARK                         _______ _______ _______ _____ _____    ______ ____
ROOT
ATOM      1  O   LIG    1       68.764  46.583  96.807  0.00  0.00    -0.451 OA
ENDROOT
BRANCH   1   4
ATOM      2 CL   LIG    1       65.968  46.959  95.441  0.00  0.00    -0.080 Cl
ATOM      3  C   LIG    1       67.534  47.334  94.814  0.00  0.00    +0.085 A 
ATOM      4  C   LIG    1       68.711  47.119  95.545  0.00  0.00    +0.147 A 
ATOM      5  C   LIG    1       69.933  47.581  95.041  0.00  0.00    +0.049 A 
ATOM      6  C   LIG    1       69.995  48.183  93.784  0.00  0.00    +0.023 A 
ATOM      7  C   LIG    1       68.830  48.322  93.031  0.00  0.00    +0.043 A 
ATOM      8 CL   LIG    1       68.910  49.035  91.467  0.00  0.00    -0.083 Cl
ATOM      9  C   LIG    1       67.601  47.907  93.540  0.00  0.00    +0.043 A 
ENDBRANCH   1   4
BRANCH   1  10
ATOM     10  C   LIG    1       68.573  47.365  97.925  0.00  0.00    +0.170 A 
ATOM     11  C   LIG    1       67.477  47.380  98.802  0.00  0.00    +0.160 A 
ATOM     12  C   LIG    1       67.433  48.294  99.860  0.00  0.00    +0.069 A 
ATOM     13  C   LIG    1       68.498  49.163 100.073  0.00  0.00    +0.045 A 
ATOM     14 CL   LIG    1       68.438  50.292 101.372  0.00  0.00    -0.083 Cl
ATOM     15  C   LIG    1       69.619  49.124  99.247  0.00  0.00    +0.024 A 
ATOM     16  C   LIG    1       69.649  48.227  98.179  0.00  0.00    +0.051 A 
BRANCH  11  17
ATOM     17  O   LIG    1       66.438  46.505  98.655  0.00  0.00    -0.503 OA
ATOM     18  H   LIG    1       66.729  45.614  98.918  0.00  0.00    +0.292 HD
ENDBRANCH  11  17
ENDBRANCH   1  10
TORSDOF 3
ENDMDL
MODEL 7
REMARK VINA RESULT:      -7.0      1.717      2.974
REMARK  Name = 
REMARK                            x       y       z     vdW  Elec       q    Type
REMARK                         _______ _______ _______ _____ _____    ______ ____
ROOT
ATOM      1  O   LIG    1       68.639  46.920  96.537  0.00  0.00    -0.451 OA
ENDROOT
BRANCH   1   4
ATOM      2 CL   LIG    1       66.089  46.565  98.324  0.00  0.00    -0.080 Cl
ATOM      3  C   LIG    1       67.420  47.644  98.546  0.00  0.00    +0.085 A 
ATOM      4  C   LIG    1       68.509  47.691  97.665  0.00  0.00    +0.147 A 
ATOM      5  C   LIG    1       69.622  48.479  97.981  0.00  0.00    +0.049 A 
ATOM      6  C   LIG    1       69.621  49.273  99.127  0.00  0.00    +0.023 A 
ATOM      7  C   LIG    1       68.502  49.279  99.958  0.00  0.00    +0.043 A 
ATOM      8 CL   LIG    1       68.486  50.283 101.355  0.00  0.00    -0.083 Cl
ATOM      9  C   LIG    1       67.405  48.466  99.678  0.00  0.00    +0.043 A 
ENDBRANCH   1   4
BRANCH   1  10
ATOM     10  C   LIG    1       68.765  47.492  95.290  0.00  0.00    +0.170 A 
ATOM     11  C   LIG    1       69.935  47.910  94.636  0.00  0.00    +0.160 A 
ATOM     12  C   LIG    1       69.860  48.530  93.384  0.00  0.00    +0.069 A 
ATOM     13  C   LIG    1       68.626  48.695  92.763  0.00  0.00    +0.045 A 
ATOM     14 CL   LIG    1       68.537  49.465  91.226  0.00  0.00    -0.083 Cl
ATOM     15  C   LIG    1       67.461  48.237  93.372  0.00  0.00    +0.024 A 
ATOM     16  C   LIG    1       67.537  47.640  94.631  0.00  0.00    +0.051 A 
BRANCH  11  17
ATOM     17  O   LIG    1       71.168  47.716  95.192  0.00  0.00    -0.503 OA
ATOM     18  H   LIG    1       71.429  48.517  95.680  0.00  0.00    +0.292 HD
ENDBRANCH  11  17
ENDBRANCH   1  10
TORSDOF 3
ENDMDL
MODEL 8
REMARK VINA RESULT:      -7.0      1.701      2.863
REMARK  Name = 
REMARK                            x       y       z     vdW  Elec       q    Type
REMARK                         _______ _______ _______ _____ _____    ______ ____
ROOT
ATOM      1  O   LIG    1       67.187  47.545  96.672  0.00  0.00    -0.451 OA
ENDROOT
BRANCH   1   4
ATOM      2 CL   LIG    1       67.380  45.613  99.133  0.00  0.00    -0.080 Cl
ATOM      3  C   LIG    1       67.803  47.286  99.039  0.00  0.00    +0.085 A 
ATOM      4  C   LIG    1       67.672  48.033  97.860  0.00  0.00    +0.147 A 
ATOM      5  C   LIG    1       68.170  49.340  97.809  0.00  0.00    +0.049 A 
ATOM      6  C   LIG    1       68.725  49.927  98.946  0.00  0.00    +0.023 A 
ATOM      7  C   LIG    1       68.781  49.203 100.136  0.00  0.00    +0.043 A 
ATOM      8 CL   LIG    1       69.438  49.938 101.547  0.00  0.00    -0.083 Cl
ATOM      9  C   LIG    1       68.329  47.886 100.188  0.00  0.00    +0.043 A 
ENDBRANCH   1   4
BRANCH   1  10
ATOM     10  C   LIG    1       67.782  47.864  95.472  0.00  0.00    +0.170 A 
ATOM     11  C   LIG    1       67.269  48.647  94.425  0.00  0.00    +0.160 A 
ATOM     12  C   LIG    1       68.002  48.813  93.245  0.00  0.00    +0.069 A 
ATOM     13  C   LIG    1       69.263  48.237  93.122  0.00  0.00    +0.045 A 
ATOM     14 CL   LIG    1       70.159  48.438  91.666  0.00  0.00    -0.083 Cl
ATOM     15  C   LIG    1       69.810  47.504  94.172  0.00  0.00    +0.024 A 
ATOM     16  C   LIG    1       69.067  47.321  95.338  0.00  0.00    +0.051 A 
BRANCH  11  17
ATOM     17  O   LIG    1       66.059  49.271  94.532  0.00  0.00    -0.503 OA
ATOM     18  H   LIG    1       65.349  48.623  94.373  0.00  0.00    +0.292 HD
ENDBRANCH  11  17
ENDBRANCH   1  10
TORSDOF 3
ENDMDL
MODEL 9
REMARK VINA RESULT:      -6.8      1.396      1.908
REMARK  Name = 
REMARK                            x       y       z     vdW  Elec       q    Type
REMARK                         _______ _______ _______ _____ _____    ______ ____
ROOT
ATOM      1  O   LIG    1       69.746  47.238  97.040  0.00  0.00    -0.451 OA
ENDROOT
BRANCH   1   4
ATOM      2 CL   LIG    1       67.799  45.068  95.889  0.00  0.00    -0.080 Cl
ATOM      3  C   LIG    1       67.828  45.761  97.472  0.00  0.00    +0.085 A 
ATOM      4  C   LIG    1       68.769  46.726  97.857  0.00  0.00    +0.147 A 
ATOM      5  C   LIG    1       68.832  47.137  99.193  0.00  0.00    +0.049 A 
ATOM      6  C   LIG    1       67.915  46.650 100.125  0.00  0.00    +0.023 A 
ATOM      7  C   LIG    1       66.933  45.749  99.716  0.00  0.00    +0.043 A 
ATOM      8 CL   LIG    1       65.782  45.172 100.857  0.00  0.00    -0.083 Cl
ATOM      9  C   LIG    1       66.887  45.298  98.398  0.00  0.00    +0.043 A 
ENDBRANCH   1   4
BRANCH   1  10
ATOM     10  C   LIG    1       69.431  47.861  95.852  0.00  0.00    +0.170 A 
ATOM     11  C   LIG    1       68.482  48.868  95.621  0.00  0.00    +0.160 A 
ATOM     12  C   LIG    1       68.258  49.340  94.323  0.00  0.00    +0.069 A 
ATOM     13  C   LIG    1       69.008  48.843  93.262  0.00  0.00    +0.045 A 
ATOM     14 CL   LIG    1       68.725  49.421  91.666  0.00  0.00    -0.083 Cl
ATOM     15  C   LIG    1       69.993  47.883  93.482  0.00  0.00    +0.024 A 
ATOM     16  C   LIG    1       70.198  47.398  94.774  0.00  0.00    +0.051 A 
BRANCH  11  17
ATOM     17  O   LIG    1       67.764  49.417  96.645  0.00  0.00    -0.503 OA
ATOM     18  H   LIG    1       67.372  48.705  97.180  0.00  0.00    +0.292 HD
ENDBRANCH  11  17
ENDBRANCH   1  10
TORSDOF 3
ENDMDL
