MODEL 1
REMARK VINA RESULT:      -7.6      0.000      0.000
REMARK  Name = 
REMARK                            x       y       z     vdW  Elec       q    Type
REMARK                         _______ _______ _______ _____ _____    ______ ____
ROOT
ATOM      1  O   LIG    1       39.005  30.159   8.578  0.00  0.00    -0.451 OA
ENDROOT
BRANCH   1   4
ATOM      2 CL   LIG    1       40.536  31.218   6.056  0.00  0.00    -0.080 Cl
ATOM      3  C   LIG    1       39.426  32.062   7.078  0.00  0.00    +0.085 A 
ATOM      4  C   LIG    1       38.802  31.456   8.178  0.00  0.00    +0.147 A 
ATOM      5  C   LIG    1       37.804  32.146   8.874  0.00  0.00    +0.049 A 
ATOM      6  C   LIG    1       37.482  33.459   8.528  0.00  0.00    +0.023 A 
ATOM      7  C   LIG    1       38.162  34.080   7.482  0.00  0.00    +0.043 A 
ATOM      8 CL   LIG    1       37.788  35.710   7.075  0.00  0.00    -0.083 Cl
ATOM      9  C   LIG    1       39.127  33.388   6.752  0.00  0.00    +0.043 A 
ENDBRANCH   1   4
BRANCH   1  10
ATOM     10  C   LIG    1       39.639  29.867   9.766  0.00  0.00    +0.170 A 
ATOM     11  C   LIG    1       39.074  29.403  10.964  0.00  0.00    +0.160 A 
ATOM     12  C   LIG    1       39.877  29.218  12.096  0.00  0.00    +0.069 A 
ATOM     13  C   LIG    1       41.246  29.453  12.024  0.00  0.00    +0.045 A 
ATOM     14 CL   LIG    1       42.228  29.232  13.420  0.00  0.00    -0.083 Cl
ATOM     15  C   LIG    1       41.831  29.861  10.828  0.00  0.00    +0.024 A 
ATOM     16  C   LIG    1       41.025  30.067   9.708  0.00  0.00    +0.051 A 
BRANCH  11  17
ATOM     17  O   LIG    1       37.743  29.111  11.056  0.00  0.00    -0.503 OA
ATOM     18  H   LIG    1       37.602  28.178  10.816  0.00  0.00    +0.292 HD
ENDBRANCH  11  17
ENDBRANCH   1  10
TORSDOF 3
ENDMDL
MODEL 2
REMARK VINA RESULT:      -7.4      1.613      6.113
REMARK  Name = 
REMARK                            x       y       z     vdW  Elec       q    Type
REMARK                         _______ _______ _______ _____ _____    ______ ____
ROOT
ATOM      1  O   LIG    1       38.888  30.324   8.348  0.00  0.00    -0.451 OA
ENDROOT
BRANCH   1   4
ATOM      2 CL   LIG    1       37.262  28.901  10.619  0.00  0.00    -0.080 Cl
ATOM      3  C   LIG    1       38.902  29.444  10.644  0.00  0.00    +0.085 A 
ATOM      4  C   LIG    1       39.510  30.063   9.543  0.00  0.00    +0.147 A 
ATOM      5  C   LIG    1       40.881  30.344   9.576  0.00  0.00    +0.049 A 
ATOM      6  C   LIG    1       41.627  30.082  10.726  0.00  0.00    +0.023 A 
ATOM      7  C   LIG    1       40.997  29.537  11.844  0.00  0.00    +0.043 A 
ATOM      8 CL   LIG    1       41.909  29.243  13.273  0.00  0.00    -0.083 Cl
ATOM      9  C   LIG    1       39.642  29.212  11.808  0.00  0.00    +0.043 A 
ENDBRANCH   1   4
BRANCH   1  10
ATOM     10  C   LIG    1       38.712  31.615   7.900  0.00  0.00    +0.170 A 
ATOM     11  C   LIG    1       39.383  32.275   6.859  0.00  0.00    +0.160 A 
ATOM     12  C   LIG    1       39.107  33.619   6.584  0.00  0.00    +0.069 A 
ATOM     13  C   LIG    1       38.134  34.294   7.315  0.00  0.00    +0.045 A 
ATOM     14 CL   LIG    1       37.803  35.949   6.979  0.00  0.00    -0.083 Cl
ATOM     15  C   LIG    1       37.419  33.638   8.314  0.00  0.00    +0.024 A 
ATOM     16  C   LIG    1       37.713  32.304   8.601  0.00  0.00    +0.051 A 
BRANCH  11  17
ATOM     17  O   LIG    1       40.306  31.630   6.086  0.00  0.00    -0.503 OA
ATOM     18  H   LIG    1       41.190  31.991   6.274  0.00  0.00    +0.292 HD
ENDBRANCH  11  17
ENDBRANCH   1  10
TORSDOF 3
ENDMDL
MODEL 3
REMARK VINA RESULT:      -7.1      2.493      5.857
REMARK  Name = 
REMARK                            x       y       z     vdW  Elec       q    Type
REMARK                         _______ _______ _______ _____ _____    ______ ____
ROOT
ATOM      1  O   LIG    1       39.432  31.144   9.634  0.00  0.00    -0.451 OA
ENDROOT
BRANCH   1   4
ATOM      2 CL   LIG    1       41.236  28.852   8.488  0.00  0.00    -0.080 Cl
ATOM      3  C   LIG    1       39.669  28.734   9.207  0.00  0.00    +0.085 A 
ATOM      4  C   LIG    1       38.974  29.852   9.689  0.00  0.00    +0.147 A 
ATOM      5  C   LIG    1       37.777  29.673  10.393  0.00  0.00    +0.049 A 
ATOM      6  C   LIG    1       37.236  28.396  10.549  0.00  0.00    +0.023 A 
ATOM      7  C   LIG    1       37.895  27.298   9.999  0.00  0.00    +0.043 A 
ATOM      8 CL   LIG    1       37.213  25.727  10.164  0.00  0.00    -0.083 Cl
ATOM      9  C   LIG    1       39.110  27.459   9.335  0.00  0.00    +0.043 A 
ENDBRANCH   1   4
BRANCH   1  10
ATOM     10  C   LIG    1       38.925  32.045   8.724  0.00  0.00    +0.170 A 
ATOM     11  C   LIG    1       37.864  32.950   8.890  0.00  0.00    +0.160 A 
ATOM     12  C   LIG    1       37.448  33.752   7.822  0.00  0.00    +0.069 A 
ATOM     13  C   LIG    1       38.114  33.687   6.602  0.00  0.00    +0.045 A 
ATOM     14 CL   LIG    1       37.595  34.671   5.288  0.00  0.00    -0.083 Cl
ATOM     15  C   LIG    1       39.203  32.836   6.436  0.00  0.00    +0.024 A 
ATOM     16  C   LIG    1       39.601  32.020   7.496  0.00  0.00    +0.051 A 
BRANCH  11  17
ATOM     17  O   LIG    1       37.222  33.079  10.089  0.00  0.00    -0.503 OA
ATOM     18  H   LIG    1       37.228  32.222  10.550  0.00  0.00    +0.292 HD
ENDBRANCH  11  17
ENDBRANCH   1  10
TORSDOF 3
ENDMDL
MODEL 4
REMARK VINA RESULT:      -7.0      3.650      7.675
REMARK  Name = 
REMARK                            x       y       z     vdW  Elec       q    Type
REMARK                         _______ _______ _______ _____ _____    ______ ____
ROOT
ATOM      1  O   LIG    1       38.955  34.735   6.658  0.00  0.00    -0.451 OA
ENDROOT
BRANCH   1   4
ATOM      2 CL   LIG    1       36.791  33.946   8.784  0.00  0.00    -0.080 Cl
ATOM      3  C   LIG    1       38.009  32.954   8.066  0.00  0.00    +0.085 A 
ATOM      4  C   LIG    1       38.915  33.441   7.112  0.00  0.00    +0.147 A 
ATOM      5  C   LIG    1       39.778  32.553   6.461  0.00  0.00    +0.049 A 
ATOM      6  C   LIG    1       39.795  31.202   6.810  0.00  0.00    +0.023 A 
ATOM      7  C   LIG    1       38.946  30.741   7.814  0.00  0.00    +0.043 A 
ATOM      8 CL   LIG    1       38.988  29.082   8.268  0.00  0.00    -0.083 Cl
ATOM      9  C   LIG    1       38.050  31.607   8.439  0.00  0.00    +0.043 A 
ENDBRANCH   1   4
BRANCH   1  10
ATOM     10  C   LIG    1       38.042  35.198   5.736  0.00  0.00    +0.170 A 
ATOM     11  C   LIG    1       37.647  36.523   5.490  0.00  0.00    +0.160 A 
ATOM     12  C   LIG    1       36.652  36.797   4.545  0.00  0.00    +0.069 A 
ATOM     13  C   LIG    1       36.081  35.761   3.814  0.00  0.00    +0.045 A 
ATOM     14 CL   LIG    1       34.853  36.101   2.658  0.00  0.00    -0.083 Cl
ATOM     15  C   LIG    1       36.501  34.446   4.006  0.00  0.00    +0.024 A 
ATOM     16  C   LIG    1       37.476  34.174   4.966  0.00  0.00    +0.051 A 
BRANCH  11  17
ATOM     17  O   LIG    1       38.223  37.571   6.151  0.00  0.00    -0.503 OA
ATOM     18  H   LIG    1       38.355  37.327   7.084  0.00  0.00    +0.292 HD
ENDBRANCH  11  17
ENDBRANCH   1  10
TORSDOF 3
ENDMDL
MODEL 5
REMARK VINA RESULT:      -6.9      2.627      3.382
REMARK  Name = 
REMARK                            x       y       z     vdW  Elec       q    Type
REMARK                         _______ _______ _______ _____ _____    ______ ____
ROOT
ATOM      1  O   LIG    1       39.445  31.375   9.574  0.00  0.00    -0.451 OA
ENDROOT
BRANCH   1   4
ATOM      2 CL   LIG    1       37.291  33.553  10.241  0.00  0.00    -0.080 Cl
ATOM      3  C   LIG    1       37.989  33.159   8.710  0.00  0.00    +0.085 A 
ATOM      4  C   LIG    1       38.957  32.157   8.556  0.00  0.00    +0.147 A 
ATOM      5  C   LIG    1       39.589  31.988   7.319  0.00  0.00    +0.049 A 
ATOM      6  C   LIG    1       39.206  32.758   6.221  0.00  0.00    +0.023 A 
ATOM      7  C   LIG    1       38.187  33.699   6.364  0.00  0.00    +0.043 A 
ATOM      8 CL   LIG    1       37.692  34.627   5.002  0.00  0.00    -0.083 Cl
ATOM      9  C   LIG    1       37.581  33.908   7.601  0.00  0.00    +0.043 A 
ENDBRANCH   1   4
BRANCH   1  10
ATOM     10  C   LIG    1       39.091  30.048   9.688  0.00  0.00    +0.170 A 
ATOM     11  C   LIG    1       39.828  28.914   9.311  0.00  0.00    +0.160 A 
ATOM     12  C   LIG    1       39.275  27.637   9.451  0.00  0.00    +0.069 A 
ATOM     13  C   LIG    1       38.009  27.483  10.006  0.00  0.00    +0.045 A 
ATOM     14 CL   LIG    1       37.329  25.910  10.170  0.00  0.00    -0.083 Cl
ATOM     15  C   LIG    1       37.286  28.593  10.437  0.00  0.00    +0.024 A 
ATOM     16  C   LIG    1       37.831  29.867  10.274  0.00  0.00    +0.051 A 
BRANCH  11  17
ATOM     17  O   LIG    1       41.095  29.024   8.812  0.00  0.00    -0.503 OA
ATOM     18  H   LIG    1       41.354  28.177   8.407  0.00  0.00    +0.292 HD
ENDBRANCH  11  17
ENDBRANCH   1  10
TORSDOF 3
ENDMDL
MODEL 6
REMARK VINA RESULT:      -6.9      3.037      6.564
REMARK  Name = 
REMARK                            x       y       z     vdW  Elec       q    Type
REMARK                         _______ _______ _______ _____ _____    ______ ____
ROOT
ATOM      1  O   LIG    1       40.589  28.154   8.845  0.00  0.00    -0.451 OA
ENDROOT
BRANCH   1   4
ATOM      2 CL   LIG    1       38.388  26.269  10.042  0.00  0.00    -0.080 Cl
ATOM      3  C   LIG    1       40.040  26.437  10.519  0.00  0.00    +0.085 A 
ATOM      4  C   LIG    1       40.924  27.321   9.884  0.00  0.00    +0.147 A 
ATOM      5  C   LIG    1       42.283  27.302  10.219  0.00  0.00    +0.049 A 
ATOM      6  C   LIG    1       42.747  26.464  11.233  0.00  0.00    +0.023 A 
ATOM      7  C   LIG    1       41.847  25.644  11.912  0.00  0.00    +0.043 A 
ATOM      8 CL   LIG    1       42.414  24.632  13.184  0.00  0.00    -0.083 Cl
ATOM      9  C   LIG    1       40.500  25.621  11.558  0.00  0.00    +0.043 A 
ENDBRANCH   1   4
BRANCH   1  10
ATOM     10  C   LIG    1       39.790  29.259   9.043  0.00  0.00    +0.170 A 
ATOM     11  C   LIG    1       38.582  29.586   8.406  0.00  0.00    +0.160 A 
ATOM     12  C   LIG    1       37.937  30.793   8.698  0.00  0.00    +0.069 A 
ATOM     13  C   LIG    1       38.469  31.653   9.653  0.00  0.00    +0.045 A 
ATOM     14 CL   LIG    1       37.676  33.140  10.004  0.00  0.00    -0.083 Cl
ATOM     15  C   LIG    1       39.636  31.318  10.335  0.00  0.00    +0.024 A 
ATOM     16  C   LIG    1       40.289  30.125  10.025  0.00  0.00    +0.051 A 
BRANCH  11  17
ATOM     17  O   LIG    1       38.004  28.741   7.502  0.00  0.00    -0.503 OA
ATOM     18  H   LIG    1       37.468  28.082   7.977  0.00  0.00    +0.292 HD
ENDBRANCH  11  17
ENDBRANCH   1  10
TORSDOF 3
ENDMDL
MODEL 7
REMARK VINA RESULT:      -6.8      1.581      5.913
REMARK  Name = 
REMARK                            x       y       z     vdW  Elec       q    Type
REMARK                         _______ _______ _______ _____ _____    ______ ____
ROOT
ATOM      1  O   LIG    1       39.675  29.711   8.423  0.00  0.00    -0.451 OA
ENDROOT
BRANCH   1   4
ATOM      2 CL   LIG    1       38.689  27.229  10.066  0.00  0.00    -0.080 Cl
ATOM      3  C   LIG    1       39.905  28.385  10.482  0.00  0.00    +0.085 A 
ATOM      4  C   LIG    1       40.253  29.451   9.641  0.00  0.00    +0.147 A 
ATOM      5  C   LIG    1       41.346  30.263   9.967  0.00  0.00    +0.049 A 
ATOM      6  C   LIG    1       42.039  30.064  11.161  0.00  0.00    +0.023 A 
ATOM      7  C   LIG    1       41.636  29.050  12.029  0.00  0.00    +0.043 A 
ATOM      8 CL   LIG    1       42.471  28.825  13.517  0.00  0.00    -0.083 Cl
ATOM      9  C   LIG    1       40.579  28.207  11.694  0.00  0.00    +0.043 A 
ENDBRANCH   1   4
BRANCH   1  10
ATOM     10  C   LIG    1       39.240  30.976   8.094  0.00  0.00    +0.170 A 
ATOM     11  C   LIG    1       38.286  31.769   8.752  0.00  0.00    +0.160 A 
ATOM     12  C   LIG    1       37.927  33.017   8.231  0.00  0.00    +0.069 A 
ATOM     13  C   LIG    1       38.546  33.495   7.080  0.00  0.00    +0.045 A 
ATOM     14 CL   LIG    1       38.096  35.027   6.438  0.00  0.00    -0.083 Cl
ATOM     15  C   LIG    1       39.534  32.746   6.446  0.00  0.00    +0.024 A 
ATOM     16  C   LIG    1       39.873  31.492   6.955  0.00  0.00    +0.051 A 
BRANCH  11  17
ATOM     17  O   LIG    1       37.697  31.355   9.913  0.00  0.00    -0.503 OA
ATOM     18  H   LIG    1       36.889  31.876  10.065  0.00  0.00    +0.292 HD
ENDBRANCH  11  17
ENDBRANCH   1  10
TORSDOF 3
ENDMDL
MODEL 8
REMARK VINA RESULT:      -6.7      3.584      5.332
REMARK  Name = 
REMARK                            x       y       z     vdW  Elec       q    Type
REMARK                         _______ _______ _______ _____ _____    ______ ____
ROOT
ATOM      1  O   LIG    1       38.773  34.895   6.109  0.00  0.00    -0.451 OA
ENDROOT
BRANCH   1   4
ATOM      2 CL   LIG    1       38.401  37.955   5.538  0.00  0.00    -0.080 Cl
ATOM      3  C   LIG    1       37.485  36.624   4.925  0.00  0.00    +0.085 A 
ATOM      4  C   LIG    1       37.770  35.292   5.260  0.00  0.00    +0.147 A 
ATOM      5  C   LIG    1       37.087  34.255   4.616  0.00  0.00    +0.049 A 
ATOM      6  C   LIG    1       36.074  34.540   3.700  0.00  0.00    +0.023 A 
ATOM      7  C   LIG    1       35.745  35.867   3.430  0.00  0.00    +0.043 A 
ATOM      8 CL   LIG    1       34.475  36.219   2.324  0.00  0.00    -0.083 Cl
ATOM      9  C   LIG    1       36.447  36.909   4.032  0.00  0.00    +0.043 A 
ENDBRANCH   1   4
BRANCH   1  10
ATOM     10  C   LIG    1       38.560  33.923   7.062  0.00  0.00    +0.170 A 
ATOM     11  C   LIG    1       37.702  33.965   8.173  0.00  0.00    +0.160 A 
ATOM     12  C   LIG    1       37.664  32.895   9.073  0.00  0.00    +0.069 A 
ATOM     13  C   LIG    1       38.445  31.766   8.847  0.00  0.00    +0.045 A 
ATOM     14 CL   LIG    1       38.400  30.455   9.961  0.00  0.00    -0.083 Cl
ATOM     15  C   LIG    1       39.260  31.685   7.721  0.00  0.00    +0.024 A 
ATOM     16  C   LIG    1       39.314  32.763   6.837  0.00  0.00    +0.051 A 
BRANCH  11  17
ATOM     17  O   LIG    1       36.882  35.034   8.397  0.00  0.00    -0.503 OA
ATOM     18  H   LIG    1       35.989  34.827   8.069  0.00  0.00    +0.292 HD
ENDBRANCH  11  17
ENDBRANCH   1  10
TORSDOF 3
ENDMDL
MODEL 9
REMARK VINA RESULT:      -6.7      2.347      6.124
REMARK  Name = 
REMARK                            x       y       z     vdW  Elec       q    Type
REMARK                         _______ _______ _______ _____ _____    ______ ____
ROOT
ATOM      1  O   LIG    1       40.993  30.065   9.022  0.00  0.00    -0.451 OA
ENDROOT
BRANCH   1   4
ATOM      2 CL   LIG    1       38.719  28.094   8.145  0.00  0.00    -0.080 Cl
ATOM      3  C   LIG    1       39.834  27.939   9.456  0.00  0.00    +0.085 A 
ATOM      4  C   LIG    1       40.815  28.903   9.730  0.00  0.00    +0.147 A 
ATOM      5  C   LIG    1       41.781  28.649  10.711  0.00  0.00    +0.049 A 
ATOM      6  C   LIG    1       41.726  27.478  11.467  0.00  0.00    +0.023 A 
ATOM      7  C   LIG    1       40.701  26.560  11.239  0.00  0.00    +0.043 A 
ATOM      8 CL   LIG    1       40.614  25.131  12.193  0.00  0.00    -0.083 Cl
ATOM      9  C   LIG    1       39.760  26.781  10.236  0.00  0.00    +0.043 A 
ENDBRANCH   1   4
BRANCH   1  10
ATOM     10  C   LIG    1       39.976  30.987   8.892  0.00  0.00    +0.170 A 
ATOM     11  C   LIG    1       39.488  31.587   7.721  0.00  0.00    +0.160 A 
ATOM     12  C   LIG    1       38.480  32.555   7.793  0.00  0.00    +0.069 A 
ATOM     13  C   LIG    1       37.927  32.893   9.024  0.00  0.00    +0.045 A 
ATOM     14 CL   LIG    1       36.692  34.090   9.109  0.00  0.00    -0.083 Cl
ATOM     15  C   LIG    1       38.361  32.267  10.190  0.00  0.00    +0.024 A 
ATOM     16  C   LIG    1       39.382  31.320  10.117  0.00  0.00    +0.051 A 
BRANCH  11  17
ATOM     17  O   LIG    1       39.971  31.241   6.491  0.00  0.00    -0.503 OA
ATOM     18  H   LIG    1       40.846  31.647   6.364  0.00  0.00    +0.292 HD
ENDBRANCH  11  17
ENDBRANCH   1  10
TORSDOF 3
ENDMDL
