MODEL 1
REMARK VINA RESULT:      -7.3      0.000      0.000
REMARK  Name = 
REMARK                            x       y       z     vdW  Elec       q    Type
REMARK                         _______ _______ _______ _____ _____    ______ ____
ROOT
ATOM      1  O   LIG    1        2.134  -1.063  20.897  0.00  0.00    -0.451 OA
ENDROOT
BRANCH   1   4
ATOM      2 CL   LIG    1        1.032   1.288  22.654  0.00  0.00    -0.080 Cl
ATOM      3  C   LIG    1        1.171  -0.387  23.057  0.00  0.00    +0.085 A 
ATOM      4  C   LIG    1        1.680  -1.339  22.163  0.00  0.00    +0.147 A 
ATOM      5  C   LIG    1        1.627  -2.698  22.494  0.00  0.00    +0.049 A 
ATOM      6  C   LIG    1        1.144  -3.101  23.739  0.00  0.00    +0.023 A 
ATOM      7  C   LIG    1        0.712  -2.141  24.653  0.00  0.00    +0.043 A 
ATOM      8 CL   LIG    1        0.146  -2.636  26.200  0.00  0.00    -0.083 Cl
ATOM      9  C   LIG    1        0.718  -0.789  24.318  0.00  0.00    +0.043 A 
ENDBRANCH   1   4
BRANCH   1  10
ATOM     10  C   LIG    1        3.460  -1.230  20.561  0.00  0.00    +0.170 A 
ATOM     11  C   LIG    1        4.546  -0.390  20.855  0.00  0.00    +0.160 A 
ATOM     12  C   LIG    1        5.824  -0.697  20.374  0.00  0.00    +0.069 A 
ATOM     13  C   LIG    1        6.030  -1.860  19.638  0.00  0.00    +0.045 A 
ATOM     14 CL   LIG    1        7.601  -2.230  19.042  0.00  0.00    -0.083 Cl
ATOM     15  C   LIG    1        4.974  -2.732  19.385  0.00  0.00    +0.024 A 
ATOM     16  C   LIG    1        3.697  -2.411  19.846  0.00  0.00    +0.051 A 
BRANCH  11  17
ATOM     17  O   LIG    1        4.391   0.731  21.619  0.00  0.00    -0.503 OA
ATOM     18  H   LIG    1        3.758   0.546  22.335  0.00  0.00    +0.292 HD
ENDBRANCH  11  17
ENDBRANCH   1  10
TORSDOF 3
ENDMDL
MODEL 2
REMARK VINA RESULT:      -6.9      9.502     10.028
REMARK  Name = 
REMARK                            x       y       z     vdW  Elec       q    Type
REMARK                         _______ _______ _______ _____ _____    ______ ____
ROOT
ATOM      1  O   LIG    1       10.411  -4.662  28.854  0.00  0.00    -0.451 OA
ENDROOT
BRANCH   1   4
ATOM      2 CL   LIG    1       11.106  -1.643  29.332  0.00  0.00    -0.080 Cl
ATOM      3  C   LIG    1       10.068  -2.671  30.256  0.00  0.00    +0.085 A 
ATOM      4  C   LIG    1        9.839  -4.013  29.919  0.00  0.00    +0.147 A 
ATOM      5  C   LIG    1        8.875  -4.748  30.618  0.00  0.00    +0.049 A 
ATOM      6  C   LIG    1        8.197  -4.176  31.695  0.00  0.00    +0.023 A 
ATOM      7  C   LIG    1        8.487  -2.866  32.072  0.00  0.00    +0.043 A 
ATOM      8 CL   LIG    1        7.674  -2.170  33.419  0.00  0.00    -0.083 Cl
ATOM      9  C   LIG    1        9.413  -2.109  31.356  0.00  0.00    +0.043 A 
ENDBRANCH   1   4
BRANCH   1  10
ATOM     10  C   LIG    1       10.058  -4.359  27.557  0.00  0.00    +0.170 A 
ATOM     11  C   LIG    1       10.874  -3.882  26.520  0.00  0.00    +0.160 A 
ATOM     12  C   LIG    1       10.320  -3.570  25.273  0.00  0.00    +0.069 A 
ATOM     13  C   LIG    1        8.963  -3.774  25.045  0.00  0.00    +0.045 A 
ATOM     14 CL   LIG    1        8.283  -3.383  23.512  0.00  0.00    -0.083 Cl
ATOM     15  C   LIG    1        8.148  -4.299  26.045  0.00  0.00    +0.024 A 
ATOM     16  C   LIG    1        8.700  -4.586  27.294  0.00  0.00    +0.051 A 
BRANCH  11  17
ATOM     17  O   LIG    1       12.220  -3.720  26.692  0.00  0.00    -0.503 OA
ATOM     18  H   LIG    1       12.499  -2.889  26.270  0.00  0.00    +0.292 HD
ENDBRANCH  11  17
ENDBRANCH   1  10
TORSDOF 3
ENDMDL
MODEL 3
REMARK VINA RESULT:      -6.7      1.546      5.714
REMARK  Name = 
REMARK                            x       y       z     vdW  Elec       q    Type
REMARK                         _______ _______ _______ _____ _____    ______ ____
ROOT
ATOM      1  O   LIG    1        2.232  -1.165  20.575  0.00  0.00    -0.451 OA
ENDROOT
BRANCH   1   4
ATOM      2 CL   LIG    1        3.560   0.862  18.586  0.00  0.00    -0.080 Cl
ATOM      3  C   LIG    1        4.269  -0.509  19.363  0.00  0.00    +0.085 A 
ATOM      4  C   LIG    1        3.553  -1.332  20.244  0.00  0.00    +0.147 A 
ATOM      5  C   LIG    1        4.223  -2.336  20.953  0.00  0.00    +0.049 A 
ATOM      6  C   LIG    1        5.580  -2.570  20.730  0.00  0.00    +0.023 A 
ATOM      7  C   LIG    1        6.266  -1.797  19.795  0.00  0.00    +0.043 A 
ATOM      8 CL   LIG    1        7.933  -2.106  19.496  0.00  0.00    -0.083 Cl
ATOM      9  C   LIG    1        5.621  -0.766  19.115  0.00  0.00    +0.043 A 
ENDBRANCH   1   4
BRANCH   1  10
ATOM     10  C   LIG    1        1.789  -1.348  21.867  0.00  0.00    +0.170 A 
ATOM     11  C   LIG    1        1.533  -0.376  22.847  0.00  0.00    +0.160 A 
ATOM     12  C   LIG    1        1.142  -0.760  24.134  0.00  0.00    +0.069 A 
ATOM     13  C   LIG    1        0.963  -2.106  24.435  0.00  0.00    +0.045 A 
ATOM     14 CL   LIG    1        0.489  -2.575  26.022  0.00  0.00    -0.083 Cl
ATOM     15  C   LIG    1        1.159  -3.081  23.459  0.00  0.00    +0.024 A 
ATOM     16  C   LIG    1        1.571  -2.696  22.183  0.00  0.00    +0.051 A 
BRANCH  11  17
ATOM     17  O   LIG    1        1.647   0.957  22.572  0.00  0.00    -0.503 OA
ATOM     18  H   LIG    1        0.861   1.251  22.079  0.00  0.00    +0.292 HD
ENDBRANCH  11  17
ENDBRANCH   1  10
TORSDOF 3
ENDMDL
MODEL 4
REMARK VINA RESULT:      -6.6      3.083      3.997
REMARK  Name = 
REMARK                            x       y       z     vdW  Elec       q    Type
REMARK                         _______ _______ _______ _____ _____    ______ ____
ROOT
ATOM      1  O   LIG    1        3.313  -0.635  20.755  0.00  0.00    -0.451 OA
ENDROOT
BRANCH   1   4
ATOM      2 CL   LIG    1        3.834   1.810  18.863  0.00  0.00    -0.080 Cl
ATOM      3  C   LIG    1        3.410   1.813  20.538  0.00  0.00    +0.085 A 
ATOM      4  C   LIG    1        3.196   0.634  21.266  0.00  0.00    +0.147 A 
ATOM      5  C   LIG    1        2.710   0.707  22.576  0.00  0.00    +0.049 A 
ATOM      6  C   LIG    1        2.512   1.945  23.186  0.00  0.00    +0.023 A 
ATOM      7  C   LIG    1        2.801   3.113  22.481  0.00  0.00    +0.043 A 
ATOM      8 CL   LIG    1        2.586   4.641  23.244  0.00  0.00    -0.083 Cl
ATOM      9  C   LIG    1        3.242   3.054  21.161  0.00  0.00    +0.043 A 
ENDBRANCH   1   4
BRANCH   1  10
ATOM     10  C   LIG    1        4.521  -1.113  20.296  0.00  0.00    +0.170 A 
ATOM     11  C   LIG    1        4.807  -1.719  19.063  0.00  0.00    +0.160 A 
ATOM     12  C   LIG    1        6.093  -2.200  18.796  0.00  0.00    +0.069 A 
ATOM     13  C   LIG    1        7.106  -2.039  19.736  0.00  0.00    +0.045 A 
ATOM     14 CL   LIG    1        8.685  -2.639  19.407  0.00  0.00    -0.083 Cl
ATOM     15  C   LIG    1        6.853  -1.391  20.943  0.00  0.00    +0.024 A 
ATOM     16  C   LIG    1        5.563  -0.933  21.215  0.00  0.00    +0.051 A 
BRANCH  11  17
ATOM     17  O   LIG    1        3.851  -1.847  18.095  0.00  0.00    -0.503 OA
ATOM     18  H   LIG    1        3.094  -1.276  18.316  0.00  0.00    +0.292 HD
ENDBRANCH  11  17
ENDBRANCH   1  10
TORSDOF 3
ENDMDL
MODEL 5
REMARK VINA RESULT:      -6.6      2.891      5.750
REMARK  Name = 
REMARK                            x       y       z     vdW  Elec       q    Type
REMARK                         _______ _______ _______ _____ _____    ______ ____
ROOT
ATOM      1  O   LIG    1        3.401   0.162  19.885  0.00  0.00    -0.451 OA
ENDROOT
BRANCH   1   4
ATOM      2 CL   LIG    1        2.764  -2.388  21.593  0.00  0.00    -0.080 Cl
ATOM      3  C   LIG    1        4.272  -1.901  20.901  0.00  0.00    +0.085 A 
ATOM      4  C   LIG    1        4.412  -0.729  20.146  0.00  0.00    +0.147 A 
ATOM      5  C   LIG    1        5.621  -0.468  19.491  0.00  0.00    +0.049 A 
ATOM      6  C   LIG    1        6.708  -1.328  19.648  0.00  0.00    +0.023 A 
ATOM      7  C   LIG    1        6.583  -2.451  20.464  0.00  0.00    +0.043 A 
ATOM      8 CL   LIG    1        7.932  -3.496  20.684  0.00  0.00    -0.083 Cl
ATOM      9  C   LIG    1        5.371  -2.746  21.086  0.00  0.00    +0.043 A 
ENDBRANCH   1   4
BRANCH   1  10
ATOM     10  C   LIG    1        3.260   1.319  20.619  0.00  0.00    +0.170 A 
ATOM     11  C   LIG    1        3.681   2.618  20.290  0.00  0.00    +0.160 A 
ATOM     12  C   LIG    1        3.501   3.668  21.197  0.00  0.00    +0.069 A 
ATOM     13  C   LIG    1        2.865   3.437  22.412  0.00  0.00    +0.045 A 
ATOM     14 CL   LIG    1        2.652   4.730  23.528  0.00  0.00    -0.083 Cl
ATOM     15  C   LIG    1        2.392   2.167  22.732  0.00  0.00    +0.024 A 
ATOM     16  C   LIG    1        2.593   1.117  21.835  0.00  0.00    +0.051 A 
BRANCH  11  17
ATOM     17  O   LIG    1        4.261   2.892  19.084  0.00  0.00    -0.503 OA
ATOM     18  H   LIG    1        3.768   3.609  18.647  0.00  0.00    +0.292 HD
ENDBRANCH  11  17
ENDBRANCH   1  10
TORSDOF 3
ENDMDL
MODEL 6
REMARK VINA RESULT:      -6.5      6.432      8.830
REMARK  Name = 
REMARK                            x       y       z     vdW  Elec       q    Type
REMARK                         _______ _______ _______ _____ _____    ______ ____
ROOT
ATOM      1  O   LIG    1        9.060  -4.815  21.875  0.00  0.00    -0.451 OA
ENDROOT
BRANCH   1   4
ATOM      2 CL   LIG    1        7.066  -2.453  21.356  0.00  0.00    -0.080 Cl
ATOM      3  C   LIG    1        8.410  -2.961  20.396  0.00  0.00    +0.085 A 
ATOM      4  C   LIG    1        9.230  -4.040  20.755  0.00  0.00    +0.147 A 
ATOM      5  C   LIG    1       10.388  -4.306  20.016  0.00  0.00    +0.049 A 
ATOM      6  C   LIG    1       10.687  -3.554  18.880  0.00  0.00    +0.023 A 
ATOM      7  C   LIG    1        9.825  -2.532  18.485  0.00  0.00    +0.043 A 
ATOM      8 CL   LIG    1       10.176  -1.624  17.067  0.00  0.00    -0.083 Cl
ATOM      9  C   LIG    1        8.693  -2.228  19.239  0.00  0.00    +0.043 A 
ENDBRANCH   1   4
BRANCH   1  10
ATOM     10  C   LIG    1        9.479  -4.384  23.115  0.00  0.00    +0.170 A 
ATOM     11  C   LIG    1       10.792  -4.264  23.598  0.00  0.00    +0.160 A 
ATOM     12  C   LIG    1       11.022  -3.862  24.918  0.00  0.00    +0.069 A 
ATOM     13  C   LIG    1        9.951  -3.536  25.743  0.00  0.00    +0.045 A 
ATOM     14 CL   LIG    1       10.238  -3.048  27.369  0.00  0.00    -0.083 Cl
ATOM     15  C   LIG    1        8.645  -3.596  25.263  0.00  0.00    +0.024 A 
ATOM     16  C   LIG    1        8.418  -4.020  23.954  0.00  0.00    +0.051 A 
BRANCH  11  17
ATOM     17  O   LIG    1       11.869  -4.524  22.800  0.00  0.00    -0.503 OA
ATOM     18  H   LIG    1       12.678  -4.522  23.342  0.00  0.00    +0.292 HD
ENDBRANCH  11  17
ENDBRANCH   1  10
TORSDOF 3
ENDMDL
MODEL 7
REMARK VINA RESULT:      -6.5      9.606     10.358
REMARK  Name = 
REMARK                            x       y       z     vdW  Elec       q    Type
REMARK                         _______ _______ _______ _____ _____    ______ ____
ROOT
ATOM      1  O   LIG    1       10.717  -3.924  28.650  0.00  0.00    -0.451 OA
ENDROOT
BRANCH   1   4
ATOM      2 CL   LIG    1        9.159  -4.377  31.332  0.00  0.00    -0.080 Cl
ATOM      3  C   LIG    1        9.843  -2.914  30.715  0.00  0.00    +0.085 A 
ATOM      4  C   LIG    1       10.528  -2.857  29.493  0.00  0.00    +0.147 A 
ATOM      5  C   LIG    1       11.185  -1.679  29.121  0.00  0.00    +0.049 A 
ATOM      6  C   LIG    1       11.099  -0.541  29.923  0.00  0.00    +0.023 A 
ATOM      7  C   LIG    1       10.352  -0.584  31.099  0.00  0.00    +0.043 A 
ATOM      8 CL   LIG    1       10.218   0.828  32.073  0.00  0.00    -0.083 Cl
ATOM      9  C   LIG    1        9.729  -1.764  31.502  0.00  0.00    +0.043 A 
ENDBRANCH   1   4
BRANCH   1  10
ATOM     10  C   LIG    1       10.247  -3.904  27.354  0.00  0.00    +0.170 A 
ATOM     11  C   LIG    1       10.974  -3.733  26.166  0.00  0.00    +0.160 A 
ATOM     12  C   LIG    1       10.311  -3.680  24.935  0.00  0.00    +0.069 A 
ATOM     13  C   LIG    1        8.930  -3.843  24.882  0.00  0.00    +0.045 A 
ATOM     14 CL   LIG    1        8.116  -3.771  23.366  0.00  0.00    -0.083 Cl
ATOM     15  C   LIG    1        8.199  -4.069  26.045  0.00  0.00    +0.024 A 
ATOM     16  C   LIG    1        8.862  -4.097  27.273  0.00  0.00    +0.051 A 
BRANCH  11  17
ATOM     17  O   LIG    1       12.336  -3.623  26.176  0.00  0.00    -0.503 OA
ATOM     18  H   LIG    1       12.724  -4.472  26.454  0.00  0.00    +0.292 HD
ENDBRANCH  11  17
ENDBRANCH   1  10
TORSDOF 3
ENDMDL
MODEL 8
REMARK VINA RESULT:      -6.5      5.060      7.384
REMARK  Name = 
REMARK                            x       y       z     vdW  Elec       q    Type
REMARK                         _______ _______ _______ _____ _____    ______ ____
ROOT
ATOM      1  O   LIG    1        7.981  -4.540  21.539  0.00  0.00    -0.451 OA
ENDROOT
BRANCH   1   4
ATOM      2 CL   LIG    1        9.570  -2.960  19.346  0.00  0.00    -0.080 Cl
ATOM      3  C   LIG    1        7.952  -2.709  19.897  0.00  0.00    +0.085 A 
ATOM      4  C   LIG    1        7.359  -3.503  20.889  0.00  0.00    +0.147 A 
ATOM      5  C   LIG    1        6.000  -3.344  21.184  0.00  0.00    +0.049 A 
ATOM      6  C   LIG    1        5.254  -2.349  20.552  0.00  0.00    +0.023 A 
ATOM      7  C   LIG    1        5.871  -1.512  19.624  0.00  0.00    +0.043 A 
ATOM      8 CL   LIG    1        4.959  -0.264  18.867  0.00  0.00    -0.083 Cl
ATOM      9  C   LIG    1        7.212  -1.690  19.289  0.00  0.00    +0.043 A 
ENDBRANCH   1   4
BRANCH   1  10
ATOM     10  C   LIG    1        8.898  -4.308  22.542  0.00  0.00    +0.170 A 
ATOM     11  C   LIG    1       10.266  -4.620  22.561  0.00  0.00    +0.160 A 
ATOM     12  C   LIG    1       11.032  -4.360  23.703  0.00  0.00    +0.069 A 
ATOM     13  C   LIG    1       10.448  -3.749  24.808  0.00  0.00    +0.045 A 
ATOM     14 CL   LIG    1       11.392  -3.437  26.214  0.00  0.00    -0.083 Cl
ATOM     15  C   LIG    1        9.105  -3.382  24.785  0.00  0.00    +0.024 A 
ATOM     16  C   LIG    1        8.339  -3.665  23.654  0.00  0.00    +0.051 A 
BRANCH  11  17
ATOM     17  O   LIG    1       10.885  -5.171  21.475  0.00  0.00    -0.503 OA
ATOM     18  H   LIG    1       11.344  -5.986  21.747  0.00  0.00    +0.292 HD
ENDBRANCH  11  17
ENDBRANCH   1  10
TORSDOF 3
ENDMDL
MODEL 9
REMARK VINA RESULT:      -6.4      5.124      7.371
REMARK  Name = 
REMARK                            x       y       z     vdW  Elec       q    Type
REMARK                         _______ _______ _______ _____ _____    ______ ____
ROOT
ATOM      1  O   LIG    1        8.278  -4.655  21.647  0.00  0.00    -0.451 OA
ENDROOT
BRANCH   1   4
ATOM      2 CL   LIG    1       11.399  -4.899  21.480  0.00  0.00    -0.080 Cl
ATOM      3  C   LIG    1       10.423  -4.448  22.833  0.00  0.00    +0.085 A 
ATOM      4  C   LIG    1        9.024  -4.371  22.763  0.00  0.00    +0.147 A 
ATOM      5  C   LIG    1        8.304  -3.857  23.847  0.00  0.00    +0.049 A 
ATOM      6  C   LIG    1        8.963  -3.493  25.022  0.00  0.00    +0.023 A 
ATOM      7  C   LIG    1       10.346  -3.646  25.110  0.00  0.00    +0.043 A 
ATOM      8 CL   LIG    1       11.155  -3.228  26.570  0.00  0.00    -0.083 Cl
ATOM      9  C   LIG    1       11.079  -4.115  24.022  0.00  0.00    +0.043 A 
ENDBRANCH   1   4
BRANCH   1  10
ATOM     10  C   LIG    1        7.654  -3.657  20.931  0.00  0.00    +0.170 A 
ATOM     11  C   LIG    1        8.204  -2.807  19.959  0.00  0.00    +0.160 A 
ATOM     12  C   LIG    1        7.422  -1.803  19.377  0.00  0.00    +0.069 A 
ATOM     13  C   LIG    1        6.082  -1.673  19.728  0.00  0.00    +0.045 A 
ATOM     14 CL   LIG    1        5.125  -0.433  19.014  0.00  0.00    -0.083 Cl
ATOM     15  C   LIG    1        5.505  -2.544  20.649  0.00  0.00    +0.024 A 
ATOM     16  C   LIG    1        6.294  -3.528  21.245  0.00  0.00    +0.051 A 
BRANCH  11  17
ATOM     17  O   LIG    1        9.501  -2.939  19.551  0.00  0.00    -0.503 OA
ATOM     18  H   LIG    1       10.023  -3.339  20.269  0.00  0.00    +0.292 HD
ENDBRANCH  11  17
ENDBRANCH   1  10
TORSDOF 3
ENDMDL
