MODEL 1
REMARK VINA RESULT:      -7.6      0.000      0.000
REMARK  Name = 
REMARK                            x       y       z     vdW  Elec       q    Type
REMARK                         _______ _______ _______ _____ _____    ______ ____
ROOT
ATOM      1  O   LIG    1       11.010   1.569  29.714  0.00  0.00    -0.451 OA
ENDROOT
BRANCH   1   4
ATOM      2 CL   LIG    1        8.762  -0.569  29.260  0.00  0.00    -0.080 Cl
ATOM      3  C   LIG    1        8.948   0.978  28.512  0.00  0.00    +0.085 A 
ATOM      4  C   LIG    1       10.007   1.844  28.819  0.00  0.00    +0.147 A 
ATOM      5  C   LIG    1       10.018   3.139  28.290  0.00  0.00    +0.049 A 
ATOM      6  C   LIG    1        9.023   3.546  27.400  0.00  0.00    +0.023 A 
ATOM      7  C   LIG    1        8.016   2.651  27.040  0.00  0.00    +0.043 A 
ATOM      8 CL   LIG    1        6.807   3.141  25.918  0.00  0.00    -0.083 Cl
ATOM      9  C   LIG    1        7.969   1.374  27.594  0.00  0.00    +0.043 A 
ENDBRANCH   1   4
BRANCH   1  10
ATOM     10  C   LIG    1       10.936   1.992  31.024  0.00  0.00    +0.170 A 
ATOM     11  C   LIG    1       11.331   3.225  31.565  0.00  0.00    +0.160 A 
ATOM     12  C   LIG    1       11.233   3.454  32.942  0.00  0.00    +0.069 A 
ATOM     13  C   LIG    1       10.702   2.474  33.774  0.00  0.00    +0.045 A 
ATOM     14 CL   LIG    1       10.589   2.756  35.468  0.00  0.00    -0.083 Cl
ATOM     15  C   LIG    1       10.253   1.266  33.246  0.00  0.00    +0.024 A 
ATOM     16  C   LIG    1       10.374   1.032  31.876  0.00  0.00    +0.051 A 
BRANCH  11  17
ATOM     17  O   LIG    1       11.807   4.230  30.771  0.00  0.00    -0.503 OA
ATOM     18  H   LIG    1       12.707   4.465  31.058  0.00  0.00    +0.292 HD
ENDBRANCH  11  17
ENDBRANCH   1  10
TORSDOF 3
ENDMDL
MODEL 2
REMARK VINA RESULT:      -7.4      1.427      1.917
REMARK  Name = 
REMARK                            x       y       z     vdW  Elec       q    Type
REMARK                         _______ _______ _______ _____ _____    ______ ____
ROOT
ATOM      1  O   LIG    1       11.224   1.543  30.145  0.00  0.00    -0.451 OA
ENDROOT
BRANCH   1   4
ATOM      2 CL   LIG    1       10.704   4.249  28.651  0.00  0.00    -0.080 Cl
ATOM      3  C   LIG    1        9.740   2.815  28.652  0.00  0.00    +0.085 A 
ATOM      4  C   LIG    1       10.100   1.663  29.366  0.00  0.00    +0.147 A 
ATOM      5  C   LIG    1        9.357   0.488  29.206  0.00  0.00    +0.049 A 
ATOM      6  C   LIG    1        8.216   0.480  28.403  0.00  0.00    +0.023 A 
ATOM      7  C   LIG    1        7.821   1.651  27.758  0.00  0.00    +0.043 A 
ATOM      8 CL   LIG    1        6.398   1.649  26.792  0.00  0.00    -0.083 Cl
ATOM      9  C   LIG    1        8.579   2.815  27.873  0.00  0.00    +0.043 A 
ENDBRANCH   1   4
BRANCH   1  10
ATOM     10  C   LIG    1       11.237   1.978  31.453  0.00  0.00    +0.170 A 
ATOM     11  C   LIG    1       11.967   3.039  32.011  0.00  0.00    +0.160 A 
ATOM     12  C   LIG    1       11.897   3.296  33.384  0.00  0.00    +0.069 A 
ATOM     13  C   LIG    1       11.069   2.527  34.195  0.00  0.00    +0.045 A 
ATOM     14 CL   LIG    1       10.992   2.842  35.886  0.00  0.00    -0.083 Cl
ATOM     15  C   LIG    1       10.296   1.506  33.649  0.00  0.00    +0.024 A 
ATOM     16  C   LIG    1       10.386   1.237  32.283  0.00  0.00    +0.051 A 
BRANCH  11  17
ATOM     17  O   LIG    1       12.749   3.848  31.236  0.00  0.00    -0.503 OA
ATOM     18  H   LIG    1       13.618   3.428  31.110  0.00  0.00    +0.292 HD
ENDBRANCH  11  17
ENDBRANCH   1  10
TORSDOF 3
ENDMDL
MODEL 3
REMARK VINA RESULT:      -7.2      9.960     11.739
REMARK  Name = 
REMARK                            x       y       z     vdW  Elec       q    Type
REMARK                         _______ _______ _______ _____ _____    ______ ____
ROOT
ATOM      1  O   LIG    1       17.214   4.710  24.493  0.00  0.00    -0.451 OA
ENDROOT
BRANCH   1   4
ATOM      2 CL   LIG    1       16.186   3.304  27.099  0.00  0.00    -0.080 Cl
ATOM      3  C   LIG    1       17.442   4.479  26.931  0.00  0.00    +0.085 A 
ATOM      4  C   LIG    1       17.807   5.022  25.691  0.00  0.00    +0.147 A 
ATOM      5  C   LIG    1       18.928   5.855  25.602  0.00  0.00    +0.049 A 
ATOM      6  C   LIG    1       19.637   6.207  26.751  0.00  0.00    +0.023 A 
ATOM      7  C   LIG    1       19.220   5.724  27.991  0.00  0.00    +0.043 A 
ATOM      8 CL   LIG    1       20.074   6.184  29.412  0.00  0.00    -0.083 Cl
ATOM      9  C   LIG    1       18.132   4.859  28.087  0.00  0.00    +0.043 A 
ENDBRANCH   1   4
BRANCH   1  10
ATOM     10  C   LIG    1       17.849   3.910  23.568  0.00  0.00    +0.170 A 
ATOM     11  C   LIG    1       18.605   4.300  22.451  0.00  0.00    +0.160 A 
ATOM     12  C   LIG    1       19.129   3.336  21.583  0.00  0.00    +0.069 A 
ATOM     13  C   LIG    1       18.938   1.984  21.848  0.00  0.00    +0.045 A 
ATOM     14 CL   LIG    1       19.577   0.800  20.774  0.00  0.00    -0.083 Cl
ATOM     15  C   LIG    1       18.237   1.578  22.982  0.00  0.00    +0.024 A 
ATOM     16  C   LIG    1       17.697   2.542  23.833  0.00  0.00    +0.051 A 
BRANCH  11  17
ATOM     17  O   LIG    1       18.858   5.617  22.189  0.00  0.00    -0.503 OA
ATOM     18  H   LIG    1       18.039   6.130  22.306  0.00  0.00    +0.292 HD
ENDBRANCH  11  17
ENDBRANCH   1  10
TORSDOF 3
ENDMDL
MODEL 4
REMARK VINA RESULT:      -7.1      9.768     10.562
REMARK  Name = 
REMARK                            x       y       z     vdW  Elec       q    Type
REMARK                         _______ _______ _______ _____ _____    ______ ____
ROOT
ATOM      1  O   LIG    1       18.225   6.174  24.946  0.00  0.00    -0.451 OA
ENDROOT
BRANCH   1   4
ATOM      2 CL   LIG    1       15.877   4.133  25.327  0.00  0.00    -0.080 Cl
ATOM      3  C   LIG    1       17.364   3.919  24.474  0.00  0.00    +0.085 A 
ATOM      4  C   LIG    1       18.331   4.930  24.376  0.00  0.00    +0.147 A 
ATOM      5  C   LIG    1       19.444   4.746  23.548  0.00  0.00    +0.049 A 
ATOM      6  C   LIG    1       19.635   3.534  22.883  0.00  0.00    +0.023 A 
ATOM      7  C   LIG    1       18.708   2.506  23.048  0.00  0.00    +0.043 A 
ATOM      8 CL   LIG    1       18.959   1.001  22.253  0.00  0.00    -0.083 Cl
ATOM      9  C   LIG    1       17.572   2.693  23.834  0.00  0.00    +0.043 A 
ENDBRANCH   1   4
BRANCH   1  10
ATOM     10  C   LIG    1       18.597   6.396  26.254  0.00  0.00    +0.170 A 
ATOM     11  C   LIG    1       19.890   6.560  26.776  0.00  0.00    +0.160 A 
ATOM     12  C   LIG    1       20.078   6.718  28.154  0.00  0.00    +0.069 A 
ATOM     13  C   LIG    1       18.979   6.757  29.006  0.00  0.00    +0.045 A 
ATOM     14 CL   LIG    1       19.215   6.945  30.701  0.00  0.00    -0.083 Cl
ATOM     15  C   LIG    1       17.687   6.652  28.498  0.00  0.00    +0.024 A 
ATOM     16  C   LIG    1       17.504   6.471  27.127  0.00  0.00    +0.051 A 
BRANCH  11  17
ATOM     17  O   LIG    1       20.988   6.580  25.964  0.00  0.00    -0.503 OA
ATOM     18  H   LIG    1       21.489   5.754  26.082  0.00  0.00    +0.292 HD
ENDBRANCH  11  17
ENDBRANCH   1  10
TORSDOF 3
ENDMDL
MODEL 5
REMARK VINA RESULT:      -7.1      4.263      6.500
REMARK  Name = 
REMARK                            x       y       z     vdW  Elec       q    Type
REMARK                         _______ _______ _______ _____ _____    ______ ____
ROOT
ATOM      1  O   LIG    1        6.943   4.143  25.818  0.00  0.00    -0.451 OA
ENDROOT
BRANCH   1   4
ATOM      2 CL   LIG    1        9.659   4.555  27.327  0.00  0.00    -0.080 Cl
ATOM      3  C   LIG    1        8.669   3.140  27.254  0.00  0.00    +0.085 A 
ATOM      4  C   LIG    1        7.463   3.099  26.540  0.00  0.00    +0.147 A 
ATOM      5  C   LIG    1        6.637   1.974  26.642  0.00  0.00    +0.049 A 
ATOM      6  C   LIG    1        7.043   0.866  27.386  0.00  0.00    +0.023 A 
ATOM      7  C   LIG    1        8.279   0.886  28.029  0.00  0.00    +0.043 A 
ATOM      8 CL   LIG    1        8.796  -0.492  28.921  0.00  0.00    -0.083 Cl
ATOM      9  C   LIG    1        9.092   2.017  27.972  0.00  0.00    +0.043 A 
ENDBRANCH   1   4
BRANCH   1  10
ATOM     10  C   LIG    1        6.576   5.323  26.428  0.00  0.00    +0.170 A 
ATOM     11  C   LIG    1        6.999   6.627  26.128  0.00  0.00    +0.160 A 
ATOM     12  C   LIG    1        6.559   7.706  26.904  0.00  0.00    +0.069 A 
ATOM     13  C   LIG    1        5.667   7.493  27.949  0.00  0.00    +0.045 A 
ATOM     14 CL   LIG    1        5.134   8.822  28.906  0.00  0.00    -0.083 Cl
ATOM     15  C   LIG    1        5.194   6.213  28.226  0.00  0.00    +0.024 A 
ATOM     16  C   LIG    1        5.652   5.137  27.465  0.00  0.00    +0.051 A 
BRANCH  11  17
ATOM     17  O   LIG    1        7.833   6.880  25.076  0.00  0.00    -0.503 OA
ATOM     18  H   LIG    1        7.724   7.806  24.796  0.00  0.00    +0.292 HD
ENDBRANCH  11  17
ENDBRANCH   1  10
TORSDOF 3
ENDMDL
MODEL 6
REMARK VINA RESULT:      -7.1      1.958      6.243
REMARK  Name = 
REMARK                            x       y       z     vdW  Elec       q    Type
REMARK                         _______ _______ _______ _____ _____    ______ ____
ROOT
ATOM      1  O   LIG    1       11.731   1.751  30.906  0.00  0.00    -0.451 OA
ENDROOT
BRANCH   1   4
ATOM      2 CL   LIG    1       13.586   3.845  32.318  0.00  0.00    -0.080 Cl
ATOM      3  C   LIG    1       12.289   2.925  32.994  0.00  0.00    +0.085 A 
ATOM      4  C   LIG    1       11.530   2.021  32.237  0.00  0.00    +0.147 A 
ATOM      5  C   LIG    1       10.402   1.419  32.804  0.00  0.00    +0.049 A 
ATOM      6  C   LIG    1       10.074   1.654  34.140  0.00  0.00    +0.023 A 
ATOM      7  C   LIG    1       10.880   2.494  34.908  0.00  0.00    +0.043 A 
ATOM      8 CL   LIG    1       10.495   2.759  36.564  0.00  0.00    -0.083 Cl
ATOM      9  C   LIG    1       11.980   3.134  34.342  0.00  0.00    +0.043 A 
ENDBRANCH   1   4
BRANCH   1  10
ATOM     10  C   LIG    1       10.925   2.304  29.935  0.00  0.00    +0.170 A 
ATOM     11  C   LIG    1        9.822   1.729  29.285  0.00  0.00    +0.160 A 
ATOM     12  C   LIG    1        9.157   2.429  28.272  0.00  0.00    +0.069 A 
ATOM     13  C   LIG    1        9.561   3.716  27.935  0.00  0.00    +0.045 A 
ATOM     14 CL   LIG    1        8.745   4.571  26.684  0.00  0.00    -0.083 Cl
ATOM     15  C   LIG    1       10.619   4.324  28.607  0.00  0.00    +0.024 A 
ATOM     16  C   LIG    1       11.295   3.614  29.601  0.00  0.00    +0.051 A 
BRANCH  11  17
ATOM     17  O   LIG    1        9.364   0.488  29.627  0.00  0.00    -0.503 OA
ATOM     18  H   LIG    1        9.683   0.263  30.519  0.00  0.00    +0.292 HD
ENDBRANCH  11  17
ENDBRANCH   1  10
TORSDOF 3
ENDMDL
MODEL 7
REMARK VINA RESULT:      -7.0      1.566      2.142
REMARK  Name = 
REMARK                            x       y       z     vdW  Elec       q    Type
REMARK                         _______ _______ _______ _____ _____    ______ ____
ROOT
ATOM      1  O   LIG    1       10.680   1.454  28.464  0.00  0.00    -0.451 OA
ENDROOT
BRANCH   1   4
ATOM      2 CL   LIG    1        8.652  -0.870  27.909  0.00  0.00    -0.080 Cl
ATOM      3  C   LIG    1        8.447   0.826  27.647  0.00  0.00    +0.085 A 
ATOM      4  C   LIG    1        9.445   1.763  27.951  0.00  0.00    +0.147 A 
ATOM      5  C   LIG    1        9.163   3.130  27.856  0.00  0.00    +0.049 A 
ATOM      6  C   LIG    1        7.922   3.563  27.387  0.00  0.00    +0.023 A 
ATOM      7  C   LIG    1        6.963   2.623  27.012  0.00  0.00    +0.043 A 
ATOM      8 CL   LIG    1        5.444   3.155  26.403  0.00  0.00    -0.083 Cl
ATOM      9  C   LIG    1        7.216   1.259  27.145  0.00  0.00    +0.043 A 
ENDBRANCH   1   4
BRANCH   1  10
ATOM     10  C   LIG    1       11.041   1.835  29.738  0.00  0.00    +0.170 A 
ATOM     11  C   LIG    1       10.522   1.384  30.962  0.00  0.00    +0.160 A 
ATOM     12  C   LIG    1       10.977   1.935  32.166  0.00  0.00    +0.069 A 
ATOM     13  C   LIG    1       11.976   2.903  32.154  0.00  0.00    +0.045 A 
ATOM     14 CL   LIG    1       12.528   3.584  33.636  0.00  0.00    -0.083 Cl
ATOM     15  C   LIG    1       12.541   3.322  30.952  0.00  0.00    +0.024 A 
ATOM     16  C   LIG    1       12.069   2.787  29.753  0.00  0.00    +0.051 A 
BRANCH  11  17
ATOM     17  O   LIG    1        9.578   0.398  31.014  0.00  0.00    -0.503 OA
ATOM     18  H   LIG    1        9.664  -0.083  31.856  0.00  0.00    +0.292 HD
ENDBRANCH  11  17
ENDBRANCH   1  10
TORSDOF 3
ENDMDL
MODEL 8
REMARK VINA RESULT:      -6.9      1.809      5.887
REMARK  Name = 
REMARK                            x       y       z     vdW  Elec       q    Type
REMARK                         _______ _______ _______ _____ _____    ______ ____
ROOT
ATOM      1  O   LIG    1       10.560   1.567  28.732  0.00  0.00    -0.451 OA
ENDROOT
BRANCH   1   4
ATOM      2 CL   LIG    1       12.845   3.188  30.138  0.00  0.00    -0.080 Cl
ATOM      3  C   LIG    1       11.552   2.296  30.861  0.00  0.00    +0.085 A 
ATOM      4  C   LIG    1       10.586   1.619  30.103  0.00  0.00    +0.147 A 
ATOM      5  C   LIG    1        9.484   1.042  30.743  0.00  0.00    +0.049 A 
ATOM      6  C   LIG    1        9.382   1.071  32.134  0.00  0.00    +0.023 A 
ATOM      7  C   LIG    1       10.387   1.679  32.884  0.00  0.00    +0.043 A 
ATOM      8 CL   LIG    1       10.278   1.688  34.602  0.00  0.00    -0.083 Cl
ATOM      9  C   LIG    1       11.467   2.296  32.256  0.00  0.00    +0.043 A 
ENDBRANCH   1   4
BRANCH   1  10
ATOM     10  C   LIG    1        9.588   2.224  28.010  0.00  0.00    +0.170 A 
ATOM     11  C   LIG    1        9.416   3.607  27.835  0.00  0.00    +0.160 A 
ATOM     12  C   LIG    1        8.324   4.095  27.109  0.00  0.00    +0.069 A 
ATOM     13  C   LIG    1        7.428   3.209  26.520  0.00  0.00    +0.045 A 
ATOM     14 CL   LIG    1        6.082   3.814  25.634  0.00  0.00    -0.083 Cl
ATOM     15  C   LIG    1        7.614   1.834  26.636  0.00  0.00    +0.024 A 
ATOM     16  C   LIG    1        8.691   1.351  27.381  0.00  0.00    +0.051 A 
BRANCH  11  17
ATOM     17  O   LIG    1       10.306   4.504  28.354  0.00  0.00    -0.503 OA
ATOM     18  H   LIG    1       10.345   4.394  29.320  0.00  0.00    +0.292 HD
ENDBRANCH  11  17
ENDBRANCH   1  10
TORSDOF 3
ENDMDL
MODEL 9
REMARK VINA RESULT:      -6.9      8.403      9.236
REMARK  Name = 
REMARK                            x       y       z     vdW  Elec       q    Type
REMARK                         _______ _______ _______ _____ _____    ______ ____
ROOT
ATOM      1  O   LIG    1       18.481   4.377  28.131  0.00  0.00    -0.451 OA
ENDROOT
BRANCH   1   4
ATOM      2 CL   LIG    1       20.195   5.189  25.635  0.00  0.00    -0.080 Cl
ATOM      3  C   LIG    1       18.553   4.653  25.688  0.00  0.00    +0.085 A 
ATOM      4  C   LIG    1       17.908   4.312  26.885  0.00  0.00    +0.147 A 
ATOM      5  C   LIG    1       16.629   3.744  26.846  0.00  0.00    +0.049 A 
ATOM      6  C   LIG    1       15.964   3.589  25.629  0.00  0.00    +0.023 A 
ATOM      7  C   LIG    1       16.582   4.003  24.451  0.00  0.00    +0.043 A 
ATOM      8 CL   LIG    1       15.751   3.840  22.953  0.00  0.00    -0.083 Cl
ATOM      9  C   LIG    1       17.873   4.528  24.472  0.00  0.00    +0.043 A 
ENDBRANCH   1   4
BRANCH   1  10
ATOM     10  C   LIG    1       18.235   5.436  28.977  0.00  0.00    +0.170 A 
ATOM     11  C   LIG    1       17.183   5.594  29.893  0.00  0.00    +0.160 A 
ATOM     12  C   LIG    1       17.063   6.777  30.631  0.00  0.00    +0.069 A 
ATOM     13  C   LIG    1       18.012   7.785  30.490  0.00  0.00    +0.045 A 
ATOM     14 CL   LIG    1       17.857   9.241  31.394  0.00  0.00    -0.083 Cl
ATOM     15  C   LIG    1       19.092   7.622  29.626  0.00  0.00    +0.024 A 
ATOM     16  C   LIG    1       19.196   6.451  28.875  0.00  0.00    +0.051 A 
BRANCH  11  17
ATOM     17  O   LIG    1       16.264   4.604  30.097  0.00  0.00    -0.503 OA
ATOM     18  H   LIG    1       16.608   3.979  30.760  0.00  0.00    +0.292 HD
ENDBRANCH  11  17
ENDBRANCH   1  10
TORSDOF 3
ENDMDL
