MODEL 1
REMARK VINA RESULT:      -2.5      0.000      0.000
REMARK  Name = 
REMARK                            x       y       z     vdW  Elec       q    Type
REMARK                         _______ _______ _______ _____ _____    ______ ____
ROOT
ATOM      1  O   LIG    1       16.494   2.567  53.552  0.00  0.00    -0.451 OA
ENDROOT
BRANCH   1   4
ATOM      2 CL   LIG    1       16.836  -0.482  54.190  0.00  0.00    -0.080 Cl
ATOM      3  C   LIG    1       15.910   0.260  52.934  0.00  0.00    +0.085 A 
ATOM      4  C   LIG    1       15.840   1.650  52.768  0.00  0.00    +0.147 A 
ATOM      5  C   LIG    1       14.957   2.191  51.827  0.00  0.00    +0.049 A 
ATOM      6  C   LIG    1       14.206   1.354  51.002  0.00  0.00    +0.023 A 
ATOM      7  C   LIG    1       14.340  -0.029  51.121  0.00  0.00    +0.043 A 
ATOM      8 CL   LIG    1       13.438  -1.062  50.082  0.00  0.00    -0.083 Cl
ATOM      9  C   LIG    1       15.182  -0.580  52.085  0.00  0.00    +0.043 A 
ENDBRANCH   1   4
BRANCH   1  10
ATOM     10  C   LIG    1       17.511   3.346  53.043  0.00  0.00    +0.170 A 
ATOM     11  C   LIG    1       18.798   2.950  52.647  0.00  0.00    +0.160 A 
ATOM     12  C   LIG    1       19.724   3.902  52.207  0.00  0.00    +0.069 A 
ATOM     13  C   LIG    1       19.357   5.241  52.119  0.00  0.00    +0.045 A 
ATOM     14 CL   LIG    1       20.502   6.410  51.584  0.00  0.00    -0.083 Cl
ATOM     15  C   LIG    1       18.067   5.644  52.455  0.00  0.00    +0.024 A 
ATOM     16  C   LIG    1       17.154   4.695  52.916  0.00  0.00    +0.051 A 
BRANCH  11  17
ATOM     17  O   LIG    1       19.176   1.637  52.670  0.00  0.00    -0.503 OA
ATOM     18  H   LIG    1       18.874   1.203  51.853  0.00  0.00    +0.292 HD
ENDBRANCH  11  17
ENDBRANCH   1  10
TORSDOF 3
ENDMDL
MODEL 2
REMARK VINA RESULT:      -2.4      1.774      5.908
REMARK  Name = 
REMARK                            x       y       z     vdW  Elec       q    Type
REMARK                         _______ _______ _______ _____ _____    ______ ____
ROOT
ATOM      1  O   LIG    1       16.821   3.637  53.489  0.00  0.00    -0.451 OA
ENDROOT
BRANCH   1   4
ATOM      2 CL   LIG    1       19.707   3.005  54.536  0.00  0.00    -0.080 Cl
ATOM      3  C   LIG    1       19.240   3.823  53.087  0.00  0.00    +0.085 A 
ATOM      4  C   LIG    1       17.899   4.031  52.736  0.00  0.00    +0.147 A 
ATOM      5  C   LIG    1       17.587   4.566  51.481  0.00  0.00    +0.049 A 
ATOM      6  C   LIG    1       18.603   4.963  50.612  0.00  0.00    +0.023 A 
ATOM      7  C   LIG    1       19.934   4.824  51.001  0.00  0.00    +0.043 A 
ATOM      8 CL   LIG    1       21.188   5.343  49.943  0.00  0.00    -0.083 Cl
ATOM      9  C   LIG    1       20.259   4.252  52.230  0.00  0.00    +0.043 A 
ENDBRANCH   1   4
BRANCH   1  10
ATOM     10  C   LIG    1       15.934   2.690  53.027  0.00  0.00    +0.170 A 
ATOM     11  C   LIG    1       14.603   2.869  52.616  0.00  0.00    +0.160 A 
ATOM     12  C   LIG    1       13.831   1.768  52.230  0.00  0.00    +0.069 A 
ATOM     13  C   LIG    1       14.393   0.496  52.212  0.00  0.00    +0.045 A 
ATOM     14 CL   LIG    1       13.438  -0.857  51.744  0.00  0.00    -0.083 Cl
ATOM     15  C   LIG    1       15.728   0.307  52.563  0.00  0.00    +0.024 A 
ATOM     16  C   LIG    1       16.488   1.405  52.969  0.00  0.00    +0.051 A 
BRANCH  11  17
ATOM     17  O   LIG    1       14.034   4.110  52.571  0.00  0.00    -0.503 OA
ATOM     18  H   LIG    1       14.283   4.546  51.737  0.00  0.00    +0.292 HD
ENDBRANCH  11  17
ENDBRANCH   1  10
TORSDOF 3
ENDMDL
MODEL 3
REMARK VINA RESULT:      -2.4      2.720      6.103
REMARK  Name = 
REMARK                            x       y       z     vdW  Elec       q    Type
REMARK                         _______ _______ _______ _____ _____    ______ ____
ROOT
ATOM      1  O   LIG    1       15.862   3.697  53.952  0.00  0.00    -0.451 OA
ENDROOT
BRANCH   1   4
ATOM      2 CL   LIG    1       13.971   5.541  55.640  0.00  0.00    -0.080 Cl
ATOM      3  C   LIG    1       15.017   5.975  54.335  0.00  0.00    +0.085 A 
ATOM      4  C   LIG    1       15.821   5.040  53.669  0.00  0.00    +0.147 A 
ATOM      5  C   LIG    1       16.755   5.478  52.723  0.00  0.00    +0.049 A 
ATOM      6  C   LIG    1       16.834   6.829  52.385  0.00  0.00    +0.023 A 
ATOM      7  C   LIG    1       15.976   7.742  52.997  0.00  0.00    +0.043 A 
ATOM      8 CL   LIG    1       16.052   9.404  52.558  0.00  0.00    -0.083 Cl
ATOM      9  C   LIG    1       15.074   7.325  53.973  0.00  0.00    +0.043 A 
ENDBRANCH   1   4
BRANCH   1  10
ATOM     10  C   LIG    1       15.420   2.761  53.043  0.00  0.00    +0.170 A 
ATOM     11  C   LIG    1       16.153   1.738  52.420  0.00  0.00    +0.160 A 
ATOM     12  C   LIG    1       15.542   0.913  51.469  0.00  0.00    +0.069 A 
ATOM     13  C   LIG    1       14.193   1.076  51.170  0.00  0.00    +0.045 A 
ATOM     14 CL   LIG    1       13.447   0.064  49.995  0.00  0.00    -0.083 Cl
ATOM     15  C   LIG    1       13.438   2.050  51.819  0.00  0.00    +0.024 A 
ATOM     16  C   LIG    1       14.056   2.886  52.749  0.00  0.00    +0.051 A 
BRANCH  11  17
ATOM     17  O   LIG    1       17.464   1.514  52.728  0.00  0.00    -0.503 OA
ATOM     18  H   LIG    1       17.877   2.353  53.000  0.00  0.00    +0.292 HD
ENDBRANCH  11  17
ENDBRANCH   1  10
TORSDOF 3
ENDMDL
MODEL 4
REMARK VINA RESULT:      -2.3      1.654      2.181
REMARK  Name = 
REMARK                            x       y       z     vdW  Elec       q    Type
REMARK                         _______ _______ _______ _____ _____    ______ ____
ROOT
ATOM      1  O   LIG    1       17.238   3.732  53.270  0.00  0.00    -0.451 OA
ENDROOT
BRANCH   1   4
ATOM      2 CL   LIG    1       18.097   0.980  54.499  0.00  0.00    -0.080 Cl
ATOM      3  C   LIG    1       16.780   1.321  53.433  0.00  0.00    +0.085 A 
ATOM      4  C   LIG    1       16.504   2.613  52.963  0.00  0.00    +0.147 A 
ATOM      5  C   LIG    1       15.339   2.847  52.225  0.00  0.00    +0.049 A 
ATOM      6  C   LIG    1       14.492   1.790  51.890  0.00  0.00    +0.023 A 
ATOM      7  C   LIG    1       14.815   0.496  52.295  0.00  0.00    +0.043 A 
ATOM      8 CL   LIG    1       13.789  -0.813  51.856  0.00  0.00    -0.083 Cl
ATOM      9  C   LIG    1       15.949   0.257  53.069  0.00  0.00    +0.043 A 
ENDBRANCH   1   4
BRANCH   1  10
ATOM     10  C   LIG    1       18.236   4.184  52.435  0.00  0.00    +0.170 A 
ATOM     11  C   LIG    1       18.131   5.070  51.351  0.00  0.00    +0.160 A 
ATOM     12  C   LIG    1       19.256   5.369  50.574  0.00  0.00    +0.069 A 
ATOM     13  C   LIG    1       20.492   4.822  50.900  0.00  0.00    +0.045 A 
ATOM     14 CL   LIG    1       21.872   5.186  49.938  0.00  0.00    -0.083 Cl
ATOM     15  C   LIG    1       20.626   3.985  52.006  0.00  0.00    +0.024 A 
ATOM     16  C   LIG    1       19.497   3.671  52.764  0.00  0.00    +0.051 A 
BRANCH  11  17
ATOM     17  O   LIG    1       16.944   5.667  51.033  0.00  0.00    -0.503 OA
ATOM     18  H   LIG    1       17.099   6.611  50.850  0.00  0.00    +0.292 HD
ENDBRANCH  11  17
ENDBRANCH   1  10
TORSDOF 3
ENDMDL
MODEL 5
REMARK VINA RESULT:      -2.3      2.020      6.255
REMARK  Name = 
REMARK                            x       y       z     vdW  Elec       q    Type
REMARK                         _______ _______ _______ _____ _____    ______ ____
ROOT
ATOM      1  O   LIG    1       15.725   2.637  53.951  0.00  0.00    -0.451 OA
ENDROOT
BRANCH   1   4
ATOM      2 CL   LIG    1       14.544   5.326  55.048  0.00  0.00    -0.080 Cl
ATOM      3  C   LIG    1       15.959   5.082  54.087  0.00  0.00    +0.085 A 
ATOM      4  C   LIG    1       16.379   3.811  53.669  0.00  0.00    +0.147 A 
ATOM      5  C   LIG    1       17.611   3.666  53.021  0.00  0.00    +0.049 A 
ATOM      6  C   LIG    1       18.385   4.788  52.721  0.00  0.00    +0.023 A 
ATOM      7  C   LIG    1       17.923   6.055  53.071  0.00  0.00    +0.043 A 
ATOM      8 CL   LIG    1       18.861   7.441  52.672  0.00  0.00    -0.083 Cl
ATOM      9  C   LIG    1       16.719   6.208  53.756  0.00  0.00    +0.043 A 
ENDBRANCH   1   4
BRANCH   1  10
ATOM     10  C   LIG    1       15.123   1.898  52.956  0.00  0.00    +0.170 A 
ATOM     11  C   LIG    1       14.037   2.254  52.141  0.00  0.00    +0.160 A 
ATOM     12  C   LIG    1       13.520   1.339  51.217  0.00  0.00    +0.069 A 
ATOM     13  C   LIG    1       14.110   0.088  51.071  0.00  0.00    +0.045 A 
ATOM     14 CL   LIG    1       13.467  -1.037  49.938  0.00  0.00    -0.083 Cl
ATOM     15  C   LIG    1       15.223  -0.261  51.832  0.00  0.00    +0.024 A 
ATOM     16  C   LIG    1       15.721   0.644  52.770  0.00  0.00    +0.051 A 
BRANCH  11  17
ATOM     17  O   LIG    1       13.466   3.493  52.219  0.00  0.00    -0.503 OA
ATOM     18  H   LIG    1       13.809   4.049  51.499  0.00  0.00    +0.292 HD
ENDBRANCH  11  17
ENDBRANCH   1  10
TORSDOF 3
ENDMDL
MODEL 6
REMARK VINA RESULT:      -2.3      2.831      5.699
REMARK  Name = 
REMARK                            x       y       z     vdW  Elec       q    Type
REMARK                         _______ _______ _______ _____ _____    ______ ____
ROOT
ATOM      1  O   LIG    1       17.918   2.683  51.117  0.00  0.00    -0.451 OA
ENDROOT
BRANCH   1   4
ATOM      2 CL   LIG    1       20.088   1.905  53.242  0.00  0.00    -0.080 Cl
ATOM      3  C   LIG    1       20.164   3.122  52.017  0.00  0.00    +0.085 A 
ATOM      4  C   LIG    1       19.112   3.359  51.121  0.00  0.00    +0.147 A 
ATOM      5  C   LIG    1       19.294   4.254  50.061  0.00  0.00    +0.049 A 
ATOM      6  C   LIG    1       20.486   4.968  49.938  0.00  0.00    +0.023 A 
ATOM      7  C   LIG    1       21.498   4.784  50.879  0.00  0.00    +0.043 A 
ATOM      8 CL   LIG    1       22.957   5.687  50.747  0.00  0.00    -0.083 Cl
ATOM      9  C   LIG    1       21.346   3.862  51.913  0.00  0.00    +0.043 A 
ENDBRANCH   1   4
BRANCH   1  10
ATOM     10  C   LIG    1       16.997   2.853  52.128  0.00  0.00    +0.170 A 
ATOM     11  C   LIG    1       16.442   1.879  52.974  0.00  0.00    +0.160 A 
ATOM     12  C   LIG    1       15.467   2.235  53.912  0.00  0.00    +0.069 A 
ATOM     13  C   LIG    1       15.075   3.564  54.039  0.00  0.00    +0.045 A 
ATOM     14 CL   LIG    1       13.869   3.996  55.189  0.00  0.00    -0.083 Cl
ATOM     15  C   LIG    1       15.655   4.551  53.246  0.00  0.00    +0.024 A 
ATOM     16  C   LIG    1       16.610   4.189  52.296  0.00  0.00    +0.051 A 
BRANCH  11  17
ATOM     17  O   LIG    1       16.842   0.574  52.914  0.00  0.00    -0.503 OA
ATOM     18  H   LIG    1       17.287   0.415  52.064  0.00  0.00    +0.292 HD
ENDBRANCH  11  17
ENDBRANCH   1  10
TORSDOF 3
ENDMDL
MODEL 7
REMARK VINA RESULT:      -2.3      2.256      2.987
REMARK  Name = 
REMARK                            x       y       z     vdW  Elec       q    Type
REMARK                         _______ _______ _______ _____ _____    ______ ____
ROOT
ATOM      1  O   LIG    1       17.122   4.315  53.417  0.00  0.00    -0.451 OA
ENDROOT
BRANCH   1   4
ATOM      2 CL   LIG    1       14.081   5.051  53.613  0.00  0.00    -0.080 Cl
ATOM      3  C   LIG    1       14.804   3.609  52.994  0.00  0.00    +0.085 A 
ATOM      4  C   LIG    1       16.192   3.414  52.959  0.00  0.00    +0.147 A 
ATOM      5  C   LIG    1       16.718   2.291  52.310  0.00  0.00    +0.049 A 
ATOM      6  C   LIG    1       15.868   1.328  51.768  0.00  0.00    +0.023 A 
ATOM      7  C   LIG    1       14.488   1.491  51.876  0.00  0.00    +0.043 A 
ATOM      8 CL   LIG    1       13.438   0.288  51.235  0.00  0.00    -0.083 Cl
ATOM      9  C   LIG    1       13.951   2.627  52.480  0.00  0.00    +0.043 A 
ENDBRANCH   1   4
BRANCH   1  10
ATOM     10  C   LIG    1       18.005   4.931  52.557  0.00  0.00    +0.170 A 
ATOM     11  C   LIG    1       17.720   5.800  51.491  0.00  0.00    +0.160 A 
ATOM     12  C   LIG    1       18.754   6.285  50.683  0.00  0.00    +0.069 A 
ATOM     13  C   LIG    1       20.074   5.943  50.961  0.00  0.00    +0.045 A 
ATOM     14 CL   LIG    1       21.342   6.536  49.960  0.00  0.00    -0.083 Cl
ATOM     15  C   LIG    1       20.379   5.127  52.047  0.00  0.00    +0.024 A 
ATOM     16  C   LIG    1       19.343   4.626  52.837  0.00  0.00    +0.051 A 
BRANCH  11  17
ATOM     17  O   LIG    1       16.442   6.199  51.222  0.00  0.00    -0.503 OA
ATOM     18  H   LIG    1       15.909   5.423  50.976  0.00  0.00    +0.292 HD
ENDBRANCH  11  17
ENDBRANCH   1  10
TORSDOF 3
ENDMDL
MODEL 8
REMARK VINA RESULT:      -2.3      1.977      6.118
REMARK  Name = 
REMARK                            x       y       z     vdW  Elec       q    Type
REMARK                         _______ _______ _______ _____ _____    ______ ____
ROOT
ATOM      1  O   LIG    1       17.893   3.548  53.454  0.00  0.00    -0.451 OA
ENDROOT
BRANCH   1   4
ATOM      2 CL   LIG    1       18.191   4.761  50.579  0.00  0.00    -0.080 Cl
ATOM      3  C   LIG    1       19.359   3.893  51.510  0.00  0.00    +0.085 A 
ATOM      4  C   LIG    1       19.091   3.410  52.798  0.00  0.00    +0.147 A 
ATOM      5  C   LIG    1       20.124   2.847  53.556  0.00  0.00    +0.049 A 
ATOM      6  C   LIG    1       21.398   2.694  53.007  0.00  0.00    +0.023 A 
ATOM      7  C   LIG    1       21.636   3.107  51.697  0.00  0.00    +0.043 A 
ATOM      8 CL   LIG    1       23.198   2.890  51.009  0.00  0.00    -0.083 Cl
ATOM      9  C   LIG    1       20.627   3.710  50.948  0.00  0.00    +0.043 A 
ENDBRANCH   1   4
BRANCH   1  10
ATOM     10  C   LIG    1       16.787   2.816  53.084  0.00  0.00    +0.170 A 
ATOM     11  C   LIG    1       15.554   3.283  52.601  0.00  0.00    +0.160 A 
ATOM     12  C   LIG    1       14.517   2.383  52.332  0.00  0.00    +0.069 A 
ATOM     13  C   LIG    1       14.718   1.017  52.501  0.00  0.00    +0.045 A 
ATOM     14 CL   LIG    1       13.438  -0.086  52.176  0.00  0.00    -0.083 Cl
ATOM     15  C   LIG    1       15.953   0.532  52.928  0.00  0.00    +0.024 A 
ATOM     16  C   LIG    1       16.977   1.434  53.217  0.00  0.00    +0.051 A 
BRANCH  11  17
ATOM     17  O   LIG    1       15.338   4.612  52.371  0.00  0.00    -0.503 OA
ATOM     18  H   LIG    1       15.648   4.837  51.477  0.00  0.00    +0.292 HD
ENDBRANCH  11  17
ENDBRANCH   1  10
TORSDOF 3
ENDMDL
MODEL 9
REMARK VINA RESULT:      -2.2      1.949      5.847
REMARK  Name = 
REMARK                            x       y       z     vdW  Elec       q    Type
REMARK                         _______ _______ _______ _____ _____    ______ ____
ROOT
ATOM      1  O   LIG    1       17.595   2.799  53.992  0.00  0.00    -0.451 OA
ENDROOT
BRANCH   1   4
ATOM      2 CL   LIG    1       19.628   0.979  55.535  0.00  0.00    -0.080 Cl
ATOM      3  C   LIG    1       19.913   1.995  54.167  0.00  0.00    +0.085 A 
ATOM      4  C   LIG    1       18.899   2.756  53.567  0.00  0.00    +0.147 A 
ATOM      5  C   LIG    1       19.161   3.440  52.375  0.00  0.00    +0.049 A 
ATOM      6  C   LIG    1       20.443   3.432  51.824  0.00  0.00    +0.023 A 
ATOM      7  C   LIG    1       21.464   2.737  52.470  0.00  0.00    +0.043 A 
ATOM      8 CL   LIG    1       23.052   2.753  51.809  0.00  0.00    -0.083 Cl
ATOM      9  C   LIG    1       21.206   2.014  53.633  0.00  0.00    +0.043 A 
ENDBRANCH   1   4
BRANCH   1  10
ATOM     10  C   LIG    1       16.594   2.158  53.295  0.00  0.00    +0.170 A 
ATOM     11  C   LIG    1       15.617   2.721  52.459  0.00  0.00    +0.160 A 
ATOM     12  C   LIG    1       14.635   1.910  51.878  0.00  0.00    +0.069 A 
ATOM     13  C   LIG    1       14.651   0.536  52.093  0.00  0.00    +0.045 A 
ATOM     14 CL   LIG    1       13.438  -0.457  51.382  0.00  0.00    -0.083 Cl
ATOM     15  C   LIG    1       15.646  -0.046  52.875  0.00  0.00    +0.024 A 
ATOM     16  C   LIG    1       16.609   0.768  53.471  0.00  0.00    +0.051 A 
BRANCH  11  17
ATOM     17  O   LIG    1       15.602   4.059  52.183  0.00  0.00    -0.503 OA
ATOM     18  H   LIG    1       14.768   4.285  51.736  0.00  0.00    +0.292 HD
ENDBRANCH  11  17
ENDBRANCH   1  10
TORSDOF 3
ENDMDL
