MODEL 1
REMARK VINA RESULT:      -8.4      0.000      0.000
REMARK  Name = 
REMARK                            x       y       z     vdW  Elec       q    Type
REMARK                         _______ _______ _______ _____ _____    ______ ____
ROOT
ATOM      1  O   LIG    1       26.679   1.215  20.993  0.00  0.00    -0.451 OA
ENDROOT
BRANCH   1   4
ATOM      2 CL   LIG    1       26.560  -1.107  18.891  0.00  0.00    -0.080 Cl
ATOM      3  C   LIG    1       26.394   0.593  18.630  0.00  0.00    +0.085 A 
ATOM      4  C   LIG    1       26.462   1.527  19.674  0.00  0.00    +0.147 A 
ATOM      5  C   LIG    1       26.172   2.872  19.419  0.00  0.00    +0.049 A 
ATOM      6  C   LIG    1       25.894   3.300  18.121  0.00  0.00    +0.023 A 
ATOM      7  C   LIG    1       25.906   2.377  17.076  0.00  0.00    +0.043 A 
ATOM      8 CL   LIG    1       25.593   2.908  15.470  0.00  0.00    -0.083 Cl
ATOM      9  C   LIG    1       26.148   1.027  17.324  0.00  0.00    +0.043 A 
ENDBRANCH   1   4
BRANCH   1  10
ATOM     10  C   LIG    1       27.903   0.754  21.427  0.00  0.00    +0.170 A 
ATOM     11  C   LIG    1       29.177   1.276  21.153  0.00  0.00    +0.160 A 
ATOM     12  C   LIG    1       30.321   0.631  21.637  0.00  0.00    +0.069 A 
ATOM     13  C   LIG    1       30.196  -0.506  22.429  0.00  0.00    +0.045 A 
ATOM     14 CL   LIG    1       31.606  -1.300  23.017  0.00  0.00    -0.083 Cl
ATOM     15  C   LIG    1       28.938  -1.005  22.756  0.00  0.00    +0.024 A 
ATOM     16  C   LIG    1       27.800  -0.373  22.252  0.00  0.00    +0.051 A 
BRANCH  11  17
ATOM     17  O   LIG    1       29.335   2.420  20.424  0.00  0.00    -0.503 OA
ATOM     18  H   LIG    1       29.220   2.216  19.479  0.00  0.00    +0.292 HD
ENDBRANCH  11  17
ENDBRANCH   1  10
TORSDOF 3
ENDMDL
MODEL 2
REMARK VINA RESULT:      -7.8      1.404      6.087
REMARK  Name = 
REMARK                            x       y       z     vdW  Elec       q    Type
REMARK                         _______ _______ _______ _____ _____    ______ ____
ROOT
ATOM      1  O   LIG    1       26.889   1.145  21.261  0.00  0.00    -0.451 OA
ENDROOT
BRANCH   1   4
ATOM      2 CL   LIG    1       29.587   2.406  20.282  0.00  0.00    -0.080 Cl
ATOM      3  C   LIG    1       29.345   1.002  21.259  0.00  0.00    +0.085 A 
ATOM      4  C   LIG    1       28.070   0.551  21.632  0.00  0.00    +0.147 A 
ATOM      5  C   LIG    1       27.948  -0.502  22.545  0.00  0.00    +0.049 A 
ATOM      6  C   LIG    1       29.083  -1.155  23.024  0.00  0.00    +0.023 A 
ATOM      7  C   LIG    1       30.344  -0.751  22.588  0.00  0.00    +0.043 A 
ATOM      8 CL   LIG    1       31.744  -1.576  23.154  0.00  0.00    -0.083 Cl
ATOM      9  C   LIG    1       30.482   0.326  21.714  0.00  0.00    +0.043 A 
ENDBRANCH   1   4
BRANCH   1  10
ATOM     10  C   LIG    1       26.574   1.344  19.935  0.00  0.00    +0.170 A 
ATOM     11  C   LIG    1       26.510   0.395  18.903  0.00  0.00    +0.160 A 
ATOM     12  C   LIG    1       26.228   0.797  17.592  0.00  0.00    +0.069 A 
ATOM     13  C   LIG    1       25.967   2.136  17.316  0.00  0.00    +0.045 A 
ATOM     14 CL   LIG    1       25.628   2.628  15.702  0.00  0.00    -0.083 Cl
ATOM     15  C   LIG    1       25.972   3.082  18.338  0.00  0.00    +0.024 A 
ATOM     16  C   LIG    1       26.276   2.681  19.639  0.00  0.00    +0.051 A 
BRANCH  11  17
ATOM     17  O   LIG    1       26.708  -0.935  19.146  0.00  0.00    -0.503 OA
ATOM     18  H   LIG    1       27.262  -1.036  19.940  0.00  0.00    +0.292 HD
ENDBRANCH  11  17
ENDBRANCH   1  10
TORSDOF 3
ENDMDL
MODEL 3
REMARK VINA RESULT:      -7.8      1.103      1.806
REMARK  Name = 
REMARK                            x       y       z     vdW  Elec       q    Type
REMARK                         _______ _______ _______ _____ _____    ______ ____
ROOT
ATOM      1  O   LIG    1       26.530   1.732  20.524  0.00  0.00    -0.451 OA
ENDROOT
BRANCH   1   4
ATOM      2 CL   LIG    1       26.457  -0.706  18.556  0.00  0.00    -0.080 Cl
ATOM      3  C   LIG    1       26.255   0.973  18.201  0.00  0.00    +0.085 A 
ATOM      4  C   LIG    1       26.304   1.965  19.191  0.00  0.00    +0.147 A 
ATOM      5  C   LIG    1       25.986   3.288  18.862  0.00  0.00    +0.049 A 
ATOM      6  C   LIG    1       25.697   3.636  17.542  0.00  0.00    +0.023 A 
ATOM      7  C   LIG    1       25.727   2.656  16.551  0.00  0.00    +0.043 A 
ATOM      8 CL   LIG    1       25.401   3.090  14.918  0.00  0.00    -0.083 Cl
ATOM      9  C   LIG    1       25.998   1.328  16.873  0.00  0.00    +0.043 A 
ENDBRANCH   1   4
BRANCH   1  10
ATOM     10  C   LIG    1       27.759   1.306  20.978  0.00  0.00    +0.170 A 
ATOM     11  C   LIG    1       28.067   0.139  21.695  0.00  0.00    +0.160 A 
ATOM     12  C   LIG    1       29.377  -0.097  22.126  0.00  0.00    +0.069 A 
ATOM     13  C   LIG    1       30.388   0.804  21.808  0.00  0.00    +0.045 A 
ATOM     14 CL   LIG    1       31.997   0.513  22.346  0.00  0.00    -0.083 Cl
ATOM     15  C   LIG    1       30.111   1.939  21.050  0.00  0.00    +0.024 A 
ATOM     16  C   LIG    1       28.799   2.183  20.641  0.00  0.00    +0.051 A 
BRANCH  11  17
ATOM     17  O   LIG    1       27.111  -0.793  21.979  0.00  0.00    -0.503 OA
ATOM     18  H   LIG    1       27.530  -1.564  22.401  0.00  0.00    +0.292 HD
ENDBRANCH  11  17
ENDBRANCH   1  10
TORSDOF 3
ENDMDL
MODEL 4
REMARK VINA RESULT:      -7.8      1.282      1.853
REMARK  Name = 
REMARK                            x       y       z     vdW  Elec       q    Type
REMARK                         _______ _______ _______ _____ _____    ______ ____
ROOT
ATOM      1  O   LIG    1       26.671   1.538  21.077  0.00  0.00    -0.451 OA
ENDROOT
BRANCH   1   4
ATOM      2 CL   LIG    1       26.511   4.567  20.285  0.00  0.00    -0.080 Cl
ATOM      3  C   LIG    1       26.284   3.176  19.284  0.00  0.00    +0.085 A 
ATOM      4  C   LIG    1       26.394   1.867  19.773  0.00  0.00    +0.147 A 
ATOM      5  C   LIG    1       26.347   0.789  18.883  0.00  0.00    +0.049 A 
ATOM      6  C   LIG    1       26.114   1.006  17.525  0.00  0.00    +0.023 A 
ATOM      7  C   LIG    1       25.928   2.307  17.059  0.00  0.00    +0.043 A 
ATOM      8 CL   LIG    1       25.609   2.574  15.389  0.00  0.00    -0.083 Cl
ATOM      9  C   LIG    1       26.017   3.392  17.928  0.00  0.00    +0.043 A 
ENDBRANCH   1   4
BRANCH   1  10
ATOM     10  C   LIG    1       27.858   0.931  21.425  0.00  0.00    +0.170 A 
ATOM     11  C   LIG    1       29.167   1.348  21.136  0.00  0.00    +0.160 A 
ATOM     12  C   LIG    1       30.258   0.563  21.525  0.00  0.00    +0.069 A 
ATOM     13  C   LIG    1       30.050  -0.613  22.239  0.00  0.00    +0.045 A 
ATOM     14 CL   LIG    1       31.394  -1.580  22.709  0.00  0.00    -0.083 Cl
ATOM     15  C   LIG    1       28.761  -1.013  22.582  0.00  0.00    +0.024 A 
ATOM     16  C   LIG    1       27.674  -0.240  22.172  0.00  0.00    +0.051 A 
BRANCH  11  17
ATOM     17  O   LIG    1       29.411   2.523  20.484  0.00  0.00    -0.503 OA
ATOM     18  H   LIG    1       29.720   3.187  21.125  0.00  0.00    +0.292 HD
ENDBRANCH  11  17
ENDBRANCH   1  10
TORSDOF 3
ENDMDL
MODEL 5
REMARK VINA RESULT:      -7.6      1.419      5.950
REMARK  Name = 
REMARK                            x       y       z     vdW  Elec       q    Type
REMARK                         _______ _______ _______ _____ _____    ______ ____
ROOT
ATOM      1  O   LIG    1       26.844   1.152  21.381  0.00  0.00    -0.451 OA
ENDROOT
BRANCH   1   4
ATOM      2 CL   LIG    1       29.511   2.454  20.371  0.00  0.00    -0.080 Cl
ATOM      3  C   LIG    1       29.299   1.014  21.303  0.00  0.00    +0.085 A 
ATOM      4  C   LIG    1       28.036   0.548  21.695  0.00  0.00    +0.147 A 
ATOM      5  C   LIG    1       27.941  -0.539  22.572  0.00  0.00    +0.049 A 
ATOM      6  C   LIG    1       29.091  -1.206  22.995  0.00  0.00    +0.023 A 
ATOM      7  C   LIG    1       30.338  -0.783  22.537  0.00  0.00    +0.043 A 
ATOM      8 CL   LIG    1       31.755  -1.625  23.032  0.00  0.00    -0.083 Cl
ATOM      9  C   LIG    1       30.449   0.325  21.699  0.00  0.00    +0.043 A 
ENDBRANCH   1   4
BRANCH   1  10
ATOM     10  C   LIG    1       26.578   1.585  20.101  0.00  0.00    +0.170 A 
ATOM     11  C   LIG    1       26.315   2.892  19.660  0.00  0.00    +0.160 A 
ATOM     12  C   LIG    1       26.004   3.133  18.317  0.00  0.00    +0.069 A 
ATOM     13  C   LIG    1       25.998   2.083  17.405  0.00  0.00    +0.045 A 
ATOM     14 CL   LIG    1       25.608   2.382  15.755  0.00  0.00    -0.083 Cl
ATOM     15  C   LIG    1       26.310   0.789  17.814  0.00  0.00    +0.024 A 
ATOM     16  C   LIG    1       26.597   0.548  19.158  0.00  0.00    +0.051 A 
BRANCH  11  17
ATOM     17  O   LIG    1       26.365   3.955  20.516  0.00  0.00    -0.503 OA
ATOM     18  H   LIG    1       26.761   4.717  20.058  0.00  0.00    +0.292 HD
ENDBRANCH  11  17
ENDBRANCH   1  10
TORSDOF 3
ENDMDL
MODEL 6
REMARK VINA RESULT:      -7.3      1.470      5.854
REMARK  Name = 
REMARK                            x       y       z     vdW  Elec       q    Type
REMARK                         _______ _______ _______ _____ _____    ______ ____
ROOT
ATOM      1  O   LIG    1       26.209   1.775  20.085  0.00  0.00    -0.451 OA
ENDROOT
BRANCH   1   4
ATOM      2 CL   LIG    1       26.841  -1.291  20.252  0.00  0.00    -0.080 Cl
ATOM      3  C   LIG    1       27.846   0.043  20.696  0.00  0.00    +0.085 A 
ATOM      4  C   LIG    1       27.434   1.377  20.559  0.00  0.00    +0.147 A 
ATOM      5  C   LIG    1       28.347   2.411  20.795  0.00  0.00    +0.049 A 
ATOM      6  C   LIG    1       29.638   2.123  21.240  0.00  0.00    +0.023 A 
ATOM      7  C   LIG    1       30.014   0.797  21.448  0.00  0.00    +0.043 A 
ATOM      8 CL   LIG    1       31.595   0.443  22.026  0.00  0.00    -0.083 Cl
ATOM      9  C   LIG    1       29.128  -0.243  21.173  0.00  0.00    +0.043 A 
ENDBRANCH   1   4
BRANCH   1  10
ATOM     10  C   LIG    1       26.053   2.217  18.789  0.00  0.00    +0.170 A 
ATOM     11  C   LIG    1       25.854   3.530  18.334  0.00  0.00    +0.160 A 
ATOM     12  C   LIG    1       25.654   3.781  16.972  0.00  0.00    +0.069 A 
ATOM     13  C   LIG    1       25.694   2.733  16.058  0.00  0.00    +0.045 A 
ATOM     14 CL   LIG    1       25.440   3.045  14.385  0.00  0.00    -0.083 Cl
ATOM     15  C   LIG    1       25.945   1.431  16.486  0.00  0.00    +0.024 A 
ATOM     16  C   LIG    1       26.121   1.182  17.847  0.00  0.00    +0.051 A 
BRANCH  11  17
ATOM     17  O   LIG    1       25.861   4.589  19.197  0.00  0.00    -0.503 OA
ATOM     18  H   LIG    1       25.006   5.051  19.143  0.00  0.00    +0.292 HD
ENDBRANCH  11  17
ENDBRANCH   1  10
TORSDOF 3
ENDMDL
MODEL 7
REMARK VINA RESULT:      -7.2      1.943      6.225
REMARK  Name = 
REMARK                            x       y       z     vdW  Elec       q    Type
REMARK                         _______ _______ _______ _____ _____    ______ ____
ROOT
ATOM      1  O   LIG    1       26.173   0.975  19.689  0.00  0.00    -0.451 OA
ENDROOT
BRANCH   1   4
ATOM      2 CL   LIG    1       27.703   3.528  20.672  0.00  0.00    -0.080 Cl
ATOM      3  C   LIG    1       28.201   1.876  20.750  0.00  0.00    +0.085 A 
ATOM      4  C   LIG    1       27.406   0.823  20.275  0.00  0.00    +0.147 A 
ATOM      5  C   LIG    1       27.800  -0.500  20.502  0.00  0.00    +0.049 A 
ATOM      6  C   LIG    1       29.015  -0.776  21.128  0.00  0.00    +0.023 A 
ATOM      7  C   LIG    1       29.837   0.277  21.528  0.00  0.00    +0.043 A 
ATOM      8 CL   LIG    1       31.351  -0.062  22.272  0.00  0.00    -0.083 Cl
ATOM      9  C   LIG    1       29.435   1.599  21.348  0.00  0.00    +0.043 A 
ENDBRANCH   1   4
BRANCH   1  10
ATOM     10  C   LIG    1       26.044   1.483  18.415  0.00  0.00    +0.170 A 
ATOM     11  C   LIG    1       26.245   0.826  17.191  0.00  0.00    +0.160 A 
ATOM     12  C   LIG    1       26.124   1.529  15.987  0.00  0.00    +0.069 A 
ATOM     13  C   LIG    1       25.761   2.872  15.998  0.00  0.00    +0.045 A 
ATOM     14 CL   LIG    1       25.621   3.735  14.515  0.00  0.00    -0.083 Cl
ATOM     15  C   LIG    1       25.505   3.525  17.201  0.00  0.00    +0.024 A 
ATOM     16  C   LIG    1       25.649   2.827  18.401  0.00  0.00    +0.051 A 
BRANCH  11  17
ATOM     17  O   LIG    1       26.549  -0.504  17.139  0.00  0.00    -0.503 OA
ATOM     18  H   LIG    1       27.312  -0.681  17.718  0.00  0.00    +0.292 HD
ENDBRANCH  11  17
ENDBRANCH   1  10
TORSDOF 3
ENDMDL
MODEL 8
REMARK VINA RESULT:      -6.9      3.511      7.592
REMARK  Name = 
REMARK                            x       y       z     vdW  Elec       q    Type
REMARK                         _______ _______ _______ _____ _____    ______ ____
ROOT
ATOM      1  O   LIG    1       24.468   3.315  16.945  0.00  0.00    -0.451 OA
ENDROOT
BRANCH   1   4
ATOM      2 CL   LIG    1       25.717   4.676  19.478  0.00  0.00    -0.080 Cl
ATOM      3  C   LIG    1       26.029   3.103  18.834  0.00  0.00    +0.085 A 
ATOM      4  C   LIG    1       25.386   2.615  17.688  0.00  0.00    +0.147 A 
ATOM      5  C   LIG    1       25.571   1.282  17.304  0.00  0.00    +0.049 A 
ATOM      6  C   LIG    1       26.450   0.461  18.011  0.00  0.00    +0.023 A 
ATOM      7  C   LIG    1       27.144   0.977  19.104  0.00  0.00    +0.043 A 
ATOM      8 CL   LIG    1       28.253  -0.025  19.957  0.00  0.00    -0.083 Cl
ATOM      9  C   LIG    1       26.935   2.290  19.523  0.00  0.00    +0.043 A 
ENDBRANCH   1   4
BRANCH   1  10
ATOM     10  C   LIG    1       24.642   3.512  15.593  0.00  0.00    +0.170 A 
ATOM     11  C   LIG    1       23.660   3.650  14.599  0.00  0.00    +0.160 A 
ATOM     12  C   LIG    1       24.031   3.785  13.256  0.00  0.00    +0.069 A 
ATOM     13  C   LIG    1       25.377   3.826  12.907  0.00  0.00    +0.045 A 
ATOM     14 CL   LIG    1       25.830   3.985  11.254  0.00  0.00    -0.083 Cl
ATOM     15  C   LIG    1       26.365   3.747  13.886  0.00  0.00    +0.024 A 
ATOM     16  C   LIG    1       25.991   3.589  15.221  0.00  0.00    +0.051 A 
BRANCH  11  17
ATOM     17  O   LIG    1       22.331   3.667  14.911  0.00  0.00    -0.503 OA
ATOM     18  H   LIG    1       22.196   3.221  15.765  0.00  0.00    +0.292 HD
ENDBRANCH  11  17
ENDBRANCH   1  10
TORSDOF 3
ENDMDL
MODEL 9
REMARK VINA RESULT:      -6.7      1.779      6.009
REMARK  Name = 
REMARK                            x       y       z     vdW  Elec       q    Type
REMARK                         _______ _______ _______ _____ _____    ______ ____
ROOT
ATOM      1  O   LIG    1       27.813  -0.109  21.781  0.00  0.00    -0.451 OA
ENDROOT
BRANCH   1   4
ATOM      2 CL   LIG    1       29.135  -2.145  23.764  0.00  0.00    -0.080 Cl
ATOM      3  C   LIG    1       29.859  -0.798  22.959  0.00  0.00    +0.085 A 
ATOM      4  C   LIG    1       29.144   0.032  22.084  0.00  0.00    +0.147 A 
ATOM      5  C   LIG    1       29.822   1.013  21.351  0.00  0.00    +0.049 A 
ATOM      6  C   LIG    1       31.188   1.219  21.544  0.00  0.00    +0.023 A 
ATOM      7  C   LIG    1       31.875   0.441  22.474  0.00  0.00    +0.043 A 
ATOM      8 CL   LIG    1       33.554   0.716  22.737  0.00  0.00    -0.083 Cl
ATOM      9  C   LIG    1       31.221  -0.569  23.178  0.00  0.00    +0.043 A 
ENDBRANCH   1   4
BRANCH   1  10
ATOM     10  C   LIG    1       27.314   0.272  20.554  0.00  0.00    +0.170 A 
ATOM     11  C   LIG    1       27.393  -0.412  19.331  0.00  0.00    +0.160 A 
ATOM     12  C   LIG    1       26.874   0.165  18.166  0.00  0.00    +0.069 A 
ATOM     13  C   LIG    1       26.239   1.401  18.226  0.00  0.00    +0.045 A 
ATOM     14 CL   LIG    1       25.608   2.111  16.790  0.00  0.00    -0.083 Cl
ATOM     15  C   LIG    1       26.103   2.068  19.441  0.00  0.00    +0.024 A 
ATOM     16  C   LIG    1       26.642   1.501  20.596  0.00  0.00    +0.051 A 
BRANCH  11  17
ATOM     17  O   LIG    1       27.961  -1.651  19.244  0.00  0.00    -0.503 OA
ATOM     18  H   LIG    1       27.325  -2.269  18.843  0.00  0.00    +0.292 HD
ENDBRANCH  11  17
ENDBRANCH   1  10
TORSDOF 3
ENDMDL
