MODEL 1
REMARK VINA RESULT:      -8.2      0.000      0.000
REMARK  Name = 
REMARK                            x       y       z     vdW  Elec       q    Type
REMARK                         _______ _______ _______ _____ _____    ______ ____
ROOT
ATOM      1  O   LIG    1        2.597  19.010  29.095  0.00  0.00    -0.451 OA
ENDROOT
BRANCH   1   4
ATOM      2 CL   LIG    1        3.812  17.527  26.615  0.00  0.00    -0.080 Cl
ATOM      3  C   LIG    1        4.516  18.780  27.574  0.00  0.00    +0.085 A 
ATOM      4  C   LIG    1        3.850  19.364  28.661  0.00  0.00    +0.147 A 
ATOM      5  C   LIG    1        4.413  20.473  29.303  0.00  0.00    +0.049 A 
ATOM      6  C   LIG    1        5.666  20.950  28.918  0.00  0.00    +0.023 A 
ATOM      7  C   LIG    1        6.356  20.313  27.887  0.00  0.00    +0.043 A 
ATOM      8 CL   LIG    1        7.916  20.881  27.433  0.00  0.00    -0.083 Cl
ATOM      9  C   LIG    1        5.787  19.236  27.210  0.00  0.00    +0.043 A 
ENDBRANCH   1   4
BRANCH   1  10
ATOM     10  C   LIG    1        2.395  18.507  30.362  0.00  0.00    +0.170 A 
ATOM     11  C   LIG    1        1.678  19.081  31.423  0.00  0.00    +0.160 A 
ATOM     12  C   LIG    1        1.631  18.443  32.668  0.00  0.00    +0.069 A 
ATOM     13  C   LIG    1        2.259  17.215  32.845  0.00  0.00    +0.045 A 
ATOM     14 CL   LIG    1        2.206  16.437  34.379  0.00  0.00    -0.083 Cl
ATOM     15  C   LIG    1        2.928  16.604  31.787  0.00  0.00    +0.024 A 
ATOM     16  C   LIG    1        2.993  17.254  30.553  0.00  0.00    +0.051 A 
BRANCH  11  17
ATOM     17  O   LIG    1        1.004  20.260  31.271  0.00  0.00    -0.503 OA
ATOM     18  H   LIG    1        1.361  20.915  31.896  0.00  0.00    +0.292 HD
ENDBRANCH  11  17
ENDBRANCH   1  10
TORSDOF 3
ENDMDL
MODEL 2
REMARK VINA RESULT:      -8.0      1.746      1.918
REMARK  Name = 
REMARK                            x       y       z     vdW  Elec       q    Type
REMARK                         _______ _______ _______ _____ _____    ______ ____
ROOT
ATOM      1  O   LIG    1        3.491  17.484  29.995  0.00  0.00    -0.451 OA
ENDROOT
BRANCH   1   4
ATOM      2 CL   LIG    1        3.687  19.526  27.625  0.00  0.00    -0.080 Cl
ATOM      3  C   LIG    1        4.891  19.110  28.793  0.00  0.00    +0.085 A 
ATOM      4  C   LIG    1        4.662  18.177  29.814  0.00  0.00    +0.147 A 
ATOM      5  C   LIG    1        5.623  17.996  30.815  0.00  0.00    +0.049 A 
ATOM      6  C   LIG    1        6.837  18.681  30.758  0.00  0.00    +0.023 A 
ATOM      7  C   LIG    1        7.088  19.549  29.696  0.00  0.00    +0.043 A 
ATOM      8 CL   LIG    1        8.597  20.370  29.609  0.00  0.00    -0.083 Cl
ATOM      9  C   LIG    1        6.121  19.772  28.718  0.00  0.00    +0.043 A 
ENDBRANCH   1   4
BRANCH   1  10
ATOM     10  C   LIG    1        2.697  17.699  31.100  0.00  0.00    +0.170 A 
ATOM     11  C   LIG    1        1.890  18.810  31.391  0.00  0.00    +0.160 A 
ATOM     12  C   LIG    1        1.194  18.877  32.603  0.00  0.00    +0.069 A 
ATOM     13  C   LIG    1        1.264  17.821  33.505  0.00  0.00    +0.045 A 
ATOM     14 CL   LIG    1        0.411  17.910  34.998  0.00  0.00    -0.083 Cl
ATOM     15  C   LIG    1        2.015  16.686  33.208  0.00  0.00    +0.024 A 
ATOM     16  C   LIG    1        2.727  16.633  32.009  0.00  0.00    +0.051 A 
BRANCH  11  17
ATOM     17  O   LIG    1        1.755  19.842  30.506  0.00  0.00    -0.503 OA
ATOM     18  H   LIG    1        1.192  19.556  29.765  0.00  0.00    +0.292 HD
ENDBRANCH  11  17
ENDBRANCH   1  10
TORSDOF 3
ENDMDL
MODEL 3
REMARK VINA RESULT:      -7.9      1.738      2.097
REMARK  Name = 
REMARK                            x       y       z     vdW  Elec       q    Type
REMARK                         _______ _______ _______ _____ _____    ______ ____
ROOT
ATOM      1  O   LIG    1        3.953  17.384  29.399  0.00  0.00    -0.451 OA
ENDROOT
BRANCH   1   4
ATOM      2 CL   LIG    1        6.219  18.276  31.373  0.00  0.00    -0.080 Cl
ATOM      3  C   LIG    1        5.939  18.791  29.747  0.00  0.00    +0.085 A 
ATOM      4  C   LIG    1        4.882  18.299  28.970  0.00  0.00    +0.147 A 
ATOM      5  C   LIG    1        4.798  18.643  27.616  0.00  0.00    +0.049 A 
ATOM      6  C   LIG    1        5.716  19.533  27.057  0.00  0.00    +0.023 A 
ATOM      7  C   LIG    1        6.718  20.079  27.857  0.00  0.00    +0.043 A 
ATOM      8 CL   LIG    1        7.831  21.202  27.177  0.00  0.00    -0.083 Cl
ATOM      9  C   LIG    1        6.839  19.710  29.196  0.00  0.00    +0.043 A 
ENDBRANCH   1   4
BRANCH   1  10
ATOM     10  C   LIG    1        3.132  17.649  30.474  0.00  0.00    +0.170 A 
ATOM     11  C   LIG    1        2.359  18.794  30.719  0.00  0.00    +0.160 A 
ATOM     12  C   LIG    1        1.628  18.910  31.907  0.00  0.00    +0.069 A 
ATOM     13  C   LIG    1        1.631  17.869  32.830  0.00  0.00    +0.045 A 
ATOM     14 CL   LIG    1        0.736  18.018  34.293  0.00  0.00    -0.083 Cl
ATOM     15  C   LIG    1        2.349  16.702  32.578  0.00  0.00    +0.024 A 
ATOM     16  C   LIG    1        3.095  16.600  31.403  0.00  0.00    +0.051 A 
BRANCH  11  17
ATOM     17  O   LIG    1        2.290  19.813  29.811  0.00  0.00    -0.503 OA
ATOM     18  H   LIG    1        2.562  19.481  28.937  0.00  0.00    +0.292 HD
ENDBRANCH  11  17
ENDBRANCH   1  10
TORSDOF 3
ENDMDL
MODEL 4
REMARK VINA RESULT:      -7.9      2.106      5.983
REMARK  Name = 
REMARK                            x       y       z     vdW  Elec       q    Type
REMARK                         _______ _______ _______ _____ _____    ______ ____
ROOT
ATOM      1  O   LIG    1        3.414  17.785  30.047  0.00  0.00    -0.451 OA
ENDROOT
BRANCH   1   4
ATOM      2 CL   LIG    1        1.730  20.368  30.614  0.00  0.00    -0.080 Cl
ATOM      3  C   LIG    1        1.936  18.973  31.614  0.00  0.00    +0.085 A 
ATOM      4  C   LIG    1        2.719  17.876  31.228  0.00  0.00    +0.147 A 
ATOM      5  C   LIG    1        2.725  16.719  32.014  0.00  0.00    +0.049 A 
ATOM      6  C   LIG    1        2.019  16.680  33.217  0.00  0.00    +0.023 A 
ATOM      7  C   LIG    1        1.306  17.804  33.631  0.00  0.00    +0.043 A 
ATOM      8 CL   LIG    1        0.461  17.768  35.130  0.00  0.00    -0.083 Cl
ATOM      9  C   LIG    1        1.256  18.947  32.835  0.00  0.00    +0.043 A 
ENDBRANCH   1   4
BRANCH   1  10
ATOM     10  C   LIG    1        4.579  18.493  29.847  0.00  0.00    +0.170 A 
ATOM     11  C   LIG    1        4.861  19.445  28.854  0.00  0.00    +0.160 A 
ATOM     12  C   LIG    1        6.134  20.020  28.771  0.00  0.00    +0.069 A 
ATOM     13  C   LIG    1        7.112  19.683  29.701  0.00  0.00    +0.045 A 
ATOM     14 CL   LIG    1        8.679  20.387  29.591  0.00  0.00    -0.083 Cl
ATOM     15  C   LIG    1        6.833  18.782  30.725  0.00  0.00    +0.024 A 
ATOM     16  C   LIG    1        5.570  18.192  30.791  0.00  0.00    +0.051 A 
BRANCH  11  17
ATOM     17  O   LIG    1        3.909  19.840  27.958  0.00  0.00    -0.503 OA
ATOM     18  H   LIG    1        4.324  19.972  27.087  0.00  0.00    +0.292 HD
ENDBRANCH  11  17
ENDBRANCH   1  10
TORSDOF 3
ENDMDL
MODEL 5
REMARK VINA RESULT:      -7.9      2.501      3.047
REMARK  Name = 
REMARK                            x       y       z     vdW  Elec       q    Type
REMARK                         _______ _______ _______ _____ _____    ______ ____
ROOT
ATOM      1  O   LIG    1        3.427  16.478  31.110  0.00  0.00    -0.451 OA
ENDROOT
BRANCH   1   4
ATOM      2 CL   LIG    1        2.534  18.506  28.892  0.00  0.00    -0.080 Cl
ATOM      3  C   LIG    1        4.094  18.310  29.610  0.00  0.00    +0.085 A 
ATOM      4  C   LIG    1        4.352  17.359  30.608  0.00  0.00    +0.147 A 
ATOM      5  C   LIG    1        5.594  17.352  31.252  0.00  0.00    +0.049 A 
ATOM      6  C   LIG    1        6.600  18.233  30.855  0.00  0.00    +0.023 A 
ATOM      7  C   LIG    1        6.360  19.123  29.809  0.00  0.00    +0.043 A 
ATOM      8 CL   LIG    1        7.610  20.189  29.297  0.00  0.00    -0.083 Cl
ATOM      9  C   LIG    1        5.112  19.171  29.189  0.00  0.00    +0.043 A 
ENDBRANCH   1   4
BRANCH   1  10
ATOM     10  C   LIG    1        2.708  16.768  32.249  0.00  0.00    +0.170 A 
ATOM     11  C   LIG    1        1.841  15.930  32.968  0.00  0.00    +0.160 A 
ATOM     12  C   LIG    1        1.146  16.423  34.078  0.00  0.00    +0.069 A 
ATOM     13  C   LIG    1        1.346  17.734  34.499  0.00  0.00    +0.045 A 
ATOM     14 CL   LIG    1        0.484  18.339  35.861  0.00  0.00    -0.083 Cl
ATOM     15  C   LIG    1        2.244  18.562  33.830  0.00  0.00    +0.024 A 
ATOM     16  C   LIG    1        2.918  18.074  32.710  0.00  0.00    +0.051 A 
BRANCH  11  17
ATOM     17  O   LIG    1        1.661  14.623  32.616  0.00  0.00    -0.503 OA
ATOM     18  H   LIG    1        1.230  14.150  33.350  0.00  0.00    +0.292 HD
ENDBRANCH  11  17
ENDBRANCH   1  10
TORSDOF 3
ENDMDL
MODEL 6
REMARK VINA RESULT:      -7.8      2.274      6.072
REMARK  Name = 
REMARK                            x       y       z     vdW  Elec       q    Type
REMARK                         _______ _______ _______ _____ _____    ______ ____
ROOT
ATOM      1  O   LIG    1        3.276  17.058  30.802  0.00  0.00    -0.451 OA
ENDROOT
BRANCH   1   4
ATOM      2 CL   LIG    1        2.000  14.566  32.213  0.00  0.00    -0.080 Cl
ATOM      3  C   LIG    1        1.947  16.225  32.696  0.00  0.00    +0.085 A 
ATOM      4  C   LIG    1        2.575  17.245  31.967  0.00  0.00    +0.147 A 
ATOM      5  C   LIG    1        2.621  18.542  32.489  0.00  0.00    +0.049 A 
ATOM      6  C   LIG    1        1.979  18.841  33.691  0.00  0.00    +0.023 A 
ATOM      7  C   LIG    1        1.290  17.837  34.371  0.00  0.00    +0.043 A 
ATOM      8 CL   LIG    1        0.472  18.212  35.837  0.00  0.00    -0.083 Cl
ATOM      9  C   LIG    1        1.275  16.532  33.884  0.00  0.00    +0.043 A 
ENDBRANCH   1   4
BRANCH   1  10
ATOM     10  C   LIG    1        4.327  17.880  30.460  0.00  0.00    +0.170 A 
ATOM     11  C   LIG    1        4.339  18.945  29.545  0.00  0.00    +0.160 A 
ATOM     12  C   LIG    1        5.528  19.634  29.282  0.00  0.00    +0.069 A 
ATOM     13  C   LIG    1        6.694  19.294  29.959  0.00  0.00    +0.045 A 
ATOM     14 CL   LIG    1        8.157  20.139  29.627  0.00  0.00    -0.083 Cl
ATOM     15  C   LIG    1        6.688  18.276  30.910  0.00  0.00    +0.024 A 
ATOM     16  C   LIG    1        5.506  17.576  31.153  0.00  0.00    +0.051 A 
BRANCH  11  17
ATOM     17  O   LIG    1        3.201  19.341  28.901  0.00  0.00    -0.503 OA
ATOM     18  H   LIG    1        3.442  19.884  28.130  0.00  0.00    +0.292 HD
ENDBRANCH  11  17
ENDBRANCH   1  10
TORSDOF 3
ENDMDL
MODEL 7
REMARK VINA RESULT:      -7.8      1.574      6.071
REMARK  Name = 
REMARK                            x       y       z     vdW  Elec       q    Type
REMARK                         _______ _______ _______ _____ _____    ______ ____
ROOT
ATOM      1  O   LIG    1        2.590  19.006  29.020  0.00  0.00    -0.451 OA
ENDROOT
BRANCH   1   4
ATOM      2 CL   LIG    1        1.191  20.893  31.095  0.00  0.00    -0.080 Cl
ATOM      3  C   LIG    1        1.920  19.350  31.361  0.00  0.00    +0.085 A 
ATOM      4  C   LIG    1        2.508  18.604  30.330  0.00  0.00    +0.147 A 
ATOM      5  C   LIG    1        2.948  17.299  30.582  0.00  0.00    +0.049 A 
ATOM      6  C   LIG    1        2.875  16.768  31.870  0.00  0.00    +0.023 A 
ATOM      7  C   LIG    1        2.360  17.545  32.906  0.00  0.00    +0.043 A 
ATOM      8 CL   LIG    1        2.298  16.902  34.501  0.00  0.00    -0.083 Cl
ATOM      9  C   LIG    1        1.878  18.829  32.659  0.00  0.00    +0.043 A 
ENDBRANCH   1   4
BRANCH   1  10
ATOM     10  C   LIG    1        3.796  19.358  28.454  0.00  0.00    +0.170 A 
ATOM     11  C   LIG    1        4.422  18.807  27.324  0.00  0.00    +0.160 A 
ATOM     12  C   LIG    1        5.686  19.258  26.930  0.00  0.00    +0.069 A 
ATOM     13  C   LIG    1        6.308  20.286  27.631  0.00  0.00    +0.045 A 
ATOM     14 CL   LIG    1        7.867  20.834  27.147  0.00  0.00    -0.083 Cl
ATOM     15  C   LIG    1        5.677  20.882  28.720  0.00  0.00    +0.024 A 
ATOM     16  C   LIG    1        4.427  20.413  29.125  0.00  0.00    +0.051 A 
BRANCH  11  17
ATOM     17  O   LIG    1        3.818  17.833  26.581  0.00  0.00    -0.503 OA
ATOM     18  H   LIG    1        3.404  18.238  25.799  0.00  0.00    +0.292 HD
ENDBRANCH  11  17
ENDBRANCH   1  10
TORSDOF 3
ENDMDL
MODEL 8
REMARK VINA RESULT:      -7.7      2.248      6.192
REMARK  Name = 
REMARK                            x       y       z     vdW  Elec       q    Type
REMARK                         _______ _______ _______ _____ _____    ______ ____
ROOT
ATOM      1  O   LIG    1        4.222  20.421  29.826  0.00  0.00    -0.451 OA
ENDROOT
BRANCH   1   4
ATOM      2 CL   LIG    1        1.333  20.530  31.036  0.00  0.00    -0.080 Cl
ATOM      3  C   LIG    1        2.441  19.204  31.007  0.00  0.00    +0.085 A 
ATOM      4  C   LIG    1        3.711  19.294  30.419  0.00  0.00    +0.147 A 
ATOM      5  C   LIG    1        4.500  18.145  30.297  0.00  0.00    +0.049 A 
ATOM      6  C   LIG    1        4.063  16.930  30.826  0.00  0.00    +0.023 A 
ATOM      7  C   LIG    1        2.832  16.867  31.478  0.00  0.00    +0.043 A 
ATOM      8 CL   LIG    1        2.306  15.377  32.159  0.00  0.00    -0.083 Cl
ATOM      9  C   LIG    1        2.017  17.994  31.567  0.00  0.00    +0.043 A 
ENDBRANCH   1   4
BRANCH   1  10
ATOM     10  C   LIG    1        5.276  20.348  28.940  0.00  0.00    +0.170 A 
ATOM     11  C   LIG    1        6.649  20.456  29.209  0.00  0.00    +0.160 A 
ATOM     12  C   LIG    1        7.577  20.415  28.163  0.00  0.00    +0.069 A 
ATOM     13  C   LIG    1        7.143  20.224  26.855  0.00  0.00    +0.045 A 
ATOM     14 CL   LIG    1        8.287  20.182  25.569  0.00  0.00    -0.083 Cl
ATOM     15  C   LIG    1        5.789  20.059  26.577  0.00  0.00    +0.024 A 
ATOM     16  C   LIG    1        4.864  20.123  27.620  0.00  0.00    +0.051 A 
BRANCH  11  17
ATOM     17  O   LIG    1        7.115  20.591  30.486  0.00  0.00    -0.503 OA
ATOM     18  H   LIG    1        6.756  21.409  30.873  0.00  0.00    +0.292 HD
ENDBRANCH  11  17
ENDBRANCH   1  10
TORSDOF 3
ENDMDL
MODEL 9
REMARK VINA RESULT:      -7.7      1.874      2.403
REMARK  Name = 
REMARK                            x       y       z     vdW  Elec       q    Type
REMARK                         _______ _______ _______ _____ _____    ______ ____
ROOT
ATOM      1  O   LIG    1        4.236  20.527  29.829  0.00  0.00    -0.451 OA
ENDROOT
BRANCH   1   4
ATOM      2 CL   LIG    1        7.223  20.596  30.777  0.00  0.00    -0.080 Cl
ATOM      3  C   LIG    1        6.605  20.483  29.168  0.00  0.00    +0.085 A 
ATOM      4  C   LIG    1        5.231  20.454  28.886  0.00  0.00    +0.147 A 
ATOM      5  C   LIG    1        4.797  20.212  27.578  0.00  0.00    +0.049 A 
ATOM      6  C   LIG    1        5.722  20.077  26.542  0.00  0.00    +0.023 A 
ATOM      7  C   LIG    1        7.084  20.185  26.819  0.00  0.00    +0.043 A 
ATOM      8 CL   LIG    1        8.224  20.051  25.537  0.00  0.00    -0.083 Cl
ATOM      9  C   LIG    1        7.531  20.382  28.124  0.00  0.00    +0.043 A 
ENDBRANCH   1   4
BRANCH   1  10
ATOM     10  C   LIG    1        3.649  19.390  30.338  0.00  0.00    +0.170 A 
ATOM     11  C   LIG    1        2.329  19.216  30.787  0.00  0.00    +0.160 A 
ATOM     12  C   LIG    1        1.926  17.992  31.333  0.00  0.00    +0.069 A 
ATOM     13  C   LIG    1        2.821  16.929  31.393  0.00  0.00    +0.045 A 
ATOM     14 CL   LIG    1        2.323  15.427  32.072  0.00  0.00    -0.083 Cl
ATOM     15  C   LIG    1        4.117  17.066  30.902  0.00  0.00    +0.024 A 
ATOM     16  C   LIG    1        4.522  18.295  30.379  0.00  0.00    +0.051 A 
BRANCH  11  17
ATOM     17  O   LIG    1        1.409  20.222  30.694  0.00  0.00    -0.503 OA
ATOM     18  H   LIG    1        0.637  20.001  31.244  0.00  0.00    +0.292 HD
ENDBRANCH  11  17
ENDBRANCH   1  10
TORSDOF 3
ENDMDL
