MODEL 1
REMARK VINA RESULT:      -8.6      0.000      0.000
REMARK  Name = 
REMARK                            x       y       z     vdW  Elec       q    Type
REMARK                         _______ _______ _______ _____ _____    ______ ____
ROOT
ATOM      1  O   LIG    1       23.632 -16.944  16.674  0.00  0.00    -0.451 OA
ENDROOT
BRANCH   1   4
ATOM      2 CL   LIG    1       24.890 -19.372  18.207  0.00  0.00    -0.080 Cl
ATOM      3  C   LIG    1       25.410 -17.724  18.183  0.00  0.00    +0.085 A 
ATOM      4  C   LIG    1       24.751 -16.735  17.440  0.00  0.00    +0.147 A 
ATOM      5  C   LIG    1       25.308 -15.455  17.344  0.00  0.00    +0.049 A 
ATOM      6  C   LIG    1       26.472 -15.138  18.046  0.00  0.00    +0.023 A 
ATOM      7  C   LIG    1       27.077 -16.106  18.845  0.00  0.00    +0.043 A 
ATOM      8 CL   LIG    1       28.494 -15.708  19.736  0.00  0.00    -0.083 Cl
ATOM      9  C   LIG    1       26.557 -17.398  18.913  0.00  0.00    +0.043 A 
ENDBRANCH   1   4
BRANCH   1  10
ATOM     10  C   LIG    1       22.389 -16.520  17.093  0.00  0.00    +0.170 A 
ATOM     11  C   LIG    1       21.447 -17.213  17.868  0.00  0.00    +0.160 A 
ATOM     12  C   LIG    1       20.202 -16.637  18.146  0.00  0.00    +0.069 A 
ATOM     13  C   LIG    1       19.911 -15.355  17.690  0.00  0.00    +0.045 A 
ATOM     14 CL   LIG    1       18.376 -14.653  18.027  0.00  0.00    -0.083 Cl
ATOM     15  C   LIG    1       20.856 -14.631  16.966  0.00  0.00    +0.024 A 
ATOM     16  C   LIG    1       22.087 -15.218  16.672  0.00  0.00    +0.051 A 
BRANCH  11  17
ATOM     17  O   LIG    1       21.718 -18.452  18.377  0.00  0.00    -0.503 OA
ATOM     18  H   LIG    1       22.666 -18.642  18.268  0.00  0.00    +0.292 HD
ENDBRANCH  11  17
ENDBRANCH   1  10
TORSDOF 3
ENDMDL
MODEL 2
REMARK VINA RESULT:      -8.2      2.382      6.037
REMARK  Name = 
REMARK                            x       y       z     vdW  Elec       q    Type
REMARK                         _______ _______ _______ _____ _____    ______ ____
ROOT
ATOM      1  O   LIG    1       23.191 -16.130  17.536  0.00  0.00    -0.451 OA
ENDROOT
BRANCH   1   4
ATOM      2 CL   LIG    1       21.404 -13.874  16.294  0.00  0.00    -0.080 Cl
ATOM      3  C   LIG    1       20.948 -15.131  17.389  0.00  0.00    +0.085 A 
ATOM      4  C   LIG    1       21.858 -16.087  17.862  0.00  0.00    +0.147 A 
ATOM      5  C   LIG    1       21.396 -17.164  18.627  0.00  0.00    +0.049 A 
ATOM      6  C   LIG    1       20.050 -17.249  18.984  0.00  0.00    +0.023 A 
ATOM      7  C   LIG    1       19.166 -16.252  18.574  0.00  0.00    +0.043 A 
ATOM      8 CL   LIG    1       17.512 -16.338  19.040  0.00  0.00    -0.083 Cl
ATOM      9  C   LIG    1       19.605 -15.198  17.775  0.00  0.00    +0.043 A 
ENDBRANCH   1   4
BRANCH   1  10
ATOM     10  C   LIG    1       24.147 -15.581  18.362  0.00  0.00    +0.170 A 
ATOM     11  C   LIG    1       24.959 -16.228  19.306  0.00  0.00    +0.160 A 
ATOM     12  C   LIG    1       25.840 -15.488  20.103  0.00  0.00    +0.069 A 
ATOM     13  C   LIG    1       25.945 -14.111  19.931  0.00  0.00    +0.045 A 
ATOM     14 CL   LIG    1       27.024 -13.203  20.917  0.00  0.00    -0.083 Cl
ATOM     15  C   LIG    1       25.187 -13.460  18.960  0.00  0.00    +0.024 A 
ATOM     16  C   LIG    1       24.293 -14.198  18.184  0.00  0.00    +0.051 A 
BRANCH  11  17
ATOM     17  O   LIG    1       24.922 -17.584  19.465  0.00  0.00    -0.503 OA
ATOM     18  H   LIG    1       25.138 -17.804  20.388  0.00  0.00    +0.292 HD
ENDBRANCH  11  17
ENDBRANCH   1  10
TORSDOF 3
ENDMDL
MODEL 3
REMARK VINA RESULT:      -8.2      3.180      4.479
REMARK  Name = 
REMARK                            x       y       z     vdW  Elec       q    Type
REMARK                         _______ _______ _______ _____ _____    ______ ____
ROOT
ATOM      1  O   LIG    1       20.218 -15.683  19.033  0.00  0.00    -0.451 OA
ENDROOT
BRANCH   1   4
ATOM      2 CL   LIG    1       21.315 -14.161  16.522  0.00  0.00    -0.080 Cl
ATOM      3  C   LIG    1       21.717 -15.744  17.084  0.00  0.00    +0.085 A 
ATOM      4  C   LIG    1       21.151 -16.302  18.239  0.00  0.00    +0.147 A 
ATOM      5  C   LIG    1       21.628 -17.526  18.723  0.00  0.00    +0.049 A 
ATOM      6  C   LIG    1       22.608 -18.228  18.020  0.00  0.00    +0.023 A 
ATOM      7  C   LIG    1       23.110 -17.702  16.831  0.00  0.00    +0.043 A 
ATOM      8 CL   LIG    1       24.296 -18.581  15.947  0.00  0.00    -0.083 Cl
ATOM      9  C   LIG    1       22.675 -16.463  16.362  0.00  0.00    +0.043 A 
ENDBRANCH   1   4
BRANCH   1  10
ATOM     10  C   LIG    1       18.869 -15.829  18.799  0.00  0.00    +0.170 A 
ATOM     11  C   LIG    1       18.059 -16.950  19.043  0.00  0.00    +0.160 A 
ATOM     12  C   LIG    1       16.707 -16.934  18.682  0.00  0.00    +0.069 A 
ATOM     13  C   LIG    1       16.151 -15.790  18.119  0.00  0.00    +0.045 A 
ATOM     14 CL   LIG    1       14.489 -15.776  17.669  0.00  0.00    -0.083 Cl
ATOM     15  C   LIG    1       16.927 -14.650  17.921  0.00  0.00    +0.024 A 
ATOM     16  C   LIG    1       18.279 -14.678  18.261  0.00  0.00    +0.051 A 
BRANCH  11  17
ATOM     17  O   LIG    1       18.558 -18.071  19.643  0.00  0.00    -0.503 OA
ATOM     18  H   LIG    1       19.527 -17.999  19.700  0.00  0.00    +0.292 HD
ENDBRANCH  11  17
ENDBRANCH   1  10
TORSDOF 3
ENDMDL
MODEL 4
REMARK VINA RESULT:      -8.1      2.217      6.109
REMARK  Name = 
REMARK                            x       y       z     vdW  Elec       q    Type
REMARK                         _______ _______ _______ _____ _____    ______ ____
ROOT
ATOM      1  O   LIG    1       24.154 -15.782  16.803  0.00  0.00    -0.451 OA
ENDROOT
BRANCH   1   4
ATOM      2 CL   LIG    1       21.569 -14.061  16.374  0.00  0.00    -0.080 Cl
ATOM      3  C   LIG    1       21.749 -15.536  17.256  0.00  0.00    +0.085 A 
ATOM      4  C   LIG    1       22.974 -16.210  17.359  0.00  0.00    +0.147 A 
ATOM      5  C   LIG    1       23.021 -17.473  17.959  0.00  0.00    +0.049 A 
ATOM      6  C   LIG    1       21.872 -18.029  18.522  0.00  0.00    +0.023 A 
ATOM      7  C   LIG    1       20.675 -17.318  18.484  0.00  0.00    +0.043 A 
ATOM      8 CL   LIG    1       19.264 -17.989  19.206  0.00  0.00    -0.083 Cl
ATOM      9  C   LIG    1       20.605 -16.079  17.849  0.00  0.00    +0.043 A 
ENDBRANCH   1   4
BRANCH   1  10
ATOM     10  C   LIG    1       25.215 -15.390  17.590  0.00  0.00    +0.170 A 
ATOM     11  C   LIG    1       25.291 -14.297  18.468  0.00  0.00    +0.160 A 
ATOM     12  C   LIG    1       26.485 -14.019  19.144  0.00  0.00    +0.069 A 
ATOM     13  C   LIG    1       27.587 -14.852  18.981  0.00  0.00    +0.045 A 
ATOM     14 CL   LIG    1       29.055 -14.503  19.809  0.00  0.00    -0.083 Cl
ATOM     15  C   LIG    1       27.511 -15.972  18.157  0.00  0.00    +0.024 A 
ATOM     16  C   LIG    1       26.327 -16.233  17.466  0.00  0.00    +0.051 A 
BRANCH  11  17
ATOM     17  O   LIG    1       24.213 -13.489  18.692  0.00  0.00    -0.503 OA
ATOM     18  H   LIG    1       24.175 -13.261  19.638  0.00  0.00    +0.292 HD
ENDBRANCH  11  17
ENDBRANCH   1  10
TORSDOF 3
ENDMDL
MODEL 5
REMARK VINA RESULT:      -8.1      1.541      1.940
REMARK  Name = 
REMARK                            x       y       z     vdW  Elec       q    Type
REMARK                         _______ _______ _______ _____ _____    ______ ____
ROOT
ATOM      1  O   LIG    1       22.074 -16.005  16.744  0.00  0.00    -0.451 OA
ENDROOT
BRANCH   1   4
ATOM      2 CL   LIG    1       24.482 -17.956  16.276  0.00  0.00    -0.080 Cl
ATOM      3  C   LIG    1       24.436 -16.505  17.213  0.00  0.00    +0.085 A 
ATOM      4  C   LIG    1       23.282 -15.718  17.330  0.00  0.00    +0.147 A 
ATOM      5  C   LIG    1       23.350 -14.480  17.980  0.00  0.00    +0.049 A 
ATOM      6  C   LIG    1       24.540 -14.062  18.577  0.00  0.00    +0.023 A 
ATOM      7  C   LIG    1       25.662 -14.887  18.523  0.00  0.00    +0.043 A 
ATOM      8 CL   LIG    1       27.121 -14.387  19.286  0.00  0.00    -0.083 Cl
ATOM      9  C   LIG    1       25.619 -16.102  17.841  0.00  0.00    +0.043 A 
ENDBRANCH   1   4
BRANCH   1  10
ATOM     10  C   LIG    1       20.934 -16.173  17.500  0.00  0.00    +0.170 A 
ATOM     11  C   LIG    1       20.564 -17.276  18.285  0.00  0.00    +0.160 A 
ATOM     12  C   LIG    1       19.328 -17.291  18.941  0.00  0.00    +0.069 A 
ATOM     13  C   LIG    1       18.480 -16.192  18.852  0.00  0.00    +0.045 A 
ATOM     14 CL   LIG    1       16.957 -16.217  19.655  0.00  0.00    -0.083 Cl
ATOM     15  C   LIG    1       18.855 -15.067  18.123  0.00  0.00    +0.024 A 
ATOM     16  C   LIG    1       20.078 -15.065  17.451  0.00  0.00    +0.051 A 
BRANCH  11  17
ATOM     17  O   LIG    1       21.395 -18.350  18.439  0.00  0.00    -0.503 OA
ATOM     18  H   LIG    1       21.845 -18.287  19.300  0.00  0.00    +0.292 HD
ENDBRANCH  11  17
ENDBRANCH   1  10
TORSDOF 3
ENDMDL
MODEL 6
REMARK VINA RESULT:      -8.0      1.445      5.870
REMARK  Name = 
REMARK                            x       y       z     vdW  Elec       q    Type
REMARK                         _______ _______ _______ _____ _____    ______ ____
ROOT
ATOM      1  O   LIG    1       23.139 -15.983  16.337  0.00  0.00    -0.451 OA
ENDROOT
BRANCH   1   4
ATOM      2 CL   LIG    1       22.615 -18.306  18.377  0.00  0.00    -0.080 Cl
ATOM      3  C   LIG    1       21.583 -16.985  17.957  0.00  0.00    +0.085 A 
ATOM      4  C   LIG    1       21.951 -16.004  17.026  0.00  0.00    +0.147 A 
ATOM      5  C   LIG    1       21.135 -14.883  16.841  0.00  0.00    +0.049 A 
ATOM      6  C   LIG    1       19.922 -14.774  17.522  0.00  0.00    +0.023 A 
ATOM      7  C   LIG    1       19.527 -15.793  18.388  0.00  0.00    +0.043 A 
ATOM      8 CL   LIG    1       18.016 -15.675  19.203  0.00  0.00    -0.083 Cl
ATOM      9  C   LIG    1       20.351 -16.893  18.614  0.00  0.00    +0.043 A 
ENDBRANCH   1   4
BRANCH   1  10
ATOM     10  C   LIG    1       24.342 -15.829  16.991  0.00  0.00    +0.170 A 
ATOM     11  C   LIG    1       24.704 -14.852  17.931  0.00  0.00    +0.160 A 
ATOM     12  C   LIG    1       26.004 -14.819  18.448  0.00  0.00    +0.069 A 
ATOM     13  C   LIG    1       26.930 -15.783  18.063  0.00  0.00    +0.045 A 
ATOM     14 CL   LIG    1       28.531 -15.734  18.696  0.00  0.00    -0.083 Cl
ATOM     15  C   LIG    1       26.572 -16.793  17.174  0.00  0.00    +0.024 A 
ATOM     16  C   LIG    1       25.281 -16.809  16.643  0.00  0.00    +0.051 A 
BRANCH  11  17
ATOM     17  O   LIG    1       23.805 -13.922  18.372  0.00  0.00    -0.503 OA
ATOM     18  H   LIG    1       23.031 -13.919  17.781  0.00  0.00    +0.292 HD
ENDBRANCH  11  17
ENDBRANCH   1  10
TORSDOF 3
ENDMDL
MODEL 7
REMARK VINA RESULT:      -8.0      2.869      6.957
REMARK  Name = 
REMARK                            x       y       z     vdW  Elec       q    Type
REMARK                         _______ _______ _______ _____ _____    ______ ____
ROOT
ATOM      1  O   LIG    1       20.206 -16.127  19.591  0.00  0.00    -0.451 OA
ENDROOT
BRANCH   1   4
ATOM      2 CL   LIG    1       18.480 -18.744  19.582  0.00  0.00    -0.080 Cl
ATOM      3  C   LIG    1       18.083 -17.187  18.944  0.00  0.00    +0.085 A 
ATOM      4  C   LIG    1       18.956 -16.093  19.025  0.00  0.00    +0.147 A 
ATOM      5  C   LIG    1       18.517 -14.826  18.624  0.00  0.00    +0.049 A 
ATOM      6  C   LIG    1       17.246 -14.662  18.073  0.00  0.00    +0.023 A 
ATOM      7  C   LIG    1       16.414 -15.771  17.924  0.00  0.00    +0.043 A 
ATOM      8 CL   LIG    1       14.858 -15.575  17.215  0.00  0.00    -0.083 Cl
ATOM      9  C   LIG    1       16.822 -17.029  18.361  0.00  0.00    +0.043 A 
ENDBRANCH   1   4
BRANCH   1  10
ATOM     10  C   LIG    1       21.341 -16.208  18.813  0.00  0.00    +0.170 A 
ATOM     11  C   LIG    1       22.146 -15.162  18.335  0.00  0.00    +0.160 A 
ATOM     12  C   LIG    1       23.236 -15.437  17.501  0.00  0.00    +0.069 A 
ATOM     13  C   LIG    1       23.551 -16.753  17.178  0.00  0.00    +0.045 A 
ATOM     14 CL   LIG    1       24.887 -17.087  16.147  0.00  0.00    -0.083 Cl
ATOM     15  C   LIG    1       22.795 -17.806  17.689  0.00  0.00    +0.024 A 
ATOM     16  C   LIG    1       21.696 -17.527  18.501  0.00  0.00    +0.051 A 
BRANCH  11  17
ATOM     17  O   LIG    1       21.899 -13.863  18.675  0.00  0.00    -0.503 OA
ATOM     18  H   LIG    1       21.781 -13.800  19.639  0.00  0.00    +0.292 HD
ENDBRANCH  11  17
ENDBRANCH   1  10
TORSDOF 3
ENDMDL
MODEL 8
REMARK VINA RESULT:      -7.9      2.433      6.282
REMARK  Name = 
REMARK                            x       y       z     vdW  Elec       q    Type
REMARK                         _______ _______ _______ _____ _____    ______ ____
ROOT
ATOM      1  O   LIG    1       25.763 -14.981  17.395  0.00  0.00    -0.451 OA
ENDROOT
BRANCH   1   4
ATOM      2 CL   LIG    1       25.470 -18.068  16.933  0.00  0.00    -0.080 Cl
ATOM      3  C   LIG    1       24.291 -16.948  17.520  0.00  0.00    +0.085 A 
ATOM      4  C   LIG    1       24.564 -15.583  17.687  0.00  0.00    +0.147 A 
ATOM      5  C   LIG    1       23.617 -14.758  18.304  0.00  0.00    +0.049 A 
ATOM      6  C   LIG    1       22.376 -15.271  18.684  0.00  0.00    +0.023 A 
ATOM      7  C   LIG    1       22.085 -16.612  18.444  0.00  0.00    +0.043 A 
ATOM      8 CL   LIG    1       20.543 -17.238  18.882  0.00  0.00    -0.083 Cl
ATOM      9  C   LIG    1       23.035 -17.454  17.870  0.00  0.00    +0.043 A 
ENDBRANCH   1   4
BRANCH   1  10
ATOM     10  C   LIG    1       26.660 -14.656  18.389  0.00  0.00    +0.170 A 
ATOM     11  C   LIG    1       26.881 -13.406  18.988  0.00  0.00    +0.160 A 
ATOM     12  C   LIG    1       27.887 -13.253  19.949  0.00  0.00    +0.069 A 
ATOM     13  C   LIG    1       28.643 -14.352  20.345  0.00  0.00    +0.045 A 
ATOM     14 CL   LIG    1       29.884 -14.159  21.522  0.00  0.00    -0.083 Cl
ATOM     15  C   LIG    1       28.400 -15.610  19.801  0.00  0.00    +0.024 A 
ATOM     16  C   LIG    1       27.412 -15.754  18.826  0.00  0.00    +0.051 A 
BRANCH  11  17
ATOM     17  O   LIG    1       26.122 -12.317  18.663  0.00  0.00    -0.503 OA
ATOM     18  H   LIG    1       25.246 -12.402  19.078  0.00  0.00    +0.292 HD
ENDBRANCH  11  17
ENDBRANCH   1  10
TORSDOF 3
ENDMDL
MODEL 9
REMARK VINA RESULT:      -7.9      2.916      5.864
REMARK  Name = 
REMARK                            x       y       z     vdW  Elec       q    Type
REMARK                         _______ _______ _______ _____ _____    ______ ____
ROOT
ATOM      1  O   LIG    1       25.045 -16.125  20.080  0.00  0.00    -0.451 OA
ENDROOT
BRANCH   1   4
ATOM      2 CL   LIG    1       22.079 -16.051  19.067  0.00  0.00    -0.080 Cl
ATOM      3  C   LIG    1       23.362 -17.097  18.572  0.00  0.00    +0.085 A 
ATOM      4  C   LIG    1       24.655 -17.013  19.109  0.00  0.00    +0.147 A 
ATOM      5  C   LIG    1       25.684 -17.787  18.561  0.00  0.00    +0.049 A 
ATOM      6  C   LIG    1       25.413 -18.697  17.538  0.00  0.00    +0.023 A 
ATOM      7  C   LIG    1       24.109 -18.829  17.064  0.00  0.00    +0.043 A 
ATOM      8 CL   LIG    1       23.768 -19.973  15.824  0.00  0.00    -0.083 Cl
ATOM      9  C   LIG    1       23.084 -18.032  17.570  0.00  0.00    +0.043 A 
ENDBRANCH   1   4
BRANCH   1  10
ATOM     10  C   LIG    1       25.880 -15.068  19.789  0.00  0.00    +0.170 A 
ATOM     11  C   LIG    1       25.568 -13.865  19.136  0.00  0.00    +0.160 A 
ATOM     12  C   LIG    1       26.572 -12.925  18.874  0.00  0.00    +0.069 A 
ATOM     13  C   LIG    1       27.875 -13.162  19.298  0.00  0.00    +0.045 A 
ATOM     14 CL   LIG    1       29.108 -12.008  18.967  0.00  0.00    -0.083 Cl
ATOM     15  C   LIG    1       28.191 -14.326  19.996  0.00  0.00    +0.024 A 
ATOM     16  C   LIG    1       27.193 -15.271  20.235  0.00  0.00    +0.051 A 
BRANCH  11  17
ATOM     17  O   LIG    1       24.290 -13.575  18.753  0.00  0.00    -0.503 OA
ATOM     18  H   LIG    1       24.232 -12.632  18.518  0.00  0.00    +0.292 HD
ENDBRANCH  11  17
ENDBRANCH   1  10
TORSDOF 3
ENDMDL
