MODEL 1
REMARK VINA RESULT:      -7.4      0.000      0.000
REMARK  Name = 
REMARK                            x       y       z     vdW  Elec       q    Type
REMARK                         _______ _______ _______ _____ _____    ______ ____
ROOT
ATOM      1  O   LIG    1        4.605   8.622  -2.106  0.00  0.00    -0.451 OA
ENDROOT
BRANCH   1   4
ATOM      2 CL   LIG    1        3.448   6.615  -4.218  0.00  0.00    -0.080 Cl
ATOM      3  C   LIG    1        2.871   6.957  -2.625  0.00  0.00    +0.085 A 
ATOM      4  C   LIG    1        3.497   7.881  -1.777  0.00  0.00    +0.147 A 
ATOM      5  C   LIG    1        3.071   8.003  -0.450  0.00  0.00    +0.049 A 
ATOM      6  C   LIG    1        1.979   7.266   0.010  0.00  0.00    +0.023 A 
ATOM      7  C   LIG    1        1.313   6.406  -0.862  0.00  0.00    +0.043 A 
ATOM      8 CL   LIG    1       -0.053   5.521  -0.305  0.00  0.00    -0.083 Cl
ATOM      9  C   LIG    1        1.756   6.243  -2.174  0.00  0.00    +0.043 A 
ENDBRANCH   1   4
BRANCH   1  10
ATOM     10  C   LIG    1        4.605   9.995  -1.998  0.00  0.00    +0.170 A 
ATOM     11  C   LIG    1        5.178  10.790  -0.993  0.00  0.00    +0.160 A 
ATOM     12  C   LIG    1        5.023  12.181  -1.021  0.00  0.00    +0.069 A 
ATOM     13  C   LIG    1        4.336  12.784  -2.070  0.00  0.00    +0.045 A 
ATOM     14 CL   LIG    1        4.142  14.494  -2.096  0.00  0.00    -0.083 Cl
ATOM     15  C   LIG    1        3.809  12.015  -3.104  0.00  0.00    +0.024 A 
ATOM     16  C   LIG    1        3.945  10.627  -3.061  0.00  0.00    +0.051 A 
BRANCH  11  17
ATOM     17  O   LIG    1        5.904  10.237   0.023  0.00  0.00    -0.503 OA
ATOM     18  H   LIG    1        6.852  10.376  -0.148  0.00  0.00    +0.292 HD
ENDBRANCH  11  17
ENDBRANCH   1  10
TORSDOF 3
ENDMDL
MODEL 2
REMARK VINA RESULT:      -6.9      3.222      4.133
REMARK  Name = 
REMARK                            x       y       z     vdW  Elec       q    Type
REMARK                         _______ _______ _______ _____ _____    ______ ____
ROOT
ATOM      1  O   LIG    1        3.151   8.651  -4.268  0.00  0.00    -0.451 OA
ENDROOT
BRANCH   1   4
ATOM      2 CL   LIG    1        3.174   9.828  -1.362  0.00  0.00    -0.080 Cl
ATOM      3  C   LIG    1        3.414   8.192  -1.866  0.00  0.00    +0.085 A 
ATOM      4  C   LIG    1        3.368   7.802  -3.212  0.00  0.00    +0.147 A 
ATOM      5  C   LIG    1        3.422   6.442  -3.541  0.00  0.00    +0.049 A 
ATOM      6  C   LIG    1        3.598   5.482  -2.544  0.00  0.00    +0.023 A 
ATOM      7  C   LIG    1        3.720   5.886  -1.215  0.00  0.00    +0.043 A 
ATOM      8 CL   LIG    1        3.969   4.705   0.012  0.00  0.00    -0.083 Cl
ATOM      9  C   LIG    1        3.623   7.233  -0.870  0.00  0.00    +0.043 A 
ENDBRANCH   1   4
BRANCH   1  10
ATOM     10  C   LIG    1        4.201   9.235  -4.943  0.00  0.00    +0.170 A 
ATOM     11  C   LIG    1        4.929   8.724  -6.030  0.00  0.00    +0.160 A 
ATOM     12  C   LIG    1        6.011   9.442  -6.552  0.00  0.00    +0.069 A 
ATOM     13  C   LIG    1        6.341  10.686  -6.023  0.00  0.00    +0.045 A 
ATOM     14 CL   LIG    1        7.677  11.563  -6.663  0.00  0.00    -0.083 Cl
ATOM     15  C   LIG    1        5.595  11.232  -4.982  0.00  0.00    +0.024 A 
ATOM     16  C   LIG    1        4.531  10.503  -4.448  0.00  0.00    +0.051 A 
BRANCH  11  17
ATOM     17  O   LIG    1        4.600   7.532  -6.608  0.00  0.00    -0.503 OA
ATOM     18  H   LIG    1        3.889   7.111  -6.094  0.00  0.00    +0.292 HD
ENDBRANCH  11  17
ENDBRANCH   1  10
TORSDOF 3
ENDMDL
MODEL 3
REMARK VINA RESULT:      -6.9      1.181      5.859
REMARK  Name = 
REMARK                            x       y       z     vdW  Elec       q    Type
REMARK                         _______ _______ _______ _____ _____    ______ ____
ROOT
ATOM      1  O   LIG    1        4.623   8.255  -2.299  0.00  0.00    -0.451 OA
ENDROOT
BRANCH   1   4
ATOM      2 CL   LIG    1        3.149   9.751  -4.626  0.00  0.00    -0.080 Cl
ATOM      3  C   LIG    1        3.973  10.422  -3.263  0.00  0.00    +0.085 A 
ATOM      4  C   LIG    1        4.587   9.627  -2.285  0.00  0.00    +0.147 A 
ATOM      5  C   LIG    1        5.107  10.226  -1.132  0.00  0.00    +0.049 A 
ATOM      6  C   LIG    1        5.086  11.614  -0.988  0.00  0.00    +0.023 A 
ATOM      7  C   LIG    1        4.544  12.402  -2.002  0.00  0.00    +0.043 A 
ATOM      8 CL   LIG    1        4.546  14.115  -1.840  0.00  0.00    -0.083 Cl
ATOM      9  C   LIG    1        3.982  11.815  -3.134  0.00  0.00    +0.043 A 
ENDBRANCH   1   4
BRANCH   1  10
ATOM     10  C   LIG    1        3.509   7.507  -1.986  0.00  0.00    +0.170 A 
ATOM     11  C   LIG    1        2.801   6.614  -2.806  0.00  0.00    +0.160 A 
ATOM     12  C   LIG    1        1.647   5.984  -2.329  0.00  0.00    +0.069 A 
ATOM     13  C   LIG    1        1.221   6.207  -1.023  0.00  0.00    +0.045 A 
ATOM     14 CL   LIG    1       -0.204   5.436  -0.442  0.00  0.00    -0.083 Cl
ATOM     15  C   LIG    1        1.942   7.048  -0.179  0.00  0.00    +0.024 A 
ATOM     16  C   LIG    1        3.080   7.693  -0.666  0.00  0.00    +0.051 A 
BRANCH  11  17
ATOM     17  O   LIG    1        3.220   6.329  -4.075  0.00  0.00    -0.503 OA
ATOM     18  H   LIG    1        3.165   7.134  -4.618  0.00  0.00    +0.292 HD
ENDBRANCH  11  17
ENDBRANCH   1  10
TORSDOF 3
ENDMDL
MODEL 4
REMARK VINA RESULT:      -6.9      9.240     11.599
REMARK  Name = 
REMARK                            x       y       z     vdW  Elec       q    Type
REMARK                         _______ _______ _______ _____ _____    ______ ____
ROOT
ATOM      1  O   LIG    1        9.164   9.852  -8.564  0.00  0.00    -0.451 OA
ENDROOT
BRANCH   1   4
ATOM      2 CL   LIG    1        7.592  11.945  -6.839  0.00  0.00    -0.080 Cl
ATOM      3  C   LIG    1        9.213  12.034  -7.431  0.00  0.00    +0.085 A 
ATOM      4  C   LIG    1        9.797  11.011  -8.191  0.00  0.00    +0.147 A 
ATOM      5  C   LIG    1       11.158  11.078  -8.512  0.00  0.00    +0.049 A 
ATOM      6  C   LIG    1       11.915  12.191  -8.146  0.00  0.00    +0.023 A 
ATOM      7  C   LIG    1       11.307  13.239  -7.458  0.00  0.00    +0.043 A 
ATOM      8 CL   LIG    1       12.231  14.627  -7.034  0.00  0.00    -0.083 Cl
ATOM      9  C   LIG    1        9.963  13.165  -7.093  0.00  0.00    +0.043 A 
ENDBRANCH   1   4
BRANCH   1  10
ATOM     10  C   LIG    1        9.562   9.147  -9.679  0.00  0.00    +0.170 A 
ATOM     11  C   LIG    1       10.096   7.850  -9.745  0.00  0.00    +0.160 A 
ATOM     12  C   LIG    1       10.501   7.317 -10.974  0.00  0.00    +0.069 A 
ATOM     13  C   LIG    1       10.335   8.055 -12.141  0.00  0.00    +0.045 A 
ATOM     14 CL   LIG    1       10.841   7.399 -13.650  0.00  0.00    -0.083 Cl
ATOM     15  C   LIG    1        9.756   9.321 -12.101  0.00  0.00    +0.024 A 
ATOM     16  C   LIG    1        9.375   9.859 -10.871  0.00  0.00    +0.051 A 
BRANCH  11  17
ATOM     17  O   LIG    1       10.224   7.076  -8.627  0.00  0.00    -0.503 OA
ATOM     18  H   LIG    1       10.233   7.649  -7.840  0.00  0.00    +0.292 HD
ENDBRANCH  11  17
ENDBRANCH   1  10
TORSDOF 3
ENDMDL
MODEL 5
REMARK VINA RESULT:      -6.9      3.847      5.470
REMARK  Name = 
REMARK                            x       y       z     vdW  Elec       q    Type
REMARK                         _______ _______ _______ _____ _____    ______ ____
ROOT
ATOM      1  O   LIG    1        3.589   7.920  -5.207  0.00  0.00    -0.451 OA
ENDROOT
BRANCH   1   4
ATOM      2 CL   LIG    1        4.796  10.138  -3.351  0.00  0.00    -0.080 Cl
ATOM      3  C   LIG    1        3.948   8.700  -2.903  0.00  0.00    +0.085 A 
ATOM      4  C   LIG    1        3.451   7.791  -3.848  0.00  0.00    +0.147 A 
ATOM      5  C   LIG    1        2.646   6.726  -3.428  0.00  0.00    +0.049 A 
ATOM      6  C   LIG    1        2.401   6.521  -2.070  0.00  0.00    +0.023 A 
ATOM      7  C   LIG    1        2.964   7.385  -1.132  0.00  0.00    +0.043 A 
ATOM      8 CL   LIG    1        2.689   7.114   0.545  0.00  0.00    -0.083 Cl
ATOM      9  C   LIG    1        3.730   8.475  -1.540  0.00  0.00    +0.043 A 
ENDBRANCH   1   4
BRANCH   1  10
ATOM     10  C   LIG    1        4.784   7.643  -5.835  0.00  0.00    +0.170 A 
ATOM     11  C   LIG    1        5.604   8.514  -6.570  0.00  0.00    +0.160 A 
ATOM     12  C   LIG    1        6.763   8.034  -7.190  0.00  0.00    +0.069 A 
ATOM     13  C   LIG    1        7.129   6.700  -7.044  0.00  0.00    +0.045 A 
ATOM     14 CL   LIG    1        8.551   6.111  -7.815  0.00  0.00    -0.083 Cl
ATOM     15  C   LIG    1        6.356   5.835  -6.273  0.00  0.00    +0.024 A 
ATOM     16  C   LIG    1        5.189   6.312  -5.674  0.00  0.00    +0.051 A 
BRANCH  11  17
ATOM     17  O   LIG    1        5.304   9.841  -6.690  0.00  0.00    -0.503 OA
ATOM     18  H   LIG    1        6.065  10.308  -7.078  0.00  0.00    +0.292 HD
ENDBRANCH  11  17
ENDBRANCH   1  10
TORSDOF 3
ENDMDL
MODEL 6
REMARK VINA RESULT:      -6.9      9.225     10.719
REMARK  Name = 
REMARK                            x       y       z     vdW  Elec       q    Type
REMARK                         _______ _______ _______ _____ _____    ______ ____
ROOT
ATOM      1  O   LIG    1        9.065   9.913  -8.688  0.00  0.00    -0.451 OA
ENDROOT
BRANCH   1   4
ATOM      2 CL   LIG    1       10.112   6.979  -8.340  0.00  0.00    -0.080 Cl
ATOM      3  C   LIG    1       10.036   7.934  -9.778  0.00  0.00    +0.085 A 
ATOM      4  C   LIG    1        9.532   9.242  -9.791  0.00  0.00    +0.147 A 
ATOM      5  C   LIG    1        9.360   9.906 -11.011  0.00  0.00    +0.049 A 
ATOM      6  C   LIG    1        9.760   9.304 -12.204  0.00  0.00    +0.023 A 
ATOM      7  C   LIG    1       10.332   8.033 -12.174  0.00  0.00    +0.043 A 
ATOM      8 CL   LIG    1       10.855   7.302 -13.641  0.00  0.00    -0.083 Cl
ATOM      9  C   LIG    1       10.468   7.343 -10.971  0.00  0.00    +0.043 A 
ENDBRANCH   1   4
BRANCH   1  10
ATOM     10  C   LIG    1        9.712  11.029  -8.203  0.00  0.00    +0.170 A 
ATOM     11  C   LIG    1        9.174  12.096  -7.465  0.00  0.00    +0.160 A 
ATOM     12  C   LIG    1        9.981  13.181  -7.107  0.00  0.00    +0.069 A 
ATOM     13  C   LIG    1       11.331  13.187  -7.444  0.00  0.00    +0.045 A 
ATOM     14 CL   LIG    1       12.318  14.527  -7.009  0.00  0.00    -0.083 Cl
ATOM     15  C   LIG    1       11.893  12.111  -8.128  0.00  0.00    +0.024 A 
ATOM     16  C   LIG    1       11.080  11.041  -8.504  0.00  0.00    +0.051 A 
BRANCH  11  17
ATOM     17  O   LIG    1        7.866  12.099  -7.071  0.00  0.00    -0.503 OA
ATOM     18  H   LIG    1        7.726  11.389  -6.421  0.00  0.00    +0.292 HD
ENDBRANCH  11  17
ENDBRANCH   1  10
TORSDOF 3
ENDMDL
MODEL 7
REMARK VINA RESULT:      -6.7      2.095      5.624
REMARK  Name = 
REMARK                            x       y       z     vdW  Elec       q    Type
REMARK                         _______ _______ _______ _____ _____    ______ ____
ROOT
ATOM      1  O   LIG    1        4.378   6.675  -1.884  0.00  0.00    -0.451 OA
ENDROOT
BRANCH   1   4
ATOM      2 CL   LIG    1        3.860   6.288  -4.951  0.00  0.00    -0.080 Cl
ATOM      3  C   LIG    1        4.439   7.690  -4.123  0.00  0.00    +0.085 A 
ATOM      4  C   LIG    1        4.617   7.726  -2.733  0.00  0.00    +0.147 A 
ATOM      5  C   LIG    1        4.945   8.935  -2.108  0.00  0.00    +0.049 A 
ATOM      6  C   LIG    1        5.170  10.083  -2.868  0.00  0.00    +0.023 A 
ATOM      7  C   LIG    1        5.066  10.019  -4.257  0.00  0.00    +0.043 A 
ATOM      8 CL   LIG    1        5.374  11.426  -5.198  0.00  0.00    -0.083 Cl
ATOM      9  C   LIG    1        4.697   8.832  -4.888  0.00  0.00    +0.043 A 
ENDBRANCH   1   4
BRANCH   1  10
ATOM     10  C   LIG    1        3.180   6.555  -1.214  0.00  0.00    +0.170 A 
ATOM     11  C   LIG    1        2.823   7.087   0.035  0.00  0.00    +0.160 A 
ATOM     12  C   LIG    1        1.568   6.806   0.588  0.00  0.00    +0.069 A 
ATOM     13  C   LIG    1        0.653   6.033  -0.120  0.00  0.00    +0.045 A 
ATOM     14 CL   LIG    1       -0.886   5.684   0.565  0.00  0.00    -0.083 Cl
ATOM     15  C   LIG    1        0.970   5.543  -1.385  0.00  0.00    +0.024 A 
ATOM     16  C   LIG    1        2.231   5.806  -1.923  0.00  0.00    +0.051 A 
BRANCH  11  17
ATOM     17  O   LIG    1        3.675   7.893   0.735  0.00  0.00    -0.503 OA
ATOM     18  H   LIG    1        3.225   8.218   1.534  0.00  0.00    +0.292 HD
ENDBRANCH  11  17
ENDBRANCH   1  10
TORSDOF 3
ENDMDL
MODEL 8
REMARK VINA RESULT:      -6.7      2.606      4.246
REMARK  Name = 
REMARK                            x       y       z     vdW  Elec       q    Type
REMARK                         _______ _______ _______ _____ _____    ______ ____
ROOT
ATOM      1  O   LIG    1        3.486   9.463  -3.982  0.00  0.00    -0.451 OA
ENDROOT
BRANCH   1   4
ATOM      2 CL   LIG    1        3.019   6.375  -3.708  0.00  0.00    -0.080 Cl
ATOM      3  C   LIG    1        4.172   7.209  -4.689  0.00  0.00    +0.085 A 
ATOM      4  C   LIG    1        4.266   8.608  -4.720  0.00  0.00    +0.147 A 
ATOM      5  C   LIG    1        5.117   9.224  -5.644  0.00  0.00    +0.049 A 
ATOM      6  C   LIG    1        5.927   8.454  -6.479  0.00  0.00    +0.023 A 
ATOM      7  C   LIG    1        5.884   7.064  -6.386  0.00  0.00    +0.043 A 
ATOM      8 CL   LIG    1        6.906   6.113  -7.393  0.00  0.00    -0.083 Cl
ATOM      9  C   LIG    1        5.008   6.437  -5.502  0.00  0.00    +0.043 A 
ENDBRANCH   1   4
BRANCH   1  10
ATOM     10  C   LIG    1        4.039  10.297  -3.035  0.00  0.00    +0.170 A 
ATOM     11  C   LIG    1        4.742   9.949  -1.870  0.00  0.00    +0.160 A 
ATOM     12  C   LIG    1        5.180  10.943  -0.989  0.00  0.00    +0.069 A 
ATOM     13  C   LIG    1        4.959  12.284  -1.286  0.00  0.00    +0.045 A 
ATOM     14 CL   LIG    1        5.494  13.503  -0.196  0.00  0.00    -0.083 Cl
ATOM     15  C   LIG    1        4.313  12.649  -2.464  0.00  0.00    +0.024 A 
ATOM     16  C   LIG    1        3.856  11.654  -3.329  0.00  0.00    +0.051 A 
BRANCH  11  17
ATOM     17  O   LIG    1        5.023   8.645  -1.573  0.00  0.00    -0.503 OA
ATOM     18  H   LIG    1        4.346   8.072  -1.973  0.00  0.00    +0.292 HD
ENDBRANCH  11  17
ENDBRANCH   1  10
TORSDOF 3
ENDMDL
MODEL 9
REMARK VINA RESULT:      -6.6     13.119     14.566
REMARK  Name = 
REMARK                            x       y       z     vdW  Elec       q    Type
REMARK                         _______ _______ _______ _____ _____    ______ ____
ROOT
ATOM      1  O   LIG    1       15.126   1.071  -4.257  0.00  0.00    -0.451 OA
ENDROOT
BRANCH   1   4
ATOM      2 CL   LIG    1       17.396  -1.013  -4.831  0.00  0.00    -0.080 Cl
ATOM      3  C   LIG    1       16.474  -0.084  -5.959  0.00  0.00    +0.085 A 
ATOM      4  C   LIG    1       15.474   0.814  -5.559  0.00  0.00    +0.147 A 
ATOM      5  C   LIG    1       14.664   1.424  -6.524  0.00  0.00    +0.049 A 
ATOM      6  C   LIG    1       14.898   1.202  -7.882  0.00  0.00    +0.023 A 
ATOM      7  C   LIG    1       15.945   0.369  -8.272  0.00  0.00    +0.043 A 
ATOM      8 CL   LIG    1       16.254   0.120  -9.946  0.00  0.00    -0.083 Cl
ATOM      9  C   LIG    1       16.729  -0.279  -7.320  0.00  0.00    +0.043 A 
ENDBRANCH   1   4
BRANCH   1  10
ATOM     10  C   LIG    1       13.879   1.559  -3.932  0.00  0.00    +0.170 A 
ATOM     11  C   LIG    1       13.551   2.789  -3.340  0.00  0.00    +0.160 A 
ATOM     12  C   LIG    1       12.220   3.088  -3.028  0.00  0.00    +0.069 A 
ATOM     13  C   LIG    1       11.211   2.184  -3.345  0.00  0.00    +0.045 A 
ATOM     14 CL   LIG    1        9.576   2.553  -2.953  0.00  0.00    -0.083 Cl
ATOM     15  C   LIG    1       11.512   0.984  -3.983  0.00  0.00    +0.024 A 
ATOM     16  C   LIG    1       12.843   0.678  -4.271  0.00  0.00    +0.051 A 
BRANCH  11  17
ATOM     17  O   LIG    1       14.509   3.722  -3.063  0.00  0.00    -0.503 OA
ATOM     18  H   LIG    1       15.124   3.363  -2.399  0.00  0.00    +0.292 HD
ENDBRANCH  11  17
ENDBRANCH   1  10
TORSDOF 3
ENDMDL
