MODEL 1
REMARK VINA RESULT:      -7.6      0.000      0.000
REMARK  Name = 
REMARK                            x       y       z     vdW  Elec       q    Type
REMARK                         _______ _______ _______ _____ _____    ______ ____
ROOT
ATOM      1  O   LIG    1        1.374  31.394   6.803  0.00  0.00    -0.451 OA
ENDROOT
BRANCH   1   4
ATOM      2 CL   LIG    1        3.480  32.921   5.053  0.00  0.00    -0.080 Cl
ATOM      3  C   LIG    1        1.824  33.321   5.343  0.00  0.00    +0.085 A 
ATOM      4  C   LIG    1        0.987  32.536   6.149  0.00  0.00    +0.147 A 
ATOM      5  C   LIG    1       -0.379  32.832   6.223  0.00  0.00    +0.049 A 
ATOM      6  C   LIG    1       -0.896  33.947   5.562  0.00  0.00    +0.023 A 
ATOM      7  C   LIG    1       -0.042  34.766   4.826  0.00  0.00    +0.043 A 
ATOM      8 CL   LIG    1       -0.672  36.159   4.036  0.00  0.00    -0.083 Cl
ATOM      9  C   LIG    1        1.312  34.457   4.708  0.00  0.00    +0.043 A 
ENDBRANCH   1   4
BRANCH   1  10
ATOM     10  C   LIG    1        1.742  30.262   6.110  0.00  0.00    +0.170 A 
ATOM     11  C   LIG    1        0.944  29.440   5.297  0.00  0.00    +0.160 A 
ATOM     12  C   LIG    1        1.484  28.287   4.717  0.00  0.00    +0.069 A 
ATOM     13  C   LIG    1        2.826  27.975   4.907  0.00  0.00    +0.045 A 
ATOM     14 CL   LIG    1        3.484  26.552   4.197  0.00  0.00    -0.083 Cl
ATOM     15  C   LIG    1        3.645  28.808   5.665  0.00  0.00    +0.024 A 
ATOM     16  C   LIG    1        3.098  29.945   6.262  0.00  0.00    +0.051 A 
BRANCH  11  17
ATOM     17  O   LIG    1       -0.363  29.745   5.045  0.00  0.00    -0.503 OA
ATOM     18  H   LIG    1       -0.881  29.637   5.862  0.00  0.00    +0.292 HD
ENDBRANCH  11  17
ENDBRANCH   1  10
TORSDOF 3
ENDMDL
MODEL 2
REMARK VINA RESULT:      -7.6      1.378      5.751
REMARK  Name = 
REMARK                            x       y       z     vdW  Elec       q    Type
REMARK                         _______ _______ _______ _____ _____    ______ ____
ROOT
ATOM      1  O   LIG    1        0.489  31.044   6.425  0.00  0.00    -0.451 OA
ENDROOT
BRANCH   1   4
ATOM      2 CL   LIG    1        3.115  30.237   7.935  0.00  0.00    -0.080 Cl
ATOM      3  C   LIG    1        2.465  29.581   6.474  0.00  0.00    +0.085 A 
ATOM      4  C   LIG    1        1.265  30.036   5.910  0.00  0.00    +0.147 A 
ATOM      5  C   LIG    1        0.718  29.364   4.811  0.00  0.00    +0.049 A 
ATOM      6  C   LIG    1        1.399  28.295   4.228  0.00  0.00    +0.023 A 
ATOM      7  C   LIG    1        2.630  27.899   4.748  0.00  0.00    +0.043 A 
ATOM      8 CL   LIG    1        3.485  26.601   4.010  0.00  0.00    -0.083 Cl
ATOM      9  C   LIG    1        3.164  28.531   5.869  0.00  0.00    +0.043 A 
ENDBRANCH   1   4
BRANCH   1  10
ATOM     10  C   LIG    1        0.351  32.247   5.769  0.00  0.00    +0.170 A 
ATOM     11  C   LIG    1       -0.735  32.703   5.004  0.00  0.00    +0.160 A 
ATOM     12  C   LIG    1       -0.670  33.942   4.357  0.00  0.00    +0.069 A 
ATOM     13  C   LIG    1        0.456  34.746   4.506  0.00  0.00    +0.045 A 
ATOM     14 CL   LIG    1        0.535  36.267   3.703  0.00  0.00    -0.083 Cl
ATOM     15  C   LIG    1        1.519  34.334   5.306  0.00  0.00    +0.024 A 
ATOM     16  C   LIG    1        1.460  33.088   5.930  0.00  0.00    +0.051 A 
BRANCH  11  17
ATOM     17  O   LIG    1       -1.877  31.964   4.880  0.00  0.00    -0.503 OA
ATOM     18  H   LIG    1       -2.259  32.111   3.997  0.00  0.00    +0.292 HD
ENDBRANCH  11  17
ENDBRANCH   1  10
TORSDOF 3
ENDMDL
MODEL 3
REMARK VINA RESULT:      -7.3      1.313      1.897
REMARK  Name = 
REMARK                            x       y       z     vdW  Elec       q    Type
REMARK                         _______ _______ _______ _____ _____    ______ ____
ROOT
ATOM      1  O   LIG    1        0.193  31.138   4.600  0.00  0.00    -0.451 OA
ENDROOT
BRANCH   1   4
ATOM      2 CL   LIG    1        2.666  32.091   2.925  0.00  0.00    -0.080 Cl
ATOM      3  C   LIG    1        1.688  33.003   4.020  0.00  0.00    +0.085 A 
ATOM      4  C   LIG    1        0.597  32.446   4.702  0.00  0.00    +0.147 A 
ATOM      5  C   LIG    1       -0.243  33.273   5.457  0.00  0.00    +0.049 A 
ATOM      6  C   LIG    1        0.044  34.631   5.596  0.00  0.00    +0.023 A 
ATOM      7  C   LIG    1        1.176  35.161   4.977  0.00  0.00    +0.043 A 
ATOM      8 CL   LIG    1        1.549  36.829   5.175  0.00  0.00    -0.083 Cl
ATOM      9  C   LIG    1        1.995  34.357   4.186  0.00  0.00    +0.043 A 
ENDBRANCH   1   4
BRANCH   1  10
ATOM     10  C   LIG    1        1.033  30.102   4.946  0.00  0.00    +0.170 A 
ATOM     11  C   LIG    1        1.685  29.880   6.169  0.00  0.00    +0.160 A 
ATOM     12  C   LIG    1        2.554  28.793   6.317  0.00  0.00    +0.069 A 
ATOM     13  C   LIG    1        2.742  27.904   5.264  0.00  0.00    +0.045 A 
ATOM     14 CL   LIG    1        3.817  26.573   5.447  0.00  0.00    -0.083 Cl
ATOM     15  C   LIG    1        2.060  28.078   4.062  0.00  0.00    +0.024 A 
ATOM     16  C   LIG    1        1.212  29.175   3.911  0.00  0.00    +0.051 A 
BRANCH  11  17
ATOM     17  O   LIG    1        1.484  30.702   7.242  0.00  0.00    -0.503 OA
ATOM     18  H   LIG    1        1.684  30.215   8.060  0.00  0.00    +0.292 HD
ENDBRANCH  11  17
ENDBRANCH   1  10
TORSDOF 3
ENDMDL
MODEL 4
REMARK VINA RESULT:      -7.2      1.649      2.473
REMARK  Name = 
REMARK                            x       y       z     vdW  Elec       q    Type
REMARK                         _______ _______ _______ _____ _____    ______ ____
ROOT
ATOM      1  O   LIG    1       -0.030  31.496   5.053  0.00  0.00    -0.451 OA
ENDROOT
BRANCH   1   4
ATOM      2 CL   LIG    1       -0.943  33.494   7.290  0.00  0.00    -0.080 Cl
ATOM      3  C   LIG    1        0.122  33.777   5.959  0.00  0.00    +0.085 A 
ATOM      4  C   LIG    1        0.453  32.781   5.031  0.00  0.00    +0.147 A 
ATOM      5  C   LIG    1        1.435  33.032   4.065  0.00  0.00    +0.049 A 
ATOM      6  C   LIG    1        2.028  34.291   3.975  0.00  0.00    +0.023 A 
ATOM      7  C   LIG    1        1.637  35.300   4.853  0.00  0.00    +0.043 A 
ATOM      8 CL   LIG    1        2.345  36.863   4.722  0.00  0.00    -0.083 Cl
ATOM      9  C   LIG    1        0.693  35.049   5.847  0.00  0.00    +0.043 A 
ENDBRANCH   1   4
BRANCH   1  10
ATOM     10  C   LIG    1        0.816  30.416   5.178  0.00  0.00    +0.170 A 
ATOM     11  C   LIG    1        1.553  30.011   6.303  0.00  0.00    +0.160 A 
ATOM     12  C   LIG    1        2.414  28.910   6.222  0.00  0.00    +0.069 A 
ATOM     13  C   LIG    1        2.509  28.187   5.037  0.00  0.00    +0.045 A 
ATOM     14 CL   LIG    1        3.575  26.839   4.940  0.00  0.00    -0.083 Cl
ATOM     15  C   LIG    1        1.744  28.542   3.929  0.00  0.00    +0.024 A 
ATOM     16  C   LIG    1        0.904  29.653   4.006  0.00  0.00    +0.051 A 
BRANCH  11  17
ATOM     17  O   LIG    1        1.444  30.665   7.497  0.00  0.00    -0.503 OA
ATOM     18  H   LIG    1        1.514  31.623   7.345  0.00  0.00    +0.292 HD
ENDBRANCH  11  17
ENDBRANCH   1  10
TORSDOF 3
ENDMDL
MODEL 5
REMARK VINA RESULT:      -7.0      1.366      5.927
REMARK  Name = 
REMARK                            x       y       z     vdW  Elec       q    Type
REMARK                         _______ _______ _______ _____ _____    ______ ____
ROOT
ATOM      1  O   LIG    1        0.407  30.996   4.084  0.00  0.00    -0.451 OA
ENDROOT
BRANCH   1   4
ATOM      2 CL   LIG    1        3.475  31.629   4.216  0.00  0.00    -0.080 Cl
ATOM      3  C   LIG    1        2.669  30.129   4.511  0.00  0.00    +0.085 A 
ATOM      4  C   LIG    1        1.276  29.989   4.423  0.00  0.00    +0.147 A 
ATOM      5  C   LIG    1        0.675  28.789   4.818  0.00  0.00    +0.049 A 
ATOM      6  C   LIG    1        1.457  27.708   5.224  0.00  0.00    +0.023 A 
ATOM      7  C   LIG    1        2.846  27.831   5.233  0.00  0.00    +0.043 A 
ATOM      8 CL   LIG    1        3.814  26.488   5.703  0.00  0.00    -0.083 Cl
ATOM      9  C   LIG    1        3.455  29.035   4.885  0.00  0.00    +0.043 A 
ENDBRANCH   1   4
BRANCH   1  10
ATOM     10  C   LIG    1        0.627  32.296   4.485  0.00  0.00    +0.170 A 
ATOM     11  C   LIG    1        0.597  32.824   5.785  0.00  0.00    +0.160 A 
ATOM     12  C   LIG    1        0.788  34.194   5.994  0.00  0.00    +0.069 A 
ATOM     13  C   LIG    1        1.052  35.032   4.915  0.00  0.00    +0.045 A 
ATOM     14 CL   LIG    1        1.280  36.719   5.174  0.00  0.00    -0.083 Cl
ATOM     15  C   LIG    1        1.141  34.516   3.624  0.00  0.00    +0.024 A 
ATOM     16  C   LIG    1        0.926  33.153   3.417  0.00  0.00    +0.051 A 
BRANCH  11  17
ATOM     17  O   LIG    1        0.393  32.023   6.873  0.00  0.00    -0.503 OA
ATOM     18  H   LIG    1        0.760  31.139   6.693  0.00  0.00    +0.292 HD
ENDBRANCH  11  17
ENDBRANCH   1  10
TORSDOF 3
ENDMDL
MODEL 6
REMARK VINA RESULT:      -7.0      1.789      2.143
REMARK  Name = 
REMARK                            x       y       z     vdW  Elec       q    Type
REMARK                         _______ _______ _______ _____ _____    ______ ____
ROOT
ATOM      1  O   LIG    1        0.293  31.342   4.067  0.00  0.00    -0.451 OA
ENDROOT
BRANCH   1   4
ATOM      2 CL   LIG    1        0.115  32.221   7.071  0.00  0.00    -0.080 Cl
ATOM      3  C   LIG    1        0.476  33.186   5.684  0.00  0.00    +0.085 A 
ATOM      4  C   LIG    1        0.531  32.656   4.388  0.00  0.00    +0.147 A 
ATOM      5  C   LIG    1        0.973  33.457   3.329  0.00  0.00    +0.049 A 
ATOM      6  C   LIG    1        1.285  34.800   3.544  0.00  0.00    +0.023 A 
ATOM      7  C   LIG    1        1.153  35.339   4.823  0.00  0.00    +0.043 A 
ATOM      8 CL   LIG    1        1.507  37.003   5.083  0.00  0.00    -0.083 Cl
ATOM      9  C   LIG    1        0.756  34.540   5.894  0.00  0.00    +0.043 A 
ENDBRANCH   1   4
BRANCH   1  10
ATOM     10  C   LIG    1        1.213  30.358   4.357  0.00  0.00    +0.170 A 
ATOM     11  C   LIG    1        0.988  28.986   4.555  0.00  0.00    +0.160 A 
ATOM     12  C   LIG    1        2.048  28.142   4.904  0.00  0.00    +0.069 A 
ATOM     13  C   LIG    1        3.337  28.652   5.013  0.00  0.00    +0.045 A 
ATOM     14 CL   LIG    1        4.637  27.612   5.450  0.00  0.00    -0.083 Cl
ATOM     15  C   LIG    1        3.587  30.000   4.767  0.00  0.00    +0.024 A 
ATOM     16  C   LIG    1        2.524  30.843   4.442  0.00  0.00    +0.051 A 
BRANCH  11  17
ATOM     17  O   LIG    1       -0.255  28.441   4.403  0.00  0.00    -0.503 OA
ATOM     18  H   LIG    1       -0.447  28.339   3.454  0.00  0.00    +0.292 HD
ENDBRANCH  11  17
ENDBRANCH   1  10
TORSDOF 3
ENDMDL
MODEL 7
REMARK VINA RESULT:      -6.9      1.458      5.897
REMARK  Name = 
REMARK                            x       y       z     vdW  Elec       q    Type
REMARK                         _______ _______ _______ _____ _____    ______ ____
ROOT
ATOM      1  O   LIG    1        2.322  32.808   6.023  0.00  0.00    -0.451 OA
ENDROOT
BRANCH   1   4
ATOM      2 CL   LIG    1        2.641  32.095   2.987  0.00  0.00    -0.080 Cl
ATOM      3  C   LIG    1        2.430  31.028   4.330  0.00  0.00    +0.085 A 
ATOM      4  C   LIG    1        2.308  31.488   5.648  0.00  0.00    +0.147 A 
ATOM      5  C   LIG    1        2.290  30.569   6.704  0.00  0.00    +0.049 A 
ATOM      6  C   LIG    1        2.315  29.198   6.445  0.00  0.00    +0.023 A 
ATOM      7  C   LIG    1        2.358  28.748   5.126  0.00  0.00    +0.043 A 
ATOM      8 CL   LIG    1        2.357  27.058   4.805  0.00  0.00    -0.083 Cl
ATOM      9  C   LIG    1        2.422  29.654   4.069  0.00  0.00    +0.043 A 
ENDBRANCH   1   4
BRANCH   1  10
ATOM     10  C   LIG    1        1.377  33.695   5.554  0.00  0.00    +0.170 A 
ATOM     11  C   LIG    1       -0.011  33.511   5.443  0.00  0.00    +0.160 A 
ATOM     12  C   LIG    1       -0.811  34.513   4.882  0.00  0.00    +0.069 A 
ATOM     13  C   LIG    1       -0.239  35.713   4.472  0.00  0.00    +0.045 A 
ATOM     14 CL   LIG    1       -1.225  36.940   3.776  0.00  0.00    -0.083 Cl
ATOM     15  C   LIG    1        1.128  35.933   4.626  0.00  0.00    +0.024 A 
ATOM     16  C   LIG    1        1.926  34.923   5.164  0.00  0.00    +0.051 A 
BRANCH  11  17
ATOM     17  O   LIG    1       -0.614  32.368   5.884  0.00  0.00    -0.503 OA
ATOM     18  H   LIG    1       -1.508  32.581   6.205  0.00  0.00    +0.292 HD
ENDBRANCH  11  17
ENDBRANCH   1  10
TORSDOF 3
ENDMDL
MODEL 8
REMARK VINA RESULT:      -6.9      1.663      2.082
REMARK  Name = 
REMARK                            x       y       z     vdW  Elec       q    Type
REMARK                         _______ _______ _______ _____ _____    ______ ____
ROOT
ATOM      1  O   LIG    1        2.859  32.716   5.712  0.00  0.00    -0.451 OA
ENDROOT
BRANCH   1   4
ATOM      2 CL   LIG    1        0.018  32.304   6.971  0.00  0.00    -0.080 Cl
ATOM      3  C   LIG    1        0.521  33.475   5.805  0.00  0.00    +0.085 A 
ATOM      4  C   LIG    1        1.839  33.552   5.331  0.00  0.00    +0.147 A 
ATOM      5  C   LIG    1        2.216  34.614   4.502  0.00  0.00    +0.049 A 
ATOM      6  C   LIG    1        1.271  35.552   4.084  0.00  0.00    +0.023 A 
ATOM      7  C   LIG    1       -0.054  35.424   4.498  0.00  0.00    +0.043 A 
ATOM      8 CL   LIG    1       -1.226  36.561   3.957  0.00  0.00    -0.083 Cl
ATOM      9  C   LIG    1       -0.433  34.396   5.359  0.00  0.00    +0.043 A 
ENDBRANCH   1   4
BRANCH   1  10
ATOM     10  C   LIG    1        2.858  31.382   5.365  0.00  0.00    +0.170 A 
ATOM     11  C   LIG    1        2.218  30.764   4.279  0.00  0.00    +0.160 A 
ATOM     12  C   LIG    1        2.282  29.376   4.121  0.00  0.00    +0.069 A 
ATOM     13  C   LIG    1        3.017  28.606   5.017  0.00  0.00    +0.045 A 
ATOM     14 CL   LIG    1        3.087  26.897   4.824  0.00  0.00    -0.083 Cl
ATOM     15  C   LIG    1        3.703  29.209   6.069  0.00  0.00    +0.024 A 
ATOM     16  C   LIG    1        3.618  30.591   6.237  0.00  0.00    +0.051 A 
BRANCH  11  17
ATOM     17  O   LIG    1        1.532  31.494   3.350  0.00  0.00    -0.503 OA
ATOM     18  H   LIG    1        0.875  30.922   2.915  0.00  0.00    +0.292 HD
ENDBRANCH  11  17
ENDBRANCH   1  10
TORSDOF 3
ENDMDL
MODEL 9
REMARK VINA RESULT:      -6.9      1.796      6.027
REMARK  Name = 
REMARK                            x       y       z     vdW  Elec       q    Type
REMARK                         _______ _______ _______ _____ _____    ______ ____
ROOT
ATOM      1  O   LIG    1        0.238  30.817   5.048  0.00  0.00    -0.451 OA
ENDROOT
BRANCH   1   4
ATOM      2 CL   LIG    1        0.634  27.723   5.355  0.00  0.00    -0.080 Cl
ATOM      3  C   LIG    1        1.836  28.963   5.289  0.00  0.00    +0.085 A 
ATOM      4  C   LIG    1        1.514  30.320   5.139  0.00  0.00    +0.147 A 
ATOM      5  C   LIG    1        2.535  31.256   4.944  0.00  0.00    +0.049 A 
ATOM      6  C   LIG    1        3.872  30.858   4.974  0.00  0.00    +0.023 A 
ATOM      7  C   LIG    1        4.185  29.519   5.200  0.00  0.00    +0.043 A 
ATOM      8 CL   LIG    1        5.834  29.033   5.269  0.00  0.00    -0.083 Cl
ATOM      9  C   LIG    1        3.176  28.570   5.352  0.00  0.00    +0.043 A 
ENDBRANCH   1   4
BRANCH   1  10
ATOM     10  C   LIG    1        0.004  32.170   4.937  0.00  0.00    +0.170 A 
ATOM     11  C   LIG    1       -0.176  33.111   5.963  0.00  0.00    +0.160 A 
ATOM     12  C   LIG    1       -0.466  34.445   5.654  0.00  0.00    +0.069 A 
ATOM     13  C   LIG    1       -0.533  34.852   4.325  0.00  0.00    +0.045 A 
ATOM     14 CL   LIG    1       -0.896  36.492   3.949  0.00  0.00    -0.083 Cl
ATOM     15  C   LIG    1       -0.302  33.944   3.295  0.00  0.00    +0.024 A 
ATOM     16  C   LIG    1       -0.037  32.610   3.607  0.00  0.00    +0.051 A 
BRANCH  11  17
ATOM     17  O   LIG    1       -0.065  32.758   7.278  0.00  0.00    -0.503 OA
ATOM     18  H   LIG    1       -0.470  31.883   7.410  0.00  0.00    +0.292 HD
ENDBRANCH  11  17
ENDBRANCH   1  10
TORSDOF 3
ENDMDL
