MODEL 1
REMARK VINA RESULT:      -7.1      0.000      0.000
REMARK  Name = 
REMARK                            x       y       z     vdW  Elec       q    Type
REMARK                         _______ _______ _______ _____ _____    ______ ____
ROOT
ATOM      1  O   LIG    1      -46.350  10.978 -43.938  0.00  0.00    -0.451 OA
ENDROOT
BRANCH   1   4
ATOM      2 CL   LIG    1      -45.813  12.562 -46.590  0.00  0.00    -0.080 Cl
ATOM      3  C   LIG    1      -44.897  12.569 -45.124  0.00  0.00    +0.085 A 
ATOM      4  C   LIG    1      -45.261  11.811 -44.002  0.00  0.00    +0.147 A 
ATOM      5  C   LIG    1      -44.564  11.974 -42.800  0.00  0.00    +0.049 A 
ATOM      6  C   LIG    1      -43.463  12.829 -42.734  0.00  0.00    +0.023 A 
ATOM      7  C   LIG    1      -43.061  13.520 -43.876  0.00  0.00    +0.043 A 
ATOM      8 CL   LIG    1      -41.684  14.550 -43.804  0.00  0.00    -0.083 Cl
ATOM      9  C   LIG    1      -43.773  13.400 -45.067  0.00  0.00    +0.043 A 
ENDBRANCH   1   4
BRANCH   1  10
ATOM     10  C   LIG    1      -47.367  11.198 -43.034  0.00  0.00    +0.170 A 
ATOM     11  C   LIG    1      -48.232  12.300 -42.947  0.00  0.00    +0.160 A 
ATOM     12  C   LIG    1      -49.173  12.376 -41.914  0.00  0.00    +0.069 A 
ATOM     13  C   LIG    1      -49.283  11.337 -40.995  0.00  0.00    +0.045 A 
ATOM     14 CL   LIG    1      -50.437  11.438 -39.722  0.00  0.00    -0.083 Cl
ATOM     15  C   LIG    1      -48.470  10.211 -41.100  0.00  0.00    +0.024 A 
ATOM     16  C   LIG    1      -47.517  10.150 -42.117  0.00  0.00    +0.051 A 
BRANCH  11  17
ATOM     17  O   LIG    1      -48.189  13.313 -43.862  0.00  0.00    -0.503 OA
ATOM     18  H   LIG    1      -48.978  13.265 -44.431  0.00  0.00    +0.292 HD
ENDBRANCH  11  17
ENDBRANCH   1  10
TORSDOF 3
ENDMDL
MODEL 2
REMARK VINA RESULT:      -7.0      1.663      5.835
REMARK  Name = 
REMARK                            x       y       z     vdW  Elec       q    Type
REMARK                         _______ _______ _______ _____ _____    ______ ____
ROOT
ATOM      1  O   LIG    1      -46.190  11.273 -44.402  0.00  0.00    -0.451 OA
ENDROOT
BRANCH   1   4
ATOM      2 CL   LIG    1      -45.984   8.858 -42.414  0.00  0.00    -0.080 Cl
ATOM      3  C   LIG    1      -47.122  10.159 -42.417  0.00  0.00    +0.085 A 
ATOM      4  C   LIG    1      -47.091  11.187 -43.370  0.00  0.00    +0.147 A 
ATOM      5  C   LIG    1      -47.944  12.287 -43.230  0.00  0.00    +0.049 A 
ATOM      6  C   LIG    1      -48.875  12.329 -42.192  0.00  0.00    +0.023 A 
ATOM      7  C   LIG    1      -48.951  11.266 -41.293  0.00  0.00    +0.043 A 
ATOM      8 CL   LIG    1      -50.120  11.302 -40.031  0.00  0.00    -0.083 Cl
ATOM      9  C   LIG    1      -48.077  10.185 -41.396  0.00  0.00    +0.043 A 
ENDBRANCH   1   4
BRANCH   1  10
ATOM     10  C   LIG    1      -45.164  12.192 -44.380  0.00  0.00    +0.170 A 
ATOM     11  C   LIG    1      -44.811  13.129 -45.364  0.00  0.00    +0.160 A 
ATOM     12  C   LIG    1      -43.690  13.947 -45.189  0.00  0.00    +0.069 A 
ATOM     13  C   LIG    1      -42.945  13.865 -44.016  0.00  0.00    +0.045 A 
ATOM     14 CL   LIG    1      -41.562  14.869 -43.807  0.00  0.00    -0.083 Cl
ATOM     15  C   LIG    1      -43.313  12.981 -43.005  0.00  0.00    +0.024 A 
ATOM     16  C   LIG    1      -44.418  12.150 -43.194  0.00  0.00    +0.051 A 
BRANCH  11  17
ATOM     17  O   LIG    1      -45.550  13.274 -46.504  0.00  0.00    -0.503 OA
ATOM     18  H   LIG    1      -45.699  12.398 -46.903  0.00  0.00    +0.292 HD
ENDBRANCH  11  17
ENDBRANCH   1  10
TORSDOF 3
ENDMDL
MODEL 3
REMARK VINA RESULT:      -6.7     11.265     13.072
REMARK  Name = 
REMARK                            x       y       z     vdW  Elec       q    Type
REMARK                         _______ _______ _______ _____ _____    ______ ____
ROOT
ATOM      1  O   LIG    1      -34.236   7.173 -40.094  0.00  0.00    -0.451 OA
ENDROOT
BRANCH   1   4
ATOM      2 CL   LIG    1      -34.830   4.591 -41.769  0.00  0.00    -0.080 Cl
ATOM      3  C   LIG    1      -35.315   6.219 -42.087  0.00  0.00    +0.085 A 
ATOM      4  C   LIG    1      -34.983   7.285 -41.240  0.00  0.00    +0.147 A 
ATOM      5  C   LIG    1      -35.531   8.551 -41.473  0.00  0.00    +0.049 A 
ATOM      6  C   LIG    1      -36.342   8.774 -42.586  0.00  0.00    +0.023 A 
ATOM      7  C   LIG    1      -36.604   7.726 -43.466  0.00  0.00    +0.043 A 
ATOM      8 CL   LIG    1      -37.578   8.007 -44.857  0.00  0.00    -0.083 Cl
ATOM      9  C   LIG    1      -36.101   6.450 -43.221  0.00  0.00    +0.043 A 
ENDBRANCH   1   4
BRANCH   1  10
ATOM     10  C   LIG    1      -34.720   6.511 -38.986  0.00  0.00    +0.170 A 
ATOM     11  C   LIG    1      -35.728   6.920 -38.099  0.00  0.00    +0.160 A 
ATOM     12  C   LIG    1      -36.046   6.135 -36.985  0.00  0.00    +0.069 A 
ATOM     13  C   LIG    1      -35.394   4.924 -36.777  0.00  0.00    +0.045 A 
ATOM     14 CL   LIG    1      -35.783   3.965 -35.402  0.00  0.00    -0.083 Cl
ATOM     15  C   LIG    1      -34.430   4.477 -37.678  0.00  0.00    +0.024 A 
ATOM     16  C   LIG    1      -34.099   5.273 -38.775  0.00  0.00    +0.051 A 
BRANCH  11  17
ATOM     17  O   LIG    1      -36.427   8.076 -38.300  0.00  0.00    -0.503 OA
ATOM     18  H   LIG    1      -36.248   8.406 -39.199  0.00  0.00    +0.292 HD
ENDBRANCH  11  17
ENDBRANCH   1  10
TORSDOF 3
ENDMDL
MODEL 4
REMARK VINA RESULT:      -6.7      1.371      1.866
REMARK  Name = 
REMARK                            x       y       z     vdW  Elec       q    Type
REMARK                         _______ _______ _______ _____ _____    ______ ____
ROOT
ATOM      1  O   LIG    1      -46.819  10.893 -44.147  0.00  0.00    -0.451 OA
ENDROOT
BRANCH   1   4
ATOM      2 CL   LIG    1      -44.475  11.106 -42.077  0.00  0.00    -0.080 Cl
ATOM      3  C   LIG    1      -44.677  11.953 -43.570  0.00  0.00    +0.085 A 
ATOM      4  C   LIG    1      -45.781  11.752 -44.409  0.00  0.00    +0.147 A 
ATOM      5  C   LIG    1      -45.811  12.356 -45.671  0.00  0.00    +0.049 A 
ATOM      6  C   LIG    1      -44.787  13.217 -46.065  0.00  0.00    +0.023 A 
ATOM      7  C   LIG    1      -43.731  13.473 -45.191  0.00  0.00    +0.043 A 
ATOM      8 CL   LIG    1      -42.482  14.560 -45.663  0.00  0.00    -0.083 Cl
ATOM      9  C   LIG    1      -43.666  12.842 -43.950  0.00  0.00    +0.043 A 
ENDBRANCH   1   4
BRANCH   1  10
ATOM     10  C   LIG    1      -47.727  11.153 -43.143  0.00  0.00    +0.170 A 
ATOM     11  C   LIG    1      -48.514  12.300 -42.957  0.00  0.00    +0.160 A 
ATOM     12  C   LIG    1      -49.343  12.410 -41.834  0.00  0.00    +0.069 A 
ATOM     13  C   LIG    1      -49.422  11.363 -40.922  0.00  0.00    +0.045 A 
ATOM     14 CL   LIG    1      -50.437  11.505 -39.539  0.00  0.00    -0.083 Cl
ATOM     15  C   LIG    1      -48.689  10.195 -41.121  0.00  0.00    +0.024 A 
ATOM     16  C   LIG    1      -47.846  10.098 -42.229  0.00  0.00    +0.051 A 
BRANCH  11  17
ATOM     17  O   LIG    1      -48.503  13.325 -43.859  0.00  0.00    -0.503 OA
ATOM     18  H   LIG    1      -47.642  13.778 -43.819  0.00  0.00    +0.292 HD
ENDBRANCH  11  17
ENDBRANCH   1  10
TORSDOF 3
ENDMDL
MODEL 5
REMARK VINA RESULT:      -6.7      2.737      4.171
REMARK  Name = 
REMARK                            x       y       z     vdW  Elec       q    Type
REMARK                         _______ _______ _______ _____ _____    ______ ____
ROOT
ATOM      1  O   LIG    1      -46.620  10.447 -43.875  0.00  0.00    -0.451 OA
ENDROOT
BRANCH   1   4
ATOM      2 CL   LIG    1      -46.064  12.183 -46.425  0.00  0.00    -0.080 Cl
ATOM      3  C   LIG    1      -46.790  10.618 -46.322  0.00  0.00    +0.085 A 
ATOM      4  C   LIG    1      -46.971   9.948 -45.104  0.00  0.00    +0.147 A 
ATOM      5  C   LIG    1      -47.427   8.625 -45.103  0.00  0.00    +0.049 A 
ATOM      6  C   LIG    1      -47.775   7.998 -46.299  0.00  0.00    +0.023 A 
ATOM      7  C   LIG    1      -47.665   8.699 -47.499  0.00  0.00    +0.043 A 
ATOM      8 CL   LIG    1      -48.124   7.937 -48.973  0.00  0.00    -0.083 Cl
ATOM      9  C   LIG    1      -47.170  10.001 -47.519  0.00  0.00    +0.043 A 
ENDBRANCH   1   4
BRANCH   1  10
ATOM     10  C   LIG    1      -47.575  10.828 -42.958  0.00  0.00    +0.170 A 
ATOM     11  C   LIG    1      -48.295  12.032 -42.898  0.00  0.00    +0.160 A 
ATOM     12  C   LIG    1      -49.189  12.266 -41.848  0.00  0.00    +0.069 A 
ATOM     13  C   LIG    1      -49.401  11.286 -40.882  0.00  0.00    +0.045 A 
ATOM     14 CL   LIG    1      -50.497  11.581 -39.588  0.00  0.00    -0.083 Cl
ATOM     15  C   LIG    1      -48.737  10.065 -40.957  0.00  0.00    +0.024 A 
ATOM     16  C   LIG    1      -47.828   9.844 -41.993  0.00  0.00    +0.051 A 
BRANCH  11  17
ATOM     17  O   LIG    1      -48.152  12.994 -43.857  0.00  0.00    -0.503 OA
ATOM     18  H   LIG    1      -48.691  12.756 -44.632  0.00  0.00    +0.292 HD
ENDBRANCH  11  17
ENDBRANCH   1  10
TORSDOF 3
ENDMDL
MODEL 6
REMARK VINA RESULT:      -6.6      1.611      5.711
REMARK  Name = 
REMARK                            x       y       z     vdW  Elec       q    Type
REMARK                         _______ _______ _______ _____ _____    ______ ____
ROOT
ATOM      1  O   LIG    1      -45.418  11.222 -44.270  0.00  0.00    -0.451 OA
ENDROOT
BRANCH   1   4
ATOM      2 CL   LIG    1      -48.397  12.156 -44.551  0.00  0.00    -0.080 Cl
ATOM      3  C   LIG    1      -47.604  11.478 -43.173  0.00  0.00    +0.085 A 
ATOM      4  C   LIG    1      -46.256  11.094 -43.190  0.00  0.00    +0.147 A 
ATOM      5  C   LIG    1      -45.715  10.416 -42.092  0.00  0.00    +0.049 A 
ATOM      6  C   LIG    1      -46.488  10.190 -40.953  0.00  0.00    +0.023 A 
ATOM      7  C   LIG    1      -47.805  10.645 -40.915  0.00  0.00    +0.043 A 
ATOM      8 CL   LIG    1      -48.749  10.395 -39.498  0.00  0.00    -0.083 Cl
ATOM      9  C   LIG    1      -48.369  11.282 -42.018  0.00  0.00    +0.043 A 
ENDBRANCH   1   4
BRANCH   1  10
ATOM     10  C   LIG    1      -44.622  12.335 -44.430  0.00  0.00    +0.170 A 
ATOM     11  C   LIG    1      -44.644  13.280 -45.468  0.00  0.00    +0.160 A 
ATOM     12  C   LIG    1      -43.710  14.321 -45.492  0.00  0.00    +0.069 A 
ATOM     13  C   LIG    1      -42.784  14.450 -44.462  0.00  0.00    +0.045 A 
ATOM     14 CL   LIG    1      -41.632  15.729 -44.498  0.00  0.00    -0.083 Cl
ATOM     15  C   LIG    1      -42.784  13.554 -43.395  0.00  0.00    +0.024 A 
ATOM     16  C   LIG    1      -43.702  12.503 -43.387  0.00  0.00    +0.051 A 
BRANCH  11  17
ATOM     17  O   LIG    1      -45.572  13.216 -46.468  0.00  0.00    -0.503 OA
ATOM     18  H   LIG    1      -46.043  12.366 -46.414  0.00  0.00    +0.292 HD
ENDBRANCH  11  17
ENDBRANCH   1  10
TORSDOF 3
ENDMDL
MODEL 7
REMARK VINA RESULT:      -6.6     11.995     13.801
REMARK  Name = 
REMARK                            x       y       z     vdW  Elec       q    Type
REMARK                         _______ _______ _______ _____ _____    ______ ____
ROOT
ATOM      1  O   LIG    1      -33.938   5.980 -39.733  0.00  0.00    -0.451 OA
ENDROOT
BRANCH   1   4
ATOM      2 CL   LIG    1      -34.677   9.024 -39.844  0.00  0.00    -0.080 Cl
ATOM      3  C   LIG    1      -35.137   7.762 -40.931  0.00  0.00    +0.085 A 
ATOM      4  C   LIG    1      -34.723   6.432 -40.764  0.00  0.00    +0.147 A 
ATOM      5  C   LIG    1      -35.006   5.489 -41.758  0.00  0.00    +0.049 A 
ATOM      6  C   LIG    1      -35.762   5.846 -42.874  0.00  0.00    +0.023 A 
ATOM      7  C   LIG    1      -36.236   7.152 -42.994  0.00  0.00    +0.043 A 
ATOM      8 CL   LIG    1      -37.195   7.585 -44.355  0.00  0.00    -0.083 Cl
ATOM      9  C   LIG    1      -35.923   8.112 -42.034  0.00  0.00    +0.043 A 
ENDBRANCH   1   4
BRANCH   1  10
ATOM     10  C   LIG    1      -34.462   5.206 -38.721  0.00  0.00    +0.170 A 
ATOM     11  C   LIG    1      -34.511   3.806 -38.630  0.00  0.00    +0.160 A 
ATOM     12  C   LIG    1      -35.142   3.193 -37.542  0.00  0.00    +0.069 A 
ATOM     13  C   LIG    1      -35.686   3.969 -36.524  0.00  0.00    +0.045 A 
ATOM     14 CL   LIG    1      -36.469   3.211 -35.192  0.00  0.00    -0.083 Cl
ATOM     15  C   LIG    1      -35.598   5.359 -36.571  0.00  0.00    +0.024 A 
ATOM     16  C   LIG    1      -34.988   5.967 -37.668  0.00  0.00    +0.051 A 
BRANCH  11  17
ATOM     17  O   LIG    1      -33.941   3.011 -39.583  0.00  0.00    -0.503 OA
ATOM     18  H   LIG    1      -33.231   3.506 -40.030  0.00  0.00    +0.292 HD
ENDBRANCH  11  17
ENDBRANCH   1  10
TORSDOF 3
ENDMDL
MODEL 8
REMARK VINA RESULT:      -6.5      3.085      4.786
REMARK  Name = 
REMARK                            x       y       z     vdW  Elec       q    Type
REMARK                         _______ _______ _______ _____ _____    ______ ____
ROOT
ATOM      1  O   LIG    1      -46.558   9.547 -43.515  0.00  0.00    -0.451 OA
ENDROOT
BRANCH   1   4
ATOM      2 CL   LIG    1      -45.850  11.498 -45.864  0.00  0.00    -0.080 Cl
ATOM      3  C   LIG    1      -46.785  10.045 -45.913  0.00  0.00    +0.085 A 
ATOM      4  C   LIG    1      -47.017   9.258 -44.776  0.00  0.00    +0.147 A 
ATOM      5  C   LIG    1      -47.655   8.020 -44.910  0.00  0.00    +0.049 A 
ATOM      6  C   LIG    1      -48.127   7.601 -46.154  0.00  0.00    +0.023 A 
ATOM      7  C   LIG    1      -47.960   8.425 -47.266  0.00  0.00    +0.043 A 
ATOM      8 CL   LIG    1      -48.570   7.924 -48.795  0.00  0.00    -0.083 Cl
ATOM      9  C   LIG    1      -47.288   9.641 -47.154  0.00  0.00    +0.043 A 
ENDBRANCH   1   4
BRANCH   1  10
ATOM     10  C   LIG    1      -47.422   9.912 -42.506  0.00  0.00    +0.170 A 
ATOM     11  C   LIG    1      -47.767   9.191 -41.351  0.00  0.00    +0.160 A 
ATOM     12  C   LIG    1      -48.717   9.702 -40.460  0.00  0.00    +0.069 A 
ATOM     13  C   LIG    1      -49.291  10.947 -40.693  0.00  0.00    +0.045 A 
ATOM     14 CL   LIG    1      -50.465  11.569 -39.598  0.00  0.00    -0.083 Cl
ATOM     15  C   LIG    1      -48.919  11.700 -41.804  0.00  0.00    +0.024 A 
ATOM     16  C   LIG    1      -47.989  11.178 -42.703  0.00  0.00    +0.051 A 
BRANCH  11  17
ATOM     17  O   LIG    1      -47.184   7.989 -41.063  0.00  0.00    -0.503 OA
ATOM     18  H   LIG    1      -46.253   8.009 -41.345  0.00  0.00    +0.292 HD
ENDBRANCH  11  17
ENDBRANCH   1  10
TORSDOF 3
ENDMDL
MODEL 9
REMARK VINA RESULT:      -6.5      2.625      3.336
REMARK  Name = 
REMARK                            x       y       z     vdW  Elec       q    Type
REMARK                         _______ _______ _______ _____ _____    ______ ____
ROOT
ATOM      1  O   LIG    1      -46.256  10.701 -43.705  0.00  0.00    -0.451 OA
ENDROOT
BRANCH   1   4
ATOM      2 CL   LIG    1      -48.188   8.834 -45.321  0.00  0.00    -0.080 Cl
ATOM      3  C   LIG    1      -47.177  10.108 -45.907  0.00  0.00    +0.085 A 
ATOM      4  C   LIG    1      -46.362  10.874 -45.062  0.00  0.00    +0.147 A 
ATOM      5  C   LIG    1      -45.682  11.984 -45.576  0.00  0.00    +0.049 A 
ATOM      6  C   LIG    1      -45.750  12.285 -46.937  0.00  0.00    +0.023 A 
ATOM      7  C   LIG    1      -46.501  11.470 -47.783  0.00  0.00    +0.043 A 
ATOM      8 CL   LIG    1      -46.560  11.821 -49.467  0.00  0.00    -0.083 Cl
ATOM      9  C   LIG    1      -47.218  10.389 -47.276  0.00  0.00    +0.043 A 
ENDBRANCH   1   4
BRANCH   1  10
ATOM     10  C   LIG    1      -47.304  11.001 -42.862  0.00  0.00    +0.170 A 
ATOM     11  C   LIG    1      -48.122  12.142 -42.860  0.00  0.00    +0.160 A 
ATOM     12  C   LIG    1      -49.107  12.301 -41.880  0.00  0.00    +0.069 A 
ATOM     13  C   LIG    1      -49.309  11.307 -40.928  0.00  0.00    +0.045 A 
ATOM     14 CL   LIG    1      -50.517  11.510 -39.719  0.00  0.00    -0.083 Cl
ATOM     15  C   LIG    1      -48.544  10.143 -40.948  0.00  0.00    +0.024 A 
ATOM     16  C   LIG    1      -47.546   9.999 -41.913  0.00  0.00    +0.051 A 
BRANCH  11  17
ATOM     17  O   LIG    1      -47.988  13.114 -43.811  0.00  0.00    -0.503 OA
ATOM     18  H   LIG    1      -47.185  13.634 -43.627  0.00  0.00    +0.292 HD
ENDBRANCH  11  17
ENDBRANCH   1  10
TORSDOF 3
ENDMDL
