MODEL 1
REMARK VINA RESULT:      -7.3      0.000      0.000
REMARK  Name = 
REMARK                            x       y       z     vdW  Elec       q    Type
REMARK                         _______ _______ _______ _____ _____    ______ ____
ROOT
ATOM      1  O   LIG    1       27.160 -27.436 -11.863  0.00  0.00    -0.451 OA
ENDROOT
BRANCH   1   4
ATOM      2 CL   LIG    1       27.298 -28.428  -8.892  0.00  0.00    -0.080 Cl
ATOM      3  C   LIG    1       26.222 -28.929 -10.148  0.00  0.00    +0.085 A 
ATOM      4  C   LIG    1       26.268 -28.390 -11.442  0.00  0.00    +0.147 A 
ATOM      5  C   LIG    1       25.276 -28.730 -12.369  0.00  0.00    +0.049 A 
ATOM      6  C   LIG    1       24.289 -29.659 -12.037  0.00  0.00    +0.023 A 
ATOM      7  C   LIG    1       24.298 -30.248 -10.774  0.00  0.00    +0.043 A 
ATOM      8 CL   LIG    1       23.100 -31.418 -10.375  0.00  0.00    -0.083 Cl
ATOM      9  C   LIG    1       25.254 -29.885  -9.827  0.00  0.00    +0.043 A 
ENDBRANCH   1   4
BRANCH   1  10
ATOM     10  C   LIG    1       26.747 -26.161 -12.182  0.00  0.00    +0.170 A 
ATOM     11  C   LIG    1       27.072 -25.397 -13.314  0.00  0.00    +0.160 A 
ATOM     12  C   LIG    1       26.600 -24.086 -13.438  0.00  0.00    +0.069 A 
ATOM     13  C   LIG    1       25.770 -23.549 -12.460  0.00  0.00    +0.045 A 
ATOM     14 CL   LIG    1       25.197 -21.933 -12.613  0.00  0.00    -0.083 Cl
ATOM     15  C   LIG    1       25.392 -24.312 -11.358  0.00  0.00    +0.024 A 
ATOM     16  C   LIG    1       25.883 -25.612 -11.225  0.00  0.00    +0.051 A 
BRANCH  11  17
ATOM     17  O   LIG    1       27.842 -25.909 -14.320  0.00  0.00    -0.503 OA
ATOM     18  H   LIG    1       28.088 -26.825 -14.100  0.00  0.00    +0.292 HD
ENDBRANCH  11  17
ENDBRANCH   1  10
TORSDOF 3
ENDMDL
MODEL 2
REMARK VINA RESULT:      -7.0      0.780      1.702
REMARK  Name = 
REMARK                            x       y       z     vdW  Elec       q    Type
REMARK                         _______ _______ _______ _____ _____    ______ ____
ROOT
ATOM      1  O   LIG    1       27.043 -27.515 -11.885  0.00  0.00    -0.451 OA
ENDROOT
BRANCH   1   4
ATOM      2 CL   LIG    1       27.388 -28.588  -8.960  0.00  0.00    -0.080 Cl
ATOM      3  C   LIG    1       26.276 -29.109 -10.176  0.00  0.00    +0.085 A 
ATOM      4  C   LIG    1       26.225 -28.529 -11.452  0.00  0.00    +0.147 A 
ATOM      5  C   LIG    1       25.206 -28.893 -12.338  0.00  0.00    +0.049 A 
ATOM      6  C   LIG    1       24.288 -29.884 -11.988  0.00  0.00    +0.023 A 
ATOM      7  C   LIG    1       24.393 -30.510 -10.747  0.00  0.00    +0.043 A 
ATOM      8 CL   LIG    1       23.282 -31.755 -10.327  0.00  0.00    -0.083 Cl
ATOM      9  C   LIG    1       25.377 -30.125  -9.838  0.00  0.00    +0.043 A 
ENDBRANCH   1   4
BRANCH   1  10
ATOM     10  C   LIG    1       26.570 -26.230 -12.037  0.00  0.00    +0.170 A 
ATOM     11  C   LIG    1       25.627 -25.550 -11.251  0.00  0.00    +0.160 A 
ATOM     12  C   LIG    1       25.223 -24.256 -11.598  0.00  0.00    +0.069 A 
ATOM     13  C   LIG    1       25.788 -23.622 -12.700  0.00  0.00    +0.045 A 
ATOM     14 CL   LIG    1       25.283 -22.033 -13.128  0.00  0.00    -0.083 Cl
ATOM     15  C   LIG    1       26.766 -24.261 -13.458  0.00  0.00    +0.024 A 
ATOM     16  C   LIG    1       27.150 -25.560 -13.123  0.00  0.00    +0.051 A 
BRANCH  11  17
ATOM     17  O   LIG    1       25.090 -26.121 -10.132  0.00  0.00    -0.503 OA
ATOM     18  H   LIG    1       24.233 -25.702  -9.939  0.00  0.00    +0.292 HD
ENDBRANCH  11  17
ENDBRANCH   1  10
TORSDOF 3
ENDMDL
MODEL 3
REMARK VINA RESULT:      -6.9      1.685      2.539
REMARK  Name = 
REMARK                            x       y       z     vdW  Elec       q    Type
REMARK                         _______ _______ _______ _____ _____    ______ ____
ROOT
ATOM      1  O   LIG    1       26.690 -27.380 -11.063  0.00  0.00    -0.451 OA
ENDROOT
BRANCH   1   4
ATOM      2 CL   LIG    1       24.784 -28.331 -13.362  0.00  0.00    -0.080 Cl
ATOM      3  C   LIG    1       24.899 -28.921 -11.742  0.00  0.00    +0.085 A 
ATOM      4  C   LIG    1       25.811 -28.404 -10.813  0.00  0.00    +0.147 A 
ATOM      5  C   LIG    1       25.957 -29.024  -9.566  0.00  0.00    +0.049 A 
ATOM      6  C   LIG    1       25.146 -30.104  -9.217  0.00  0.00    +0.023 A 
ATOM      7  C   LIG    1       24.187 -30.562 -10.119  0.00  0.00    +0.043 A 
ATOM      8 CL   LIG    1       23.165 -31.874  -9.677  0.00  0.00    -0.083 Cl
ATOM      9  C   LIG    1       24.063 -29.982 -11.380  0.00  0.00    +0.043 A 
ENDBRANCH   1   4
BRANCH   1  10
ATOM     10  C   LIG    1       26.248 -26.144 -11.484  0.00  0.00    +0.170 A 
ATOM     11  C   LIG    1       25.120 -25.429 -11.052  0.00  0.00    +0.160 A 
ATOM     12  C   LIG    1       24.794 -24.204 -11.644  0.00  0.00    +0.069 A 
ATOM     13  C   LIG    1       25.613 -23.669 -12.633  0.00  0.00    +0.045 A 
ATOM     14 CL   LIG    1       25.205 -22.164 -13.363  0.00  0.00    -0.083 Cl
ATOM     15  C   LIG    1       26.766 -24.338 -13.034  0.00  0.00    +0.024 A 
ATOM     16  C   LIG    1       27.075 -25.571 -12.458  0.00  0.00    +0.051 A 
BRANCH  11  17
ATOM     17  O   LIG    1       24.323 -25.898 -10.047  0.00  0.00    -0.503 OA
ATOM     18  H   LIG    1       23.399 -25.648 -10.227  0.00  0.00    +0.292 HD
ENDBRANCH  11  17
ENDBRANCH   1  10
TORSDOF 3
ENDMDL
MODEL 4
REMARK VINA RESULT:      -6.7      1.361      1.797
REMARK  Name = 
REMARK                            x       y       z     vdW  Elec       q    Type
REMARK                         _______ _______ _______ _____ _____    ______ ____
ROOT
ATOM      1  O   LIG    1       26.875 -27.319 -11.238  0.00  0.00    -0.451 OA
ENDROOT
BRANCH   1   4
ATOM      2 CL   LIG    1       24.889 -28.280 -13.464  0.00  0.00    -0.080 Cl
ATOM      3  C   LIG    1       25.016 -28.818 -11.827  0.00  0.00    +0.085 A 
ATOM      4  C   LIG    1       25.966 -28.302 -10.934  0.00  0.00    +0.147 A 
ATOM      5  C   LIG    1       26.116 -28.883  -9.670  0.00  0.00    +0.049 A 
ATOM      6  C   LIG    1       25.275 -29.920  -9.267  0.00  0.00    +0.023 A 
ATOM      7  C   LIG    1       24.281 -30.375 -10.133  0.00  0.00    +0.043 A 
ATOM      8 CL   LIG    1       23.222 -31.632  -9.625  0.00  0.00    -0.083 Cl
ATOM      9  C   LIG    1       24.151 -29.834 -11.411  0.00  0.00    +0.043 A 
ENDBRANCH   1   4
BRANCH   1  10
ATOM     10  C   LIG    1       26.470 -26.096 -11.726  0.00  0.00    +0.170 A 
ATOM     11  C   LIG    1       26.863 -25.458 -12.914  0.00  0.00    +0.160 A 
ATOM     12  C   LIG    1       26.386 -24.178 -13.217  0.00  0.00    +0.069 A 
ATOM     13  C   LIG    1       25.486 -23.550 -12.361  0.00  0.00    +0.045 A 
ATOM     14 CL   LIG    1       24.907 -21.973 -12.734  0.00  0.00    -0.083 Cl
ATOM     15  C   LIG    1       25.043 -24.191 -11.207  0.00  0.00    +0.024 A 
ATOM     16  C   LIG    1       25.539 -25.458 -10.896  0.00  0.00    +0.051 A 
BRANCH  11  17
ATOM     17  O   LIG    1       27.703 -26.066 -13.803  0.00  0.00    -0.503 OA
ATOM     18  H   LIG    1       28.532 -26.301 -13.351  0.00  0.00    +0.292 HD
ENDBRANCH  11  17
ENDBRANCH   1  10
TORSDOF 3
ENDMDL
MODEL 5
REMARK VINA RESULT:      -6.6      1.515      5.837
REMARK  Name = 
REMARK                            x       y       z     vdW  Elec       q    Type
REMARK                         _______ _______ _______ _____ _____    ______ ____
ROOT
ATOM      1  O   LIG    1       26.629 -27.304 -11.048  0.00  0.00    -0.451 OA
ENDROOT
BRANCH   1   4
ATOM      2 CL   LIG    1       23.944 -26.056 -10.017  0.00  0.00    -0.080 Cl
ATOM      3  C   LIG    1       25.036 -25.436 -11.204  0.00  0.00    +0.085 A 
ATOM      4  C   LIG    1       26.216 -26.101 -11.565  0.00  0.00    +0.147 A 
ATOM      5  C   LIG    1       27.130 -25.475 -12.421  0.00  0.00    +0.049 A 
ATOM      6  C   LIG    1       26.836 -24.229 -12.975  0.00  0.00    +0.023 A 
ATOM      7  C   LIG    1       25.625 -23.610 -12.671  0.00  0.00    +0.043 A 
ATOM      8 CL   LIG    1       25.248 -22.087 -13.380  0.00  0.00    -0.083 Cl
ATOM      9  C   LIG    1       24.727 -24.202 -11.786  0.00  0.00    +0.043 A 
ENDBRANCH   1   4
BRANCH   1  10
ATOM     10  C   LIG    1       25.773 -28.381 -10.972  0.00  0.00    +0.170 A 
ATOM     11  C   LIG    1       24.943 -28.907 -11.974  0.00  0.00    +0.160 A 
ATOM     12  C   LIG    1       24.090 -29.980 -11.692  0.00  0.00    +0.069 A 
ATOM     13  C   LIG    1       24.093 -30.557 -10.426  0.00  0.00    +0.045 A 
ATOM     14 CL   LIG    1       23.037 -31.871 -10.080  0.00  0.00    -0.083 Cl
ATOM     15  C   LIG    1       24.950 -30.083  -9.435  0.00  0.00    +0.024 A 
ATOM     16  C   LIG    1       25.783 -28.998  -9.714  0.00  0.00    +0.051 A 
BRANCH  11  17
ATOM     17  O   LIG    1       24.952 -28.401 -13.243  0.00  0.00    -0.503 OA
ATOM     18  H   LIG    1       24.592 -29.065 -13.856  0.00  0.00    +0.292 HD
ENDBRANCH  11  17
ENDBRANCH   1  10
TORSDOF 3
ENDMDL
MODEL 6
REMARK VINA RESULT:      -6.5      1.210      5.908
REMARK  Name = 
REMARK                            x       y       z     vdW  Elec       q    Type
REMARK                         _______ _______ _______ _____ _____    ______ ____
ROOT
ATOM      1  O   LIG    1       27.001 -27.405 -11.667  0.00  0.00    -0.451 OA
ENDROOT
BRANCH   1   4
ATOM      2 CL   LIG    1       24.692 -26.174  -9.941  0.00  0.00    -0.080 Cl
ATOM      3  C   LIG    1       25.470 -25.509 -11.333  0.00  0.00    +0.085 A 
ATOM      4  C   LIG    1       26.505 -26.172 -12.009  0.00  0.00    +0.147 A 
ATOM      5  C   LIG    1       27.192 -25.516 -13.037  0.00  0.00    +0.049 A 
ATOM      6  C   LIG    1       26.803 -24.239 -13.442  0.00  0.00    +0.023 A 
ATOM      7  C   LIG    1       25.723 -23.619 -12.816  0.00  0.00    +0.043 A 
ATOM      8 CL   LIG    1       25.222 -22.057 -13.337  0.00  0.00    -0.083 Cl
ATOM      9  C   LIG    1       25.058 -24.243 -11.762  0.00  0.00    +0.043 A 
ENDBRANCH   1   4
BRANCH   1  10
ATOM     10  C   LIG    1       26.170 -28.416 -11.235  0.00  0.00    +0.170 A 
ATOM     11  C   LIG    1       26.170 -29.074  -9.995  0.00  0.00    +0.160 A 
ATOM     12  C   LIG    1       25.281 -30.128  -9.757  0.00  0.00    +0.069 A 
ATOM     13  C   LIG    1       24.363 -30.498 -10.735  0.00  0.00    +0.045 A 
ATOM     14 CL   LIG    1       23.275 -31.799 -10.441  0.00  0.00    -0.083 Cl
ATOM     15  C   LIG    1       24.312 -29.819 -11.950  0.00  0.00    +0.024 A 
ATOM     16  C   LIG    1       25.216 -28.784 -12.192  0.00  0.00    +0.051 A 
BRANCH  11  17
ATOM     17  O   LIG    1       27.021 -28.703  -8.993  0.00  0.00    -0.503 OA
ATOM     18  H   LIG    1       27.878 -29.148  -9.119  0.00  0.00    +0.292 HD
ENDBRANCH  11  17
ENDBRANCH   1  10
TORSDOF 3
ENDMDL
MODEL 7
REMARK VINA RESULT:      -6.1      2.325      6.084
REMARK  Name = 
REMARK                            x       y       z     vdW  Elec       q    Type
REMARK                         _______ _______ _______ _____ _____    ______ ____
ROOT
ATOM      1  O   LIG    1       23.783 -26.344 -10.157  0.00  0.00    -0.451 OA
ENDROOT
BRANCH   1   4
ATOM      2 CL   LIG    1       26.723 -27.152 -10.885  0.00  0.00    -0.080 Cl
ATOM      3  C   LIG    1       25.811 -25.790 -11.433  0.00  0.00    +0.085 A 
ATOM      4  C   LIG    1       24.490 -25.553 -11.028  0.00  0.00    +0.147 A 
ATOM      5  C   LIG    1       23.759 -24.518 -11.621  0.00  0.00    +0.049 A 
ATOM      6  C   LIG    1       24.361 -23.674 -12.554  0.00  0.00    +0.023 A 
ATOM      7  C   LIG    1       25.699 -23.869 -12.893  0.00  0.00    +0.043 A 
ATOM      8 CL   LIG    1       26.453 -22.809 -14.020  0.00  0.00    -0.083 Cl
ATOM      9  C   LIG    1       26.425 -24.924 -12.343  0.00  0.00    +0.043 A 
ENDBRANCH   1   4
BRANCH   1  10
ATOM     10  C   LIG    1       23.566 -27.679 -10.418  0.00  0.00    +0.170 A 
ATOM     11  C   LIG    1       22.940 -28.258 -11.534  0.00  0.00    +0.160 A 
ATOM     12  C   LIG    1       22.755 -29.644 -11.597  0.00  0.00    +0.069 A 
ATOM     13  C   LIG    1       23.230 -30.457 -10.574  0.00  0.00    +0.045 A 
ATOM     14 CL   LIG    1       22.994 -32.160 -10.652  0.00  0.00    -0.083 Cl
ATOM     15  C   LIG    1       23.902 -29.905  -9.486  0.00  0.00    +0.024 A 
ATOM     16  C   LIG    1       24.064 -28.521  -9.415  0.00  0.00    +0.051 A 
BRANCH  11  17
ATOM     17  O   LIG    1       22.509 -27.496 -12.582  0.00  0.00    -0.503 OA
ATOM     18  H   LIG    1       23.126 -26.754 -12.714  0.00  0.00    +0.292 HD
ENDBRANCH  11  17
ENDBRANCH   1  10
TORSDOF 3
ENDMDL
MODEL 8
REMARK VINA RESULT:      -6.1      2.840      3.508
REMARK  Name = 
REMARK                            x       y       z     vdW  Elec       q    Type
REMARK                         _______ _______ _______ _____ _____    ______ ____
ROOT
ATOM      1  O   LIG    1       22.972 -26.377 -11.008  0.00  0.00    -0.451 OA
ENDROOT
BRANCH   1   4
ATOM      2 CL   LIG    1       22.072 -28.018 -13.523  0.00  0.00    -0.080 Cl
ATOM      3  C   LIG    1       22.483 -28.597 -11.948  0.00  0.00    +0.085 A 
ATOM      4  C   LIG    1       22.880 -27.743 -10.909  0.00  0.00    +0.147 A 
ATOM      5  C   LIG    1       23.341 -28.286  -9.704  0.00  0.00    +0.049 A 
ATOM      6  C   LIG    1       23.335 -29.666  -9.505  0.00  0.00    +0.023 A 
ATOM      7  C   LIG    1       22.865 -30.504 -10.515  0.00  0.00    +0.043 A 
ATOM      8 CL   LIG    1       22.827 -32.205 -10.259  0.00  0.00    -0.083 Cl
ATOM      9  C   LIG    1       22.445 -29.979 -11.736  0.00  0.00    +0.043 A 
ENDBRANCH   1   4
BRANCH   1  10
ATOM     10  C   LIG    1       24.104 -25.770 -11.506  0.00  0.00    +0.170 A 
ATOM     11  C   LIG    1       24.298 -24.418 -11.830  0.00  0.00    +0.160 A 
ATOM     12  C   LIG    1       25.510 -23.994 -12.385  0.00  0.00    +0.069 A 
ATOM     13  C   LIG    1       26.544 -24.904 -12.578  0.00  0.00    +0.045 A 
ATOM     14 CL   LIG    1       28.032 -24.380 -13.268  0.00  0.00    -0.083 Cl
ATOM     15  C   LIG    1       26.389 -26.239 -12.210  0.00  0.00    +0.024 A 
ATOM     16  C   LIG    1       25.171 -26.663 -11.678  0.00  0.00    +0.051 A 
BRANCH  11  17
ATOM     17  O   LIG    1       23.324 -23.487 -11.606  0.00  0.00    -0.503 OA
ATOM     18  H   LIG    1       22.516 -23.936 -11.300  0.00  0.00    +0.292 HD
ENDBRANCH  11  17
ENDBRANCH   1  10
TORSDOF 3
ENDMDL
MODEL 9
REMARK VINA RESULT:      -6.1      1.559      6.012
REMARK  Name = 
REMARK                            x       y       z     vdW  Elec       q    Type
REMARK                         _______ _______ _______ _____ _____    ______ ____
ROOT
ATOM      1  O   LIG    1       26.965 -27.190 -11.845  0.00  0.00    -0.451 OA
ENDROOT
BRANCH   1   4
ATOM      2 CL   LIG    1       27.779 -25.918 -14.592  0.00  0.00    -0.080 Cl
ATOM      3  C   LIG    1       26.914 -25.195 -13.282  0.00  0.00    +0.085 A 
ATOM      4  C   LIG    1       26.608 -25.890 -12.103  0.00  0.00    +0.147 A 
ATOM      5  C   LIG    1       25.779 -25.298 -11.145  0.00  0.00    +0.049 A 
ATOM      6  C   LIG    1       25.319 -23.992 -11.321  0.00  0.00    +0.023 A 
ATOM      7  C   LIG    1       25.692 -23.280 -12.460  0.00  0.00    +0.043 A 
ATOM      8 CL   LIG    1       25.151 -21.659 -12.663  0.00  0.00    -0.083 Cl
ATOM      9  C   LIG    1       26.480 -23.875 -13.443  0.00  0.00    +0.043 A 
ENDBRANCH   1   4
BRANCH   1  10
ATOM     10  C   LIG    1       26.035 -28.118 -11.428  0.00  0.00    +0.170 A 
ATOM     11  C   LIG    1       25.948 -28.767 -10.187  0.00  0.00    +0.160 A 
ATOM     12  C   LIG    1       24.960 -29.733  -9.965  0.00  0.00    +0.069 A 
ATOM     13  C   LIG    1       24.032 -30.021 -10.960  0.00  0.00    +0.045 A 
ATOM     14 CL   LIG    1       22.822 -31.214 -10.686  0.00  0.00    -0.083 Cl
ATOM     15  C   LIG    1       24.069 -29.346 -12.178  0.00  0.00    +0.024 A 
ATOM     16  C   LIG    1       25.070 -28.401 -12.405  0.00  0.00    +0.051 A 
BRANCH  11  17
ATOM     17  O   LIG    1       26.809 -28.471  -9.168  0.00  0.00    -0.503 OA
ATOM     18  H   LIG    1       27.622 -28.995  -9.274  0.00  0.00    +0.292 HD
ENDBRANCH  11  17
ENDBRANCH   1  10
TORSDOF 3
ENDMDL
