MODEL 1
REMARK VINA RESULT:      -7.9      0.000      0.000
REMARK  Name = 
REMARK                            x       y       z     vdW  Elec       q    Type
REMARK                         _______ _______ _______ _____ _____    ______ ____
ROOT
ATOM      1  O   LIG    1       19.681  47.539  14.990  0.00  0.00    -0.451 OA
ENDROOT
BRANCH   1   4
ATOM      2 CL   LIG    1       16.628  48.229  14.828  0.00  0.00    -0.080 Cl
ATOM      3  C   LIG    1       17.693  48.359  16.183  0.00  0.00    +0.085 A 
ATOM      4  C   LIG    1       19.048  48.004  16.116  0.00  0.00    +0.147 A 
ATOM      5  C   LIG    1       19.819  47.992  17.283  0.00  0.00    +0.049 A 
ATOM      6  C   LIG    1       19.268  48.405  18.496  0.00  0.00    +0.023 A 
ATOM      7  C   LIG    1       17.942  48.830  18.539  0.00  0.00    +0.043 A 
ATOM      8 CL   LIG    1       17.270  49.370  20.029  0.00  0.00    -0.083 Cl
ATOM      9  C   LIG    1       17.150  48.805  17.392  0.00  0.00    +0.043 A 
ENDBRANCH   1   4
BRANCH   1  10
ATOM     10  C   LIG    1       20.498  48.356  14.239  0.00  0.00    +0.170 A 
ATOM     11  C   LIG    1       21.529  47.987  13.361  0.00  0.00    +0.160 A 
ATOM     12  C   LIG    1       22.297  48.969  12.725  0.00  0.00    +0.069 A 
ATOM     13  C   LIG    1       22.012  50.316  12.929  0.00  0.00    +0.045 A 
ATOM     14 CL   LIG    1       22.964  51.521  12.151  0.00  0.00    -0.083 Cl
ATOM     15  C   LIG    1       20.957  50.698  13.754  0.00  0.00    +0.024 A 
ATOM     16  C   LIG    1       20.209  49.717  14.404  0.00  0.00    +0.051 A 
BRANCH  11  17
ATOM     17  O   LIG    1       21.802  46.675  13.096  0.00  0.00    -0.503 OA
ATOM     18  H   LIG    1       21.826  46.542  12.132  0.00  0.00    +0.292 HD
ENDBRANCH  11  17
ENDBRANCH   1  10
TORSDOF 3
ENDMDL
MODEL 2
REMARK VINA RESULT:      -7.5      2.822      5.870
REMARK  Name = 
REMARK                            x       y       z     vdW  Elec       q    Type
REMARK                         _______ _______ _______ _____ _____    ______ ____
ROOT
ATOM      1  O   LIG    1       19.059  48.057  15.708  0.00  0.00    -0.451 OA
ENDROOT
BRANCH   1   4
ATOM      2 CL   LIG    1       20.714  46.181  13.820  0.00  0.00    -0.080 Cl
ATOM      3  C   LIG    1       20.768  47.903  13.946  0.00  0.00    +0.085 A 
ATOM      4  C   LIG    1       19.958  48.621  14.837  0.00  0.00    +0.147 A 
ATOM      5  C   LIG    1       19.942  50.019  14.785  0.00  0.00    +0.049 A 
ATOM      6  C   LIG    1       20.783  50.702  13.907  0.00  0.00    +0.023 A 
ATOM      7  C   LIG    1       21.643  49.981  13.079  0.00  0.00    +0.043 A 
ATOM      8 CL   LIG    1       22.704  50.823  12.018  0.00  0.00    -0.083 Cl
ATOM      9  C   LIG    1       21.636  48.588  13.089  0.00  0.00    +0.043 A 
ENDBRANCH   1   4
BRANCH   1  10
ATOM     10  C   LIG    1       17.841  47.585  15.272  0.00  0.00    +0.170 A 
ATOM     11  C   LIG    1       17.202  46.380  15.607  0.00  0.00    +0.160 A 
ATOM     12  C   LIG    1       15.982  46.040  15.012  0.00  0.00    +0.069 A 
ATOM     13  C   LIG    1       15.376  46.916  14.118  0.00  0.00    +0.045 A 
ATOM     14 CL   LIG    1       13.879  46.491  13.383  0.00  0.00    -0.083 Cl
ATOM     15  C   LIG    1       15.968  48.140  13.816  0.00  0.00    +0.024 A 
ATOM     16  C   LIG    1       17.196  48.465  14.393  0.00  0.00    +0.051 A 
BRANCH  11  17
ATOM     17  O   LIG    1       17.742  45.521  16.522  0.00  0.00    -0.503 OA
ATOM     18  H   LIG    1       18.558  45.135  16.156  0.00  0.00    +0.292 HD
ENDBRANCH  11  17
ENDBRANCH   1  10
TORSDOF 3
ENDMDL
MODEL 3
REMARK VINA RESULT:      -7.5      1.609      5.938
REMARK  Name = 
REMARK                            x       y       z     vdW  Elec       q    Type
REMARK                         _______ _______ _______ _____ _____    ______ ____
ROOT
ATOM      1  O   LIG    1       19.201  47.753  14.910  0.00  0.00    -0.451 OA
ENDROOT
BRANCH   1   4
ATOM      2 CL   LIG    1       21.542  46.523  13.227  0.00  0.00    -0.080 Cl
ATOM      3  C   LIG    1       21.221  48.185  13.576  0.00  0.00    +0.085 A 
ATOM      4  C   LIG    1       20.122  48.597  14.343  0.00  0.00    +0.147 A 
ATOM      5  C   LIG    1       19.835  49.962  14.465  0.00  0.00    +0.049 A 
ATOM      6  C   LIG    1       20.680  50.913  13.892  0.00  0.00    +0.023 A 
ATOM      7  C   LIG    1       21.814  50.496  13.197  0.00  0.00    +0.043 A 
ATOM      8 CL   LIG    1       22.873  51.669  12.517  0.00  0.00    -0.083 Cl
ATOM      9  C   LIG    1       22.086  49.139  13.031  0.00  0.00    +0.043 A 
ENDBRANCH   1   4
BRANCH   1  10
ATOM     10  C   LIG    1       18.708  47.979  16.177  0.00  0.00    +0.170 A 
ATOM     11  C   LIG    1       19.424  48.177  17.368  0.00  0.00    +0.160 A 
ATOM     12  C   LIG    1       18.745  48.333  18.581  0.00  0.00    +0.069 A 
ATOM     13  C   LIG    1       17.354  48.336  18.604  0.00  0.00    +0.045 A 
ATOM     14 CL   LIG    1       16.521  48.521  20.099  0.00  0.00    -0.083 Cl
ATOM     15  C   LIG    1       16.627  48.196  17.424  0.00  0.00    +0.024 A 
ATOM     16  C   LIG    1       17.308  48.017  16.220  0.00  0.00    +0.051 A 
BRANCH  11  17
ATOM     17  O   LIG    1       20.789  48.233  17.376  0.00  0.00    -0.503 OA
ATOM     18  H   LIG    1       21.146  47.330  17.446  0.00  0.00    +0.292 HD
ENDBRANCH  11  17
ENDBRANCH   1  10
TORSDOF 3
ENDMDL
MODEL 4
REMARK VINA RESULT:      -7.4      2.487      5.903
REMARK  Name = 
REMARK                            x       y       z     vdW  Elec       q    Type
REMARK                         _______ _______ _______ _____ _____    ______ ____
ROOT
ATOM      1  O   LIG    1       19.041  47.531  15.791  0.00  0.00    -0.451 OA
ENDROOT
BRANCH   1   4
ATOM      2 CL   LIG    1       19.848  50.541  16.135  0.00  0.00    -0.080 Cl
ATOM      3  C   LIG    1       20.432  49.392  14.983  0.00  0.00    +0.085 A 
ATOM      4  C   LIG    1       19.985  48.063  14.949  0.00  0.00    +0.147 A 
ATOM      5  C   LIG    1       20.604  47.147  14.091  0.00  0.00    +0.049 A 
ATOM      6  C   LIG    1       21.608  47.565  13.218  0.00  0.00    +0.023 A 
ATOM      7  C   LIG    1       21.992  48.905  13.205  0.00  0.00    +0.043 A 
ATOM      8 CL   LIG    1       23.208  49.429  12.106  0.00  0.00    -0.083 Cl
ATOM      9  C   LIG    1       21.415  49.819  14.085  0.00  0.00    +0.043 A 
ENDBRANCH   1   4
BRANCH   1  10
ATOM     10  C   LIG    1       17.779  47.212  15.341  0.00  0.00    +0.170 A 
ATOM     11  C   LIG    1       17.004  46.082  15.647  0.00  0.00    +0.160 A 
ATOM     12  C   LIG    1       15.756  45.899  15.041  0.00  0.00    +0.069 A 
ATOM     13  C   LIG    1       15.260  46.859  14.165  0.00  0.00    +0.045 A 
ATOM     14 CL   LIG    1       13.727  46.626  13.416  0.00  0.00    -0.083 Cl
ATOM     15  C   LIG    1       15.991  48.013  13.893  0.00  0.00    +0.024 A 
ATOM     16  C   LIG    1       17.245  48.181  14.481  0.00  0.00    +0.051 A 
BRANCH  11  17
ATOM     17  O   LIG    1       17.436  45.146  16.543  0.00  0.00    -0.503 OA
ATOM     18  H   LIG    1       17.016  45.310  17.406  0.00  0.00    +0.292 HD
ENDBRANCH  11  17
ENDBRANCH   1  10
TORSDOF 3
ENDMDL
MODEL 5
REMARK VINA RESULT:      -7.2      1.553      2.222
REMARK  Name = 
REMARK                            x       y       z     vdW  Elec       q    Type
REMARK                         _______ _______ _______ _____ _____    ______ ____
ROOT
ATOM      1  O   LIG    1       20.467  47.915  16.650  0.00  0.00    -0.451 OA
ENDROOT
BRANCH   1   4
ATOM      2 CL   LIG    1       18.065  46.668  15.069  0.00  0.00    -0.080 Cl
ATOM      3  C   LIG    1       18.044  47.500  16.584  0.00  0.00    +0.085 A 
ATOM      4  C   LIG    1       19.207  48.003  17.185  0.00  0.00    +0.147 A 
ATOM      5  C   LIG    1       19.143  48.533  18.479  0.00  0.00    +0.049 A 
ATOM      6  C   LIG    1       17.919  48.633  19.140  0.00  0.00    +0.023 A 
ATOM      7  C   LIG    1       16.757  48.202  18.504  0.00  0.00    +0.043 A 
ATOM      8 CL   LIG    1       15.242  48.354  19.306  0.00  0.00    -0.083 Cl
ATOM      9  C   LIG    1       16.813  47.631  17.234  0.00  0.00    +0.043 A 
ENDBRANCH   1   4
BRANCH   1  10
ATOM     10  C   LIG    1       20.812  48.614  15.513  0.00  0.00    +0.170 A 
ATOM     11  C   LIG    1       20.576  49.965  15.215  0.00  0.00    +0.160 A 
ATOM     12  C   LIG    1       20.949  50.488  13.972  0.00  0.00    +0.069 A 
ATOM     13  C   LIG    1       21.597  49.679  13.043  0.00  0.00    +0.045 A 
ATOM     14 CL   LIG    1       22.049  50.324  11.512  0.00  0.00    -0.083 Cl
ATOM     15  C   LIG    1       21.889  48.351  13.344  0.00  0.00    +0.024 A 
ATOM     16  C   LIG    1       21.494  47.827  14.575  0.00  0.00    +0.051 A 
BRANCH  11  17
ATOM     17  O   LIG    1       19.990  50.801  16.123  0.00  0.00    -0.503 OA
ATOM     18  H   LIG    1       19.859  51.675  15.715  0.00  0.00    +0.292 HD
ENDBRANCH  11  17
ENDBRANCH   1  10
TORSDOF 3
ENDMDL
MODEL 6
REMARK VINA RESULT:      -7.1      2.061      6.078
REMARK  Name = 
REMARK                            x       y       z     vdW  Elec       q    Type
REMARK                         _______ _______ _______ _____ _____    ______ ____
ROOT
ATOM      1  O   LIG    1       19.567  47.614  17.806  0.00  0.00    -0.451 OA
ENDROOT
BRANCH   1   4
ATOM      2 CL   LIG    1       17.574  47.850  15.398  0.00  0.00    -0.080 Cl
ATOM      3  C   LIG    1       19.236  48.314  15.471  0.00  0.00    +0.085 A 
ATOM      4  C   LIG    1       20.014  48.158  16.627  0.00  0.00    +0.147 A 
ATOM      5  C   LIG    1       21.308  48.689  16.668  0.00  0.00    +0.049 A 
ATOM      6  C   LIG    1       21.854  49.304  15.541  0.00  0.00    +0.023 A 
ATOM      7  C   LIG    1       21.101  49.386  14.371  0.00  0.00    +0.043 A 
ATOM      8 CL   LIG    1       21.784  50.116  12.970  0.00  0.00    -0.083 Cl
ATOM      9  C   LIG    1       19.795  48.901  14.331  0.00  0.00    +0.043 A 
ENDBRANCH   1   4
BRANCH   1  10
ATOM     10  C   LIG    1       18.365  47.997  18.359  0.00  0.00    +0.170 A 
ATOM     11  C   LIG    1       17.246  47.200  18.648  0.00  0.00    +0.160 A 
ATOM     12  C   LIG    1       16.080  47.782  19.159  0.00  0.00    +0.069 A 
ATOM     13  C   LIG    1       16.042  49.147  19.424  0.00  0.00    +0.045 A 
ATOM     14 CL   LIG    1       14.604  49.861  20.045  0.00  0.00    -0.083 Cl
ATOM     15  C   LIG    1       17.162  49.943  19.195  0.00  0.00    +0.024 A 
ATOM     16  C   LIG    1       18.315  49.364  18.664  0.00  0.00    +0.051 A 
BRANCH  11  17
ATOM     17  O   LIG    1       17.265  45.849  18.451  0.00  0.00    -0.503 OA
ATOM     18  H   LIG    1       16.604  45.614  17.777  0.00  0.00    +0.292 HD
ENDBRANCH  11  17
ENDBRANCH   1  10
TORSDOF 3
ENDMDL
MODEL 7
REMARK VINA RESULT:      -7.0      2.795      3.335
REMARK  Name = 
REMARK                            x       y       z     vdW  Elec       q    Type
REMARK                         _______ _______ _______ _____ _____    ______ ____
ROOT
ATOM      1  O   LIG    1       19.533  50.206  17.442  0.00  0.00    -0.451 OA
ENDROOT
BRANCH   1   4
ATOM      2 CL   LIG    1       19.622  47.399  18.835  0.00  0.00    -0.080 Cl
ATOM      3  C   LIG    1       18.310  48.521  18.751  0.00  0.00    +0.085 A 
ATOM      4  C   LIG    1       18.413  49.756  18.096  0.00  0.00    +0.147 A 
ATOM      5  C   LIG    1       17.367  50.681  18.191  0.00  0.00    +0.049 A 
ATOM      6  C   LIG    1       16.194  50.349  18.869  0.00  0.00    +0.023 A 
ATOM      7  C   LIG    1       16.069  49.089  19.452  0.00  0.00    +0.043 A 
ATOM      8 CL   LIG    1       14.611  48.668  20.261  0.00  0.00    -0.083 Cl
ATOM      9  C   LIG    1       17.122  48.177  19.402  0.00  0.00    +0.043 A 
ENDBRANCH   1   4
BRANCH   1  10
ATOM     10  C   LIG    1       20.142  49.451  16.463  0.00  0.00    +0.170 A 
ATOM     11  C   LIG    1       21.509  49.186  16.291  0.00  0.00    +0.160 A 
ATOM     12  C   LIG    1       21.949  48.439  15.192  0.00  0.00    +0.069 A 
ATOM     13  C   LIG    1       21.027  47.920  14.289  0.00  0.00    +0.045 A 
ATOM     14 CL   LIG    1       21.572  47.008  12.935  0.00  0.00    -0.083 Cl
ATOM     15  C   LIG    1       19.662  48.127  14.475  0.00  0.00    +0.024 A 
ATOM     16  C   LIG    1       19.229  48.891  15.559  0.00  0.00    +0.051 A 
BRANCH  11  17
ATOM     17  O   LIG    1       22.439  49.634  17.186  0.00  0.00    -0.503 OA
ATOM     18  H   LIG    1       22.326  50.593  17.311  0.00  0.00    +0.292 HD
ENDBRANCH  11  17
ENDBRANCH   1  10
TORSDOF 3
ENDMDL
MODEL 8
REMARK VINA RESULT:      -6.8      1.977      5.997
REMARK  Name = 
REMARK                            x       y       z     vdW  Elec       q    Type
REMARK                         _______ _______ _______ _____ _____    ______ ____
ROOT
ATOM      1  O   LIG    1       20.694  48.017  17.278  0.00  0.00    -0.451 OA
ENDROOT
BRANCH   1   4
ATOM      2 CL   LIG    1       19.061  46.924  14.836  0.00  0.00    -0.080 Cl
ATOM      3  C   LIG    1       20.506  47.872  14.830  0.00  0.00    +0.085 A 
ATOM      4  C   LIG    1       21.131  48.303  16.009  0.00  0.00    +0.147 A 
ATOM      5  C   LIG    1       22.211  49.190  15.935  0.00  0.00    +0.049 A 
ATOM      6  C   LIG    1       22.716  49.585  14.696  0.00  0.00    +0.023 A 
ATOM      7  C   LIG    1       22.137  49.090  13.529  0.00  0.00    +0.043 A 
ATOM      8 CL   LIG    1       22.778  49.551  12.000  0.00  0.00    -0.083 Cl
ATOM      9  C   LIG    1       21.033  48.241  13.588  0.00  0.00    +0.043 A 
ENDBRANCH   1   4
BRANCH   1  10
ATOM     10  C   LIG    1       19.497  48.511  17.750  0.00  0.00    +0.170 A 
ATOM     11  C   LIG    1       19.035  49.836  17.737  0.00  0.00    +0.160 A 
ATOM     12  C   LIG    1       17.805  50.159  18.322  0.00  0.00    +0.069 A 
ATOM     13  C   LIG    1       17.016  49.159  18.881  0.00  0.00    +0.045 A 
ATOM     14 CL   LIG    1       15.508  49.561  19.606  0.00  0.00    -0.083 Cl
ATOM     15  C   LIG    1       17.434  47.831  18.853  0.00  0.00    +0.024 A 
ATOM     16  C   LIG    1       18.671  47.516  18.290  0.00  0.00    +0.051 A 
BRANCH  11  17
ATOM     17  O   LIG    1       19.758  50.835  17.150  0.00  0.00    -0.503 OA
ATOM     18  H   LIG    1       20.292  51.285  17.828  0.00  0.00    +0.292 HD
ENDBRANCH  11  17
ENDBRANCH   1  10
TORSDOF 3
ENDMDL
MODEL 9
REMARK VINA RESULT:      -6.7      2.080      3.208
REMARK  Name = 
REMARK                            x       y       z     vdW  Elec       q    Type
REMARK                         _______ _______ _______ _____ _____    ______ ____
ROOT
ATOM      1  O   LIG    1       18.963  48.466  15.749  0.00  0.00    -0.451 OA
ENDROOT
BRANCH   1   4
ATOM      2 CL   LIG    1       17.563  46.266  17.488  0.00  0.00    -0.080 Cl
ATOM      3  C   LIG    1       17.051  46.937  15.981  0.00  0.00    +0.085 A 
ATOM      4  C   LIG    1       17.777  47.931  15.310  0.00  0.00    +0.147 A 
ATOM      5  C   LIG    1       17.234  48.538  14.172  0.00  0.00    +0.049 A 
ATOM      6  C   LIG    1       16.011  48.105  13.658  0.00  0.00    +0.023 A 
ATOM      7  C   LIG    1       15.333  47.062  14.287  0.00  0.00    +0.043 A 
ATOM      8 CL   LIG    1       13.840  46.506  13.636  0.00  0.00    -0.083 Cl
ATOM      9  C   LIG    1       15.841  46.481  15.447  0.00  0.00    +0.043 A 
ENDBRANCH   1   4
BRANCH   1  10
ATOM     10  C   LIG    1       19.918  48.912  14.861  0.00  0.00    +0.170 A 
ATOM     11  C   LIG    1       20.777  48.152  14.052  0.00  0.00    +0.160 A 
ATOM     12  C   LIG    1       21.733  48.786  13.250  0.00  0.00    +0.069 A 
ATOM     13  C   LIG    1       21.805  50.175  13.219  0.00  0.00    +0.045 A 
ATOM     14 CL   LIG    1       22.987  50.951  12.237  0.00  0.00    -0.083 Cl
ATOM     15  C   LIG    1       20.924  50.946  13.974  0.00  0.00    +0.024 A 
ATOM     16  C   LIG    1       19.988  50.310  14.790  0.00  0.00    +0.051 A 
BRANCH  11  17
ATOM     17  O   LIG    1       20.699  46.789  14.015  0.00  0.00    -0.503 OA
ATOM     18  H   LIG    1       20.512  46.503  13.104  0.00  0.00    +0.292 HD
ENDBRANCH  11  17
ENDBRANCH   1  10
TORSDOF 3
ENDMDL
