REMARK  Name = 
REMARK                            x       y       z     vdW  Elec       q    Type
REMARK                         _______ _______ _______ _____ _____    ______ ____
ROOT
ATOM      1  O   LIG    1        2.647  -2.073   0.232  0.00  0.00    -0.451 OA
ENDROOT
BRANCH   1   4
ATOM      2 CL   LIG    1        1.693   0.334   1.999  0.00  0.00    -0.080 Cl
ATOM      3  C   LIG    1        3.024   0.264   0.899  0.00  0.00    +0.085 A 
ATOM      4  C   LIG    1        3.344  -0.892   0.173  0.00  0.00    +0.147 A 
ATOM      5  C   LIG    1        4.519  -0.930  -0.586  0.00  0.00    +0.049 A 
ATOM      6  C   LIG    1        5.331   0.200  -0.685  0.00  0.00    +0.023 A 
ATOM      7  C   LIG    1        4.964   1.370  -0.022  0.00  0.00    +0.043 A 
ATOM      8 CL   LIG    1        5.948   2.774  -0.169  0.00  0.00    -0.083 Cl
ATOM      9  C   LIG    1        3.820   1.407   0.773  0.00  0.00    +0.043 A 
ENDBRANCH   1   4
BRANCH   1  10
ATOM     10  C   LIG    1        1.330  -2.147  -0.166  0.00  0.00    +0.170 A 
ATOM     11  C   LIG    1        0.585  -1.205  -0.893  0.00  0.00    +0.160 A 
ATOM     12  C   LIG    1       -0.771  -1.430  -1.155  0.00  0.00    +0.069 A 
ATOM     13  C   LIG    1       -1.375  -2.610  -0.733  0.00  0.00    +0.045 A 
ATOM     14 CL   LIG    1       -3.045  -2.880  -1.051  0.00  0.00    -0.083 Cl
ATOM     15  C   LIG    1       -0.637  -3.580  -0.059  0.00  0.00    +0.024 A 
ATOM     16  C   LIG    1        0.709  -3.342   0.221  0.00  0.00    +0.051 A 
BRANCH  11  17
ATOM     17  O   LIG    1        1.158  -0.060  -1.369  0.00  0.00    -0.503 OA
ATOM     18  H   LIG    1        0.458   0.561  -1.637  0.00  0.00    +0.292 HD
ENDBRANCH  11  17
ENDBRANCH   1  10
TORSDOF 3
