MODEL 1
REMARK VINA RESULT:      -5.4      0.000      0.000
REMARK  Name = 
REMARK                            x       y       z     vdW  Elec       q    Type
REMARK                         _______ _______ _______ _____ _____    ______ ____
ROOT
ATOM      1  C   LIG    1       54.782  46.604  29.347  0.00  0.00    +0.000 A 
ATOM      2  C   LIG    1       54.583  45.577  30.270  0.00  0.00    +0.004 A 
ATOM      3  C   LIG    1       55.604  44.663  30.526  0.00  0.00    +0.045 A 
ATOM      4  C   LIG    1       56.818  44.783  29.858  0.00  0.00    +0.117 A 
ATOM      5  C   LIG    1       57.028  45.804  28.936  0.00  0.00    +0.045 A 
ATOM      6  C   LIG    1       56.004  46.717  28.680  0.00  0.00    +0.004 A 
ENDROOT
BRANCH   4   7
ATOM      7  O   LIG    1       57.790  43.867  30.137  0.00  0.00    -0.507 OA
ATOM      8  H   LIG    1       58.654  44.306  30.073  0.00  0.00    +0.292 HD
ENDBRANCH   4   7
TORSDOF 1
ENDMDL
MODEL 2
REMARK VINA RESULT:      -5.3      0.078      1.829
REMARK  Name = 
REMARK                            x       y       z     vdW  Elec       q    Type
REMARK                         _______ _______ _______ _____ _____    ______ ____
ROOT
ATOM      1  C   LIG    1       54.870  46.638  29.300  0.00  0.00    +0.000 A 
ATOM      2  C   LIG    1       56.119  46.710  28.682  0.00  0.00    +0.004 A 
ATOM      3  C   LIG    1       57.099  45.764  28.981  0.00  0.00    +0.045 A 
ATOM      4  C   LIG    1       56.823  44.753  29.895  0.00  0.00    +0.117 A 
ATOM      5  C   LIG    1       55.581  44.671  30.516  0.00  0.00    +0.045 A 
ATOM      6  C   LIG    1       54.601  45.619  30.216  0.00  0.00    +0.004 A 
ENDROOT
BRANCH   4   7
ATOM      7  O   LIG    1       57.810  43.849  30.159  0.00  0.00    -0.507 OA
ATOM      8  H   LIG    1       58.600  44.333  30.450  0.00  0.00    +0.292 HD
ENDBRANCH   4   7
TORSDOF 1
ENDMDL
MODEL 3
REMARK VINA RESULT:      -5.3      2.134      3.335
REMARK  Name = 
REMARK                            x       y       z     vdW  Elec       q    Type
REMARK                         _______ _______ _______ _____ _____    ______ ____
ROOT
ATOM      1  C   LIG    1       56.535  44.665  29.749  0.00  0.00    +0.000 A 
ATOM      2  C   LIG    1       56.951  45.748  28.975  0.00  0.00    +0.004 A 
ATOM      3  C   LIG    1       56.101  46.837  28.786  0.00  0.00    +0.045 A 
ATOM      4  C   LIG    1       54.840  46.835  29.374  0.00  0.00    +0.117 A 
ATOM      5  C   LIG    1       54.415  45.761  30.150  0.00  0.00    +0.045 A 
ATOM      6  C   LIG    1       55.268  44.671  30.337  0.00  0.00    +0.004 A 
ENDROOT
BRANCH   4   7
ATOM      7  O   LIG    1       54.040  47.919  29.163  0.00  0.00    -0.507 OA
ATOM      8  H   LIG    1       53.938  48.395  30.004  0.00  0.00    +0.292 HD
ENDBRANCH   4   7
TORSDOF 1
ENDMDL
MODEL 4
REMARK VINA RESULT:      -5.2      1.812      2.554
REMARK  Name = 
REMARK                            x       y       z     vdW  Elec       q    Type
REMARK                         _______ _______ _______ _____ _____    ______ ____
ROOT
ATOM      1  C   LIG    1       57.859  45.538  29.768  0.00  0.00    +0.000 A 
ATOM      2  C   LIG    1       57.213  44.672  30.651  0.00  0.00    +0.004 A 
ATOM      3  C   LIG    1       55.825  44.716  30.778  0.00  0.00    +0.045 A 
ATOM      4  C   LIG    1       55.093  45.625  30.021  0.00  0.00    +0.117 A 
ATOM      5  C   LIG    1       55.727  46.492  29.137  0.00  0.00    +0.045 A 
ATOM      6  C   LIG    1       57.117  46.448  29.011  0.00  0.00    +0.004 A 
ENDROOT
BRANCH   4   7
ATOM      7  O   LIG    1       53.738  45.635  30.177  0.00  0.00    -0.507 OA
ATOM      8  H   LIG    1       53.433  44.718  30.272  0.00  0.00    +0.292 HD
ENDBRANCH   4   7
TORSDOF 1
ENDMDL
MODEL 5
REMARK VINA RESULT:      -4.8      1.019      2.089
REMARK  Name = 
REMARK                            x       y       z     vdW  Elec       q    Type
REMARK                         _______ _______ _______ _____ _____    ______ ____
ROOT
ATOM      1  C   LIG    1       54.560  45.569  30.220  0.00  0.00    +0.000 A 
ATOM      2  C   LIG    1       54.854  46.610  29.339  0.00  0.00    +0.004 A 
ATOM      3  C   LIG    1       56.146  46.750  28.833  0.00  0.00    +0.045 A 
ATOM      4  C   LIG    1       57.134  45.847  29.211  0.00  0.00    +0.117 A 
ATOM      5  C   LIG    1       56.851  44.804  30.088  0.00  0.00    +0.045 A 
ATOM      6  C   LIG    1       55.557  44.667  30.595  0.00  0.00    +0.004 A 
ENDROOT
BRANCH   4   7
ATOM      7  O   LIG    1       58.384  46.020  28.694  0.00  0.00    -0.507 OA
ATOM      8  H   LIG    1       59.015  45.527  29.243  0.00  0.00    +0.292 HD
ENDBRANCH   4   7
TORSDOF 1
ENDMDL
MODEL 6
REMARK VINA RESULT:      -4.6      7.594      8.171
REMARK  Name = 
REMARK                            x       y       z     vdW  Elec       q    Type
REMARK                         _______ _______ _______ _____ _____    ______ ____
ROOT
ATOM      1  C   LIG    1       62.798  44.721  27.455  0.00  0.00    +0.000 A 
ATOM      2  C   LIG    1       63.126  43.721  28.371  0.00  0.00    +0.004 A 
ATOM      3  C   LIG    1       64.113  43.951  29.329  0.00  0.00    +0.045 A 
ATOM      4  C   LIG    1       64.764  45.180  29.364  0.00  0.00    +0.117 A 
ATOM      5  C   LIG    1       64.443  46.185  28.456  0.00  0.00    +0.045 A 
ATOM      6  C   LIG    1       63.455  45.952  27.497  0.00  0.00    +0.004 A 
ENDROOT
BRANCH   4   7
ATOM      7  O   LIG    1       65.723  45.363  30.316  0.00  0.00    -0.507 OA
ATOM      8  H   LIG    1       65.285  45.492  31.174  0.00  0.00    +0.292 HD
ENDBRANCH   4   7
TORSDOF 1
ENDMDL
MODEL 7
REMARK VINA RESULT:      -4.6      9.129      9.988
REMARK  Name = 
REMARK                            x       y       z     vdW  Elec       q    Type
REMARK                         _______ _______ _______ _____ _____    ______ ____
ROOT
ATOM      1  C   LIG    1       64.948  43.573  34.227  0.00  0.00    +0.000 A 
ATOM      2  C   LIG    1       64.339  43.231  33.020  0.00  0.00    +0.004 A 
ATOM      3  C   LIG    1       64.548  44.015  31.887  0.00  0.00    +0.045 A 
ATOM      4  C   LIG    1       65.367  45.137  31.969  0.00  0.00    +0.117 A 
ATOM      5  C   LIG    1       65.980  45.488  33.167  0.00  0.00    +0.045 A 
ATOM      6  C   LIG    1       65.769  44.701  34.301  0.00  0.00    +0.004 A 
ENDROOT
BRANCH   4   7
ATOM      7  O   LIG    1       65.544  45.877  30.837  0.00  0.00    -0.507 OA
ATOM      8  H   LIG    1       65.129  45.408  30.094  0.00  0.00    +0.292 HD
ENDBRANCH   4   7
TORSDOF 1
ENDMDL
MODEL 8
REMARK VINA RESULT:      -4.5      6.233      7.229
REMARK  Name = 
REMARK                            x       y       z     vdW  Elec       q    Type
REMARK                         _______ _______ _______ _____ _____    ______ ____
ROOT
ATOM      1  C   LIG    1       60.958  47.158  27.784  0.00  0.00    +0.000 A 
ATOM      2  C   LIG    1       61.546  45.896  27.682  0.00  0.00    +0.004 A 
ATOM      3  C   LIG    1       62.934  45.778  27.612  0.00  0.00    +0.045 A 
ATOM      4  C   LIG    1       63.724  46.923  27.644  0.00  0.00    +0.117 A 
ATOM      5  C   LIG    1       63.148  48.185  27.746  0.00  0.00    +0.045 A 
ATOM      6  C   LIG    1       61.758  48.302  27.816  0.00  0.00    +0.004 A 
ENDROOT
BRANCH   4   7
ATOM      7  O   LIG    1       65.076  46.762  27.571  0.00  0.00    -0.507 OA
ATOM      8  H   LIG    1       65.458  47.551  27.152  0.00  0.00    +0.292 HD
ENDBRANCH   4   7
TORSDOF 1
ENDMDL
MODEL 9
REMARK VINA RESULT:      -4.5      9.341     10.083
REMARK  Name = 
REMARK                            x       y       z     vdW  Elec       q    Type
REMARK                         _______ _______ _______ _____ _____    ______ ____
ROOT
ATOM      1  C   LIG    1       64.430  43.050  33.439  0.00  0.00    +0.000 A 
ATOM      2  C   LIG    1       65.035  43.701  34.514  0.00  0.00    +0.004 A 
ATOM      3  C   LIG    1       65.642  44.941  34.325  0.00  0.00    +0.045 A 
ATOM      4  C   LIG    1       65.640  45.522  33.061  0.00  0.00    +0.117 A 
ATOM      5  C   LIG    1       65.039  44.883  31.982  0.00  0.00    +0.045 A 
ATOM      6  C   LIG    1       64.432  43.640  32.173  0.00  0.00    +0.004 A 
ENDROOT
BRANCH   4   7
ATOM      7  O   LIG    1       66.246  46.736  32.920  0.00  0.00    -0.507 OA
ATOM      8  H   LIG    1       66.501  46.846  31.989  0.00  0.00    +0.292 HD
ENDBRANCH   4   7
TORSDOF 1
ENDMDL
