MODEL 1
REMARK VINA RESULT:      -4.9      0.000      0.000
REMARK  Name = 
REMARK                            x       y       z     vdW  Elec       q    Type
REMARK                         _______ _______ _______ _____ _____    ______ ____
ROOT
ATOM      1  C   LIG    1       43.808  -3.104  17.200  0.00  0.00    +0.000 A 
ATOM      2  C   LIG    1       42.566  -2.755  16.668  0.00  0.00    +0.004 A 
ATOM      3  C   LIG    1       41.858  -1.679  17.200  0.00  0.00    +0.045 A 
ATOM      4  C   LIG    1       42.397  -0.957  18.260  0.00  0.00    +0.117 A 
ATOM      5  C   LIG    1       43.635  -1.295  18.798  0.00  0.00    +0.045 A 
ATOM      6  C   LIG    1       44.342  -2.375  18.264  0.00  0.00    +0.004 A 
ENDROOT
BRANCH   4   7
ATOM      7  O   LIG    1       41.671   0.087  18.751  0.00  0.00    -0.507 OA
ATOM      8  H   LIG    1       41.291   0.577  18.003  0.00  0.00    +0.292 HD
ENDBRANCH   4   7
TORSDOF 1
ENDMDL
MODEL 2
REMARK VINA RESULT:      -4.8      2.078      2.789
REMARK  Name = 
REMARK                            x       y       z     vdW  Elec       q    Type
REMARK                         _______ _______ _______ _____ _____    ______ ____
ROOT
ATOM      1  C   LIG    1       44.413  -1.796  18.877  0.00  0.00    +0.000 A 
ATOM      2  C   LIG    1       43.177  -1.421  18.349  0.00  0.00    +0.004 A 
ATOM      3  C   LIG    1       42.619  -2.148  17.298  0.00  0.00    +0.045 A 
ATOM      4  C   LIG    1       43.301  -3.246  16.783  0.00  0.00    +0.117 A 
ATOM      5  C   LIG    1       44.533  -3.629  17.303  0.00  0.00    +0.045 A 
ATOM      6  C   LIG    1       45.091  -2.899  18.354  0.00  0.00    +0.004 A 
ENDROOT
BRANCH   4   7
ATOM      7  O   LIG    1       42.720  -3.928  15.755  0.00  0.00    -0.507 OA
ATOM      8  H   LIG    1       43.349  -4.595  15.434  0.00  0.00    +0.292 HD
ENDBRANCH   4   7
TORSDOF 1
ENDMDL
MODEL 3
REMARK VINA RESULT:      -4.8      3.292      4.389
REMARK  Name = 
REMARK                            x       y       z     vdW  Elec       q    Type
REMARK                         _______ _______ _______ _____ _____    ______ ____
ROOT
ATOM      1  C   LIG    1       43.195  -3.599  16.404  0.00  0.00    +0.000 A 
ATOM      2  C   LIG    1       43.978  -2.915  17.334  0.00  0.00    +0.004 A 
ATOM      3  C   LIG    1       45.178  -3.470  17.776  0.00  0.00    +0.045 A 
ATOM      4  C   LIG    1       45.587  -4.705  17.284  0.00  0.00    +0.117 A 
ATOM      5  C   LIG    1       44.814  -5.395  16.355  0.00  0.00    +0.045 A 
ATOM      6  C   LIG    1       43.612  -4.838  15.914  0.00  0.00    +0.004 A 
ENDROOT
BRANCH   4   7
ATOM      7  O   LIG    1       46.766  -5.212  17.744  0.00  0.00    -0.507 OA
ATOM      8  H   LIG    1       47.495  -4.738  17.312  0.00  0.00    +0.292 HD
ENDBRANCH   4   7
TORSDOF 1
ENDMDL
MODEL 4
REMARK VINA RESULT:      -4.8      2.107      3.080
REMARK  Name = 
REMARK                            x       y       z     vdW  Elec       q    Type
REMARK                         _______ _______ _______ _____ _____    ______ ____
ROOT
ATOM      1  C   LIG    1       44.425  -1.823  18.799  0.00  0.00    +0.000 A 
ATOM      2  C   LIG    1       45.090  -2.925  18.260  0.00  0.00    +0.004 A 
ATOM      3  C   LIG    1       44.508  -3.650  17.221  0.00  0.00    +0.045 A 
ATOM      4  C   LIG    1       43.265  -3.266  16.726  0.00  0.00    +0.117 A 
ATOM      5  C   LIG    1       42.594  -2.168  17.255  0.00  0.00    +0.045 A 
ATOM      6  C   LIG    1       43.178  -1.445  18.297  0.00  0.00    +0.004 A 
ENDROOT
BRANCH   4   7
ATOM      7  O   LIG    1       42.732  -4.003  15.710  0.00  0.00    -0.507 OA
ATOM      8  H   LIG    1       43.246  -3.832  14.904  0.00  0.00    +0.292 HD
ENDBRANCH   4   7
TORSDOF 1
ENDMDL
MODEL 5
REMARK VINA RESULT:      -4.8      3.227      4.049
REMARK  Name = 
REMARK                            x       y       z     vdW  Elec       q    Type
REMARK                         _______ _______ _______ _____ _____    ______ ____
ROOT
ATOM      1  C   LIG    1       43.205  -3.403  16.588  0.00  0.00    +0.000 A 
ATOM      2  C   LIG    1       43.610  -4.608  16.015  0.00  0.00    +0.004 A 
ATOM      3  C   LIG    1       44.811  -5.198  16.408  0.00  0.00    +0.045 A 
ATOM      4  C   LIG    1       45.598  -4.577  17.373  0.00  0.00    +0.117 A 
ATOM      5  C   LIG    1       45.202  -3.375  17.952  0.00  0.00    +0.045 A 
ATOM      6  C   LIG    1       44.000  -2.786  17.556  0.00  0.00    +0.004 A 
ENDROOT
BRANCH   4   7
ATOM      7  O   LIG    1       46.765  -5.186  17.728  0.00  0.00    -0.507 OA
ATOM      8  H   LIG    1       46.555  -6.053  18.112  0.00  0.00    +0.292 HD
ENDBRANCH   4   7
TORSDOF 1
ENDMDL
MODEL 6
REMARK VINA RESULT:      -4.7      2.624      3.759
REMARK  Name = 
REMARK                            x       y       z     vdW  Elec       q    Type
REMARK                         _______ _______ _______ _____ _____    ______ ____
ROOT
ATOM      1  C   LIG    1       43.575  -1.356  18.676  0.00  0.00    +0.000 A 
ATOM      2  C   LIG    1       44.791  -1.669  19.283  0.00  0.00    +0.004 A 
ATOM      3  C   LIG    1       45.539  -2.753  18.824  0.00  0.00    +0.045 A 
ATOM      4  C   LIG    1       45.065  -3.516  17.762  0.00  0.00    +0.117 A 
ATOM      5  C   LIG    1       43.854  -3.211  17.148  0.00  0.00    +0.045 A 
ATOM      6  C   LIG    1       43.106  -2.126  17.609  0.00  0.00    +0.004 A 
ENDROOT
BRANCH   4   7
ATOM      7  O   LIG    1       45.828  -4.567  17.346  0.00  0.00    -0.507 OA
ATOM      8  H   LIG    1       45.514  -4.847  16.470  0.00  0.00    +0.292 HD
ENDBRANCH   4   7
TORSDOF 1
ENDMDL
MODEL 7
REMARK VINA RESULT:      -4.6      1.877      2.906
REMARK  Name = 
REMARK                            x       y       z     vdW  Elec       q    Type
REMARK                         _______ _______ _______ _____ _____    ______ ____
ROOT
ATOM      1  C   LIG    1       39.845  -2.459  16.057  0.00  0.00    +0.000 A 
ATOM      2  C   LIG    1       39.058  -1.671  16.898  0.00  0.00    +0.004 A 
ATOM      3  C   LIG    1       39.664  -0.839  17.840  0.00  0.00    +0.045 A 
ATOM      4  C   LIG    1       41.051  -0.801  17.933  0.00  0.00    +0.117 A 
ATOM      5  C   LIG    1       41.845  -1.582  17.098  0.00  0.00    +0.045 A 
ATOM      6  C   LIG    1       41.237  -2.415  16.157  0.00  0.00    +0.004 A 
ENDROOT
BRANCH   4   7
ATOM      7  O   LIG    1       41.602   0.025  18.868  0.00  0.00    -0.507 OA
ATOM      8  H   LIG    1       42.284  -0.469  19.351  0.00  0.00    +0.292 HD
ENDBRANCH   4   7
TORSDOF 1
ENDMDL
MODEL 8
REMARK VINA RESULT:      -4.5      1.872      2.928
REMARK  Name = 
REMARK                            x       y       z     vdW  Elec       q    Type
REMARK                         _______ _______ _______ _____ _____    ______ ____
ROOT
ATOM      1  C   LIG    1       44.561  -4.218  16.864  0.00  0.00    +0.000 A 
ATOM      2  C   LIG    1       45.737  -4.090  17.605  0.00  0.00    +0.004 A 
ATOM      3  C   LIG    1       45.901  -3.008  18.469  0.00  0.00    +0.045 A 
ATOM      4  C   LIG    1       44.888  -2.062  18.587  0.00  0.00    +0.117 A 
ATOM      5  C   LIG    1       43.711  -2.180  17.854  0.00  0.00    +0.045 A 
ATOM      6  C   LIG    1       43.549  -3.264  16.988  0.00  0.00    +0.004 A 
ENDROOT
BRANCH   4   7
ATOM      7  O   LIG    1       45.090  -1.019  19.442  0.00  0.00    -0.507 OA
ATOM      8  H   LIG    1       46.024  -0.757  19.392  0.00  0.00    +0.292 HD
ENDBRANCH   4   7
TORSDOF 1
ENDMDL
MODEL 9
REMARK VINA RESULT:      -4.4      3.672      4.430
REMARK  Name = 
REMARK                            x       y       z     vdW  Elec       q    Type
REMARK                         _______ _______ _______ _____ _____    ______ ____
ROOT
ATOM      1  C   LIG    1       44.766  -4.262  17.006  0.00  0.00    +0.000 A 
ATOM      2  C   LIG    1       45.649  -4.582  15.974  0.00  0.00    +0.004 A 
ATOM      3  C   LIG    1       46.802  -3.821  15.782  0.00  0.00    +0.045 A 
ATOM      4  C   LIG    1       47.064  -2.746  16.625  0.00  0.00    +0.117 A 
ATOM      5  C   LIG    1       46.191  -2.418  17.658  0.00  0.00    +0.045 A 
ATOM      6  C   LIG    1       45.036  -3.181  17.847  0.00  0.00    +0.004 A 
ENDROOT
BRANCH   4   7
ATOM      7  O   LIG    1       48.201  -2.028  16.402  0.00  0.00    -0.507 OA
ATOM      8  H   LIG    1       48.412  -2.072  15.455  0.00  0.00    +0.292 HD
ENDBRANCH   4   7
TORSDOF 1
ENDMDL
