MODEL 1
REMARK VINA RESULT:      -4.8      0.000      0.000
REMARK  Name = 
REMARK                            x       y       z     vdW  Elec       q    Type
REMARK                         _______ _______ _______ _____ _____    ______ ____
ROOT
ATOM      1  C   LIG    1       17.474  30.385  10.218  0.00  0.00    +0.000 A 
ATOM      2  C   LIG    1       16.708  31.299  10.942  0.00  0.00    +0.004 A 
ATOM      3  C   LIG    1       15.609  31.915  10.343  0.00  0.00    +0.045 A 
ATOM      4  C   LIG    1       15.284  31.611   9.025  0.00  0.00    +0.117 A 
ATOM      5  C   LIG    1       16.041  30.700   8.295  0.00  0.00    +0.045 A 
ATOM      6  C   LIG    1       17.141  30.086   8.896  0.00  0.00    +0.004 A 
ENDROOT
BRANCH   4   7
ATOM      7  O   LIG    1       14.202  32.237   8.478  0.00  0.00    -0.507 OA
ATOM      8  H   LIG    1       14.515  33.003   7.970  0.00  0.00    +0.292 HD
ENDBRANCH   4   7
TORSDOF 1
ENDMDL
MODEL 2
REMARK VINA RESULT:      -4.8      0.060      1.830
REMARK  Name = 
REMARK                            x       y       z     vdW  Elec       q    Type
REMARK                         _______ _______ _______ _____ _____    ______ ____
ROOT
ATOM      1  C   LIG    1       17.459  30.411  10.271  0.00  0.00    +0.000 A 
ATOM      2  C   LIG    1       17.130  30.120   8.947  0.00  0.00    +0.004 A 
ATOM      3  C   LIG    1       16.035  30.741   8.348  0.00  0.00    +0.045 A 
ATOM      4  C   LIG    1       15.276  31.650   9.078  0.00  0.00    +0.117 A 
ATOM      5  C   LIG    1       15.595  31.949  10.399  0.00  0.00    +0.045 A 
ATOM      6  C   LIG    1       16.692  31.325  10.997  0.00  0.00    +0.004 A 
ENDROOT
BRANCH   4   7
ATOM      7  O   LIG    1       14.213  32.234   8.455  0.00  0.00    -0.507 OA
ATOM      8  H   LIG    1       13.846  32.914   9.044  0.00  0.00    +0.292 HD
ENDBRANCH   4   7
TORSDOF 1
ENDMDL
MODEL 3
REMARK VINA RESULT:      -4.6      1.455      2.305
REMARK  Name = 
REMARK                            x       y       z     vdW  Elec       q    Type
REMARK                         _______ _______ _______ _____ _____    ______ ____
ROOT
ATOM      1  C   LIG    1       16.639  31.756  10.712  0.00  0.00    +0.000 A 
ATOM      2  C   LIG    1       17.702  31.011  10.201  0.00  0.00    +0.004 A 
ATOM      3  C   LIG    1       17.520  30.231   9.059  0.00  0.00    +0.045 A 
ATOM      4  C   LIG    1       16.276  30.203   8.437  0.00  0.00    +0.117 A 
ATOM      5  C   LIG    1       15.210  30.943   8.938  0.00  0.00    +0.045 A 
ATOM      6  C   LIG    1       15.393  31.722  10.082  0.00  0.00    +0.004 A 
ENDROOT
BRANCH   4   7
ATOM      7  O   LIG    1       16.141  29.427   7.324  0.00  0.00    -0.507 OA
ATOM      8  H   LIG    1       15.281  29.619   6.916  0.00  0.00    +0.292 HD
ENDBRANCH   4   7
TORSDOF 1
ENDMDL
MODEL 4
REMARK VINA RESULT:      -4.4      1.816      2.553
REMARK  Name = 
REMARK                            x       y       z     vdW  Elec       q    Type
REMARK                         _______ _______ _______ _____ _____    ______ ____
ROOT
ATOM      1  C   LIG    1       16.548  31.290  10.593  0.00  0.00    +0.000 A 
ATOM      2  C   LIG    1       15.595  31.368   9.577  0.00  0.00    +0.004 A 
ATOM      3  C   LIG    1       15.612  30.442   8.534  0.00  0.00    +0.045 A 
ATOM      4  C   LIG    1       16.582  29.445   8.515  0.00  0.00    +0.117 A 
ATOM      5  C   LIG    1       17.536  29.358   9.524  0.00  0.00    +0.045 A 
ATOM      6  C   LIG    1       17.518  30.286  10.568  0.00  0.00    +0.004 A 
ENDROOT
BRANCH   4   7
ATOM      7  O   LIG    1       16.563  28.562   7.477  0.00  0.00    -0.507 OA
ATOM      8  H   LIG    1       16.029  27.793   7.736  0.00  0.00    +0.292 HD
ENDBRANCH   4   7
TORSDOF 1
ENDMDL
MODEL 5
REMARK VINA RESULT:      -4.4      2.159      2.752
REMARK  Name = 
REMARK                            x       y       z     vdW  Elec       q    Type
REMARK                         _______ _______ _______ _____ _____    ______ ____
ROOT
ATOM      1  C   LIG    1       15.171  31.618   9.881  0.00  0.00    +0.000 A 
ATOM      2  C   LIG    1       16.055  32.141  10.825  0.00  0.00    +0.004 A 
ATOM      3  C   LIG    1       17.394  31.752  10.817  0.00  0.00    +0.045 A 
ATOM      4  C   LIG    1       17.840  30.843   9.864  0.00  0.00    +0.117 A 
ATOM      5  C   LIG    1       16.968  30.315   8.917  0.00  0.00    +0.045 A 
ATOM      6  C   LIG    1       15.627  30.705   8.927  0.00  0.00    +0.004 A 
ENDROOT
BRANCH   4   7
ATOM      7  O   LIG    1       19.156  30.488   9.892  0.00  0.00    -0.507 OA
ATOM      8  H   LIG    1       19.656  31.116   9.344  0.00  0.00    +0.292 HD
ENDBRANCH   4   7
TORSDOF 1
ENDMDL
MODEL 6
REMARK VINA RESULT:      -4.3      1.947      2.777
REMARK  Name = 
REMARK                            x       y       z     vdW  Elec       q    Type
REMARK                         _______ _______ _______ _____ _____    ______ ____
ROOT
ATOM      1  C   LIG    1       16.670  28.184   8.562  0.00  0.00    +0.000 A 
ATOM      2  C   LIG    1       17.560  28.252   9.634  0.00  0.00    +0.004 A 
ATOM      3  C   LIG    1       17.866  29.486  10.208  0.00  0.00    +0.045 A 
ATOM      4  C   LIG    1       17.278  30.642   9.705  0.00  0.00    +0.117 A 
ATOM      5  C   LIG    1       16.388  30.586   8.637  0.00  0.00    +0.045 A 
ATOM      6  C   LIG    1       16.084  29.349   8.063  0.00  0.00    +0.004 A 
ENDROOT
BRANCH   4   7
ATOM      7  O   LIG    1       17.606  31.828  10.295  0.00  0.00    -0.507 OA
ATOM      8  H   LIG    1       18.269  32.273   9.742  0.00  0.00    +0.292 HD
ENDBRANCH   4   7
TORSDOF 1
ENDMDL
MODEL 7
REMARK VINA RESULT:      -4.3     14.216     14.830
REMARK  Name = 
REMARK                            x       y       z     vdW  Elec       q    Type
REMARK                         _______ _______ _______ _____ _____    ______ ____
ROOT
ATOM      1  C   LIG    1       12.061  17.602  11.492  0.00  0.00    +0.000 A 
ATOM      2  C   LIG    1       12.341  16.252  11.280  0.00  0.00    +0.004 A 
ATOM      3  C   LIG    1       13.656  15.794  11.348  0.00  0.00    +0.045 A 
ATOM      4  C   LIG    1       14.682  16.690  11.629  0.00  0.00    +0.117 A 
ATOM      5  C   LIG    1       14.414  18.039  11.844  0.00  0.00    +0.045 A 
ATOM      6  C   LIG    1       13.096  18.495  11.774  0.00  0.00    +0.004 A 
ENDROOT
BRANCH   4   7
ATOM      7  O   LIG    1       15.954  16.201  11.685  0.00  0.00    -0.507 OA
ATOM      8  H   LIG    1       16.300  16.139  10.780  0.00  0.00    +0.292 HD
ENDBRANCH   4   7
TORSDOF 1
ENDMDL
MODEL 8
REMARK VINA RESULT:      -4.3      2.717      3.789
REMARK  Name = 
REMARK                            x       y       z     vdW  Elec       q    Type
REMARK                         _______ _______ _______ _____ _____    ______ ____
ROOT
ATOM      1  C   LIG    1       16.224  30.500   8.413  0.00  0.00    +0.000 A 
ATOM      2  C   LIG    1       16.283  29.148   8.072  0.00  0.00    +0.004 A 
ATOM      3  C   LIG    1       17.006  28.260   8.867  0.00  0.00    +0.045 A 
ATOM      4  C   LIG    1       17.664  28.730   9.999  0.00  0.00    +0.117 A 
ATOM      5  C   LIG    1       17.610  30.076  10.350  0.00  0.00    +0.045 A 
ATOM      6  C   LIG    1       16.887  30.964   9.551  0.00  0.00    +0.004 A 
ENDROOT
BRANCH   4   7
ATOM      7  O   LIG    1       18.360  27.828  10.749  0.00  0.00    -0.507 OA
ATOM      8  H   LIG    1       19.263  28.165  10.876  0.00  0.00    +0.292 HD
ENDBRANCH   4   7
TORSDOF 1
ENDMDL
MODEL 9
REMARK VINA RESULT:      -4.2      6.578      7.732
REMARK  Name = 
REMARK                            x       y       z     vdW  Elec       q    Type
REMARK                         _______ _______ _______ _____ _____    ______ ____
ROOT
ATOM      1  C   LIG    1       19.216  29.781  14.002  0.00  0.00    +0.000 A 
ATOM      2  C   LIG    1       20.168  30.160  13.055  0.00  0.00    +0.004 A 
ATOM      3  C   LIG    1       21.526  30.023  13.339  0.00  0.00    +0.045 A 
ATOM      4  C   LIG    1       21.923  29.507  14.568  0.00  0.00    +0.117 A 
ATOM      5  C   LIG    1       20.982  29.125  15.520  0.00  0.00    +0.045 A 
ATOM      6  C   LIG    1       19.622  29.264  15.234  0.00  0.00    +0.004 A 
ENDROOT
BRANCH   4   7
ATOM      7  O   LIG    1       23.260  29.391  14.806  0.00  0.00    -0.507 OA
ATOM      8  H   LIG    1       23.393  28.724  15.499  0.00  0.00    +0.292 HD
ENDBRANCH   4   7
TORSDOF 1
ENDMDL
