MODEL 1
REMARK VINA RESULT:      -4.9      0.000      0.000
REMARK  Name = 
REMARK                            x       y       z     vdW  Elec       q    Type
REMARK                         _______ _______ _______ _____ _____    ______ ____
ROOT
ATOM      1  C   LIG    1       28.870  -1.633  27.872  0.00  0.00    +0.000 A 
ATOM      2  C   LIG    1       27.694  -0.884  27.903  0.00  0.00    +0.004 A 
ATOM      3  C   LIG    1       26.462  -1.526  28.027  0.00  0.00    +0.045 A 
ATOM      4  C   LIG    1       26.416  -2.914  28.120  0.00  0.00    +0.117 A 
ATOM      5  C   LIG    1       27.583  -3.670  28.091  0.00  0.00    +0.045 A 
ATOM      6  C   LIG    1       28.816  -3.026  27.966  0.00  0.00    +0.004 A 
ENDROOT
BRANCH   4   7
ATOM      7  O   LIG    1       25.191  -3.501  28.239  0.00  0.00    -0.507 OA
ATOM      8  H   LIG    1       25.170  -4.003  29.071  0.00  0.00    +0.292 HD
ENDBRANCH   4   7
TORSDOF 1
ENDMDL
MODEL 2
REMARK VINA RESULT:      -4.9      0.044      1.829
REMARK  Name = 
REMARK                            x       y       z     vdW  Elec       q    Type
REMARK                         _______ _______ _______ _____ _____    ______ ____
ROOT
ATOM      1  C   LIG    1       28.861  -1.647  27.881  0.00  0.00    +0.000 A 
ATOM      2  C   LIG    1       28.772  -3.037  27.961  0.00  0.00    +0.004 A 
ATOM      3  C   LIG    1       27.525  -3.650  28.079  0.00  0.00    +0.045 A 
ATOM      4  C   LIG    1       26.376  -2.867  28.116  0.00  0.00    +0.117 A 
ATOM      5  C   LIG    1       26.452  -1.481  28.036  0.00  0.00    +0.045 A 
ATOM      6  C   LIG    1       27.702  -0.869  27.919  0.00  0.00    +0.004 A 
ENDROOT
BRANCH   4   7
ATOM      7  O   LIG    1       25.177  -3.507  28.234  0.00  0.00    -0.507 OA
ATOM      8  H   LIG    1       25.049  -4.068  27.452  0.00  0.00    +0.292 HD
ENDBRANCH   4   7
TORSDOF 1
ENDMDL
MODEL 3
REMARK VINA RESULT:      -4.7      2.041      2.742
REMARK  Name = 
REMARK                            x       y       z     vdW  Elec       q    Type
REMARK                         _______ _______ _______ _____ _____    ______ ____
ROOT
ATOM      1  C   LIG    1       28.771  -0.861  27.475  0.00  0.00    +0.000 A 
ATOM      2  C   LIG    1       28.218  -1.883  26.702  0.00  0.00    +0.004 A 
ATOM      3  C   LIG    1       26.875  -1.828  26.334  0.00  0.00    +0.045 A 
ATOM      4  C   LIG    1       26.093  -0.752  26.741  0.00  0.00    +0.117 A 
ATOM      5  C   LIG    1       26.635   0.274  27.510  0.00  0.00    +0.045 A 
ATOM      6  C   LIG    1       27.980   0.217  27.879  0.00  0.00    +0.004 A 
ENDROOT
BRANCH   4   7
ATOM      7  O   LIG    1       24.784  -0.738  26.360  0.00  0.00    -0.507 OA
ATOM      8  H   LIG    1       24.292  -1.356  26.926  0.00  0.00    +0.292 HD
ENDBRANCH   4   7
TORSDOF 1
ENDMDL
MODEL 4
REMARK VINA RESULT:      -4.6      0.959      2.046
REMARK  Name = 
REMARK                            x       y       z     vdW  Elec       q    Type
REMARK                         _______ _______ _______ _____ _____    ______ ____
ROOT
ATOM      1  C   LIG    1       29.109  -2.880  28.136  0.00  0.00    +0.000 A 
ATOM      2  C   LIG    1       28.001  -3.728  28.141  0.00  0.00    +0.004 A 
ATOM      3  C   LIG    1       26.736  -3.222  27.845  0.00  0.00    +0.045 A 
ATOM      4  C   LIG    1       26.588  -1.872  27.545  0.00  0.00    +0.117 A 
ATOM      5  C   LIG    1       27.686  -1.018  27.535  0.00  0.00    +0.045 A 
ATOM      6  C   LIG    1       28.953  -1.526  27.833  0.00  0.00    +0.004 A 
ENDROOT
BRANCH   4   7
ATOM      7  O   LIG    1       25.333  -1.418  27.262  0.00  0.00    -0.507 OA
ATOM      8  H   LIG    1       24.961  -1.966  26.552  0.00  0.00    +0.292 HD
ENDBRANCH   4   7
TORSDOF 1
ENDMDL
MODEL 5
REMARK VINA RESULT:      -4.4      1.622      2.476
REMARK  Name = 
REMARK                            x       y       z     vdW  Elec       q    Type
REMARK                         _______ _______ _______ _____ _____    ______ ____
ROOT
ATOM      1  C   LIG    1       27.168   0.227  27.263  0.00  0.00    +0.000 A 
ATOM      2  C   LIG    1       28.277  -0.268  26.576  0.00  0.00    +0.004 A 
ATOM      3  C   LIG    1       28.500  -1.643  26.515  0.00  0.00    +0.045 A 
ATOM      4  C   LIG    1       27.613  -2.513  27.141  0.00  0.00    +0.117 A 
ATOM      5  C   LIG    1       26.503  -2.029  27.827  0.00  0.00    +0.045 A 
ATOM      6  C   LIG    1       26.281  -0.652  27.888  0.00  0.00    +0.004 A 
ENDROOT
BRANCH   4   7
ATOM      7  O   LIG    1       27.869  -3.850  27.058  0.00  0.00    -0.507 OA
ATOM      8  H   LIG    1       28.800  -4.000  27.293  0.00  0.00    +0.292 HD
ENDBRANCH   4   7
TORSDOF 1
ENDMDL
MODEL 6
REMARK VINA RESULT:      -4.4      1.720      2.126
REMARK  Name = 
REMARK                            x       y       z     vdW  Elec       q    Type
REMARK                         _______ _______ _______ _____ _____    ______ ____
ROOT
ATOM      1  C   LIG    1       28.632   0.521  26.602  0.00  0.00    +0.000 A 
ATOM      2  C   LIG    1       27.459   0.924  27.239  0.00  0.00    +0.004 A 
ATOM      3  C   LIG    1       26.483  -0.018  27.563  0.00  0.00    +0.045 A 
ATOM      4  C   LIG    1       26.689  -1.357  27.248  0.00  0.00    +0.117 A 
ATOM      5  C   LIG    1       27.857  -1.770  26.614  0.00  0.00    +0.045 A 
ATOM      6  C   LIG    1       28.832  -0.825  26.289  0.00  0.00    +0.004 A 
ENDROOT
BRANCH   4   7
ATOM      7  O   LIG    1       25.710  -2.246  27.581  0.00  0.00    -0.507 OA
ATOM      8  H   LIG    1       25.894  -3.089  27.136  0.00  0.00    +0.292 HD
ENDBRANCH   4   7
TORSDOF 1
ENDMDL
MODEL 7
REMARK VINA RESULT:      -4.3      1.710      2.713
REMARK  Name = 
REMARK                            x       y       z     vdW  Elec       q    Type
REMARK                         _______ _______ _______ _____ _____    ______ ____
ROOT
ATOM      1  C   LIG    1       27.849  -3.704  28.084  0.00  0.00    +0.000 A 
ATOM      2  C   LIG    1       28.956  -2.860  27.980  0.00  0.00    +0.004 A 
ATOM      3  C   LIG    1       28.772  -1.484  27.855  0.00  0.00    +0.045 A 
ATOM      4  C   LIG    1       27.484  -0.960  27.835  0.00  0.00    +0.117 A 
ATOM      5  C   LIG    1       26.373  -1.792  27.939  0.00  0.00    +0.045 A 
ATOM      6  C   LIG    1       26.559  -3.171  28.063  0.00  0.00    +0.004 A 
ENDROOT
BRANCH   4   7
ATOM      7  O   LIG    1       27.349   0.391  27.710  0.00  0.00    -0.507 OA
ATOM      8  H   LIG    1       26.589   0.676  28.244  0.00  0.00    +0.292 HD
ENDBRANCH   4   7
TORSDOF 1
ENDMDL
MODEL 8
REMARK VINA RESULT:      -4.2      2.064      2.742
REMARK  Name = 
REMARK                            x       y       z     vdW  Elec       q    Type
REMARK                         _______ _______ _______ _____ _____    ______ ____
ROOT
ATOM      1  C   LIG    1       26.575  -3.281  28.085  0.00  0.00    +0.000 A 
ATOM      2  C   LIG    1       26.359  -1.911  27.926  0.00  0.00    +0.004 A 
ATOM      3  C   LIG    1       27.444  -1.043  27.818  0.00  0.00    +0.045 A 
ATOM      4  C   LIG    1       28.739  -1.551  27.869  0.00  0.00    +0.117 A 
ATOM      5  C   LIG    1       28.965  -2.914  28.026  0.00  0.00    +0.045 A 
ATOM      6  C   LIG    1       27.877  -3.782  28.135  0.00  0.00    +0.004 A 
ENDROOT
BRANCH   4   7
ATOM      7  O   LIG    1       29.771  -0.667  27.761  0.00  0.00    -0.507 OA
ATOM      8  H   LIG    1       30.157  -0.751  26.874  0.00  0.00    +0.292 HD
ENDBRANCH   4   7
TORSDOF 1
ENDMDL
MODEL 9
REMARK VINA RESULT:      -4.2      6.939      7.795
REMARK  Name = 
REMARK                            x       y       z     vdW  Elec       q    Type
REMARK                         _______ _______ _______ _____ _____    ______ ____
ROOT
ATOM      1  C   LIG    1       32.794   0.891  26.111  0.00  0.00    +0.000 A 
ATOM      2  C   LIG    1       33.442   2.098  26.376  0.00  0.00    +0.004 A 
ATOM      3  C   LIG    1       34.239   2.226  27.513  0.00  0.00    +0.045 A 
ATOM      4  C   LIG    1       34.384   1.145  28.376  0.00  0.00    +0.117 A 
ATOM      5  C   LIG    1       33.744  -0.064  28.121  0.00  0.00    +0.045 A 
ATOM      6  C   LIG    1       32.945  -0.190  26.983  0.00  0.00    +0.004 A 
ENDROOT
BRANCH   4   7
ATOM      7  O   LIG    1       35.171   1.313  29.477  0.00  0.00    -0.507 OA
ATOM      8  H   LIG    1       35.919   1.885  29.236  0.00  0.00    +0.292 HD
ENDBRANCH   4   7
TORSDOF 1
ENDMDL
