MODEL 1
REMARK VINA RESULT:      -5.1      0.000      0.000
REMARK  Name = 
REMARK                            x       y       z     vdW  Elec       q    Type
REMARK                         _______ _______ _______ _____ _____    ______ ____
ROOT
ATOM      1  C   LIG    1       37.553  34.325   5.278  0.00  0.00    +0.000 A 
ATOM      2  C   LIG    1       38.164  34.808   6.436  0.00  0.00    +0.004 A 
ATOM      3  C   LIG    1       38.408  36.173   6.576  0.00  0.00    +0.045 A 
ATOM      4  C   LIG    1       38.040  37.046   5.557  0.00  0.00    +0.117 A 
ATOM      5  C   LIG    1       37.430  36.575   4.399  0.00  0.00    +0.045 A 
ATOM      6  C   LIG    1       37.186  35.207   4.260  0.00  0.00    +0.004 A 
ENDROOT
BRANCH   4   7
ATOM      7  O   LIG    1       38.299  38.373   5.735  0.00  0.00    -0.507 OA
ATOM      8  H   LIG    1       38.604  38.743   4.890  0.00  0.00    +0.292 HD
ENDBRANCH   4   7
TORSDOF 1
ENDMDL
MODEL 2
REMARK VINA RESULT:      -5.1      0.059      1.830
REMARK  Name = 
REMARK                            x       y       z     vdW  Elec       q    Type
REMARK                         _______ _______ _______ _____ _____    ______ ____
ROOT
ATOM      1  C   LIG    1       37.566  34.359   5.281  0.00  0.00    +0.000 A 
ATOM      2  C   LIG    1       37.205  35.232   4.254  0.00  0.00    +0.004 A 
ATOM      3  C   LIG    1       37.443  36.600   4.386  0.00  0.00    +0.045 A 
ATOM      4  C   LIG    1       38.041  37.084   5.545  0.00  0.00    +0.117 A 
ATOM      5  C   LIG    1       38.406  36.223   6.575  0.00  0.00    +0.045 A 
ATOM      6  C   LIG    1       38.166  34.854   6.441  0.00  0.00    +0.004 A 
ENDROOT
BRANCH   4   7
ATOM      7  O   LIG    1       38.254  38.429   5.634  0.00  0.00    -0.507 OA
ATOM      8  H   LIG    1       37.733  38.774   6.377  0.00  0.00    +0.292 HD
ENDBRANCH   4   7
TORSDOF 1
ENDMDL
MODEL 3
REMARK VINA RESULT:      -4.6      2.462      3.445
REMARK  Name = 
REMARK                            x       y       z     vdW  Elec       q    Type
REMARK                         _______ _______ _______ _____ _____    ______ ____
ROOT
ATOM      1  C   LIG    1       38.613  32.344   7.794  0.00  0.00    +0.000 A 
ATOM      2  C   LIG    1       39.125  33.159   6.784  0.00  0.00    +0.004 A 
ATOM      3  C   LIG    1       38.677  34.474   6.656  0.00  0.00    +0.045 A 
ATOM      4  C   LIG    1       37.721  34.964   7.540  0.00  0.00    +0.117 A 
ATOM      5  C   LIG    1       37.205  34.160   8.551  0.00  0.00    +0.045 A 
ATOM      6  C   LIG    1       37.653  32.844   8.677  0.00  0.00    +0.004 A 
ENDROOT
BRANCH   4   7
ATOM      7  O   LIG    1       37.311  36.254   7.378  0.00  0.00    -0.507 OA
ATOM      8  H   LIG    1       36.818  36.319   6.543  0.00  0.00    +0.292 HD
ENDBRANCH   4   7
TORSDOF 1
ENDMDL
MODEL 4
REMARK VINA RESULT:      -4.5      3.258      4.286
REMARK  Name = 
REMARK                            x       y       z     vdW  Elec       q    Type
REMARK                         _______ _______ _______ _____ _____    ______ ____
ROOT
ATOM      1  C   LIG    1       39.321  32.926   6.819  0.00  0.00    +0.000 A 
ATOM      2  C   LIG    1       38.689  34.154   6.618  0.00  0.00    +0.004 A 
ATOM      3  C   LIG    1       37.619  34.528   7.430  0.00  0.00    +0.045 A 
ATOM      4  C   LIG    1       37.188  33.671   8.437  0.00  0.00    +0.117 A 
ATOM      5  C   LIG    1       37.811  32.445   8.647  0.00  0.00    +0.045 A 
ATOM      6  C   LIG    1       38.882  32.072   7.833  0.00  0.00    +0.004 A 
ENDROOT
BRANCH   4   7
ATOM      7  O   LIG    1       36.137  34.075   9.207  0.00  0.00    -0.507 OA
ATOM      8  H   LIG    1       35.314  33.794   8.776  0.00  0.00    +0.292 HD
ENDBRANCH   4   7
TORSDOF 1
ENDMDL
MODEL 5
REMARK VINA RESULT:      -4.5      3.347      4.123
REMARK  Name = 
REMARK                            x       y       z     vdW  Elec       q    Type
REMARK                         _______ _______ _______ _____ _____    ______ ____
ROOT
ATOM      1  C   LIG    1       39.358  32.686   6.995  0.00  0.00    +0.000 A 
ATOM      2  C   LIG    1       38.880  31.960   8.086  0.00  0.00    +0.004 A 
ATOM      3  C   LIG    1       37.799  32.442   8.823  0.00  0.00    +0.045 A 
ATOM      4  C   LIG    1       37.203  33.646   8.463  0.00  0.00    +0.117 A 
ATOM      5  C   LIG    1       37.671  34.378   7.376  0.00  0.00    +0.045 A 
ATOM      6  C   LIG    1       38.754  33.894   6.639  0.00  0.00    +0.004 A 
ENDROOT
BRANCH   4   7
ATOM      7  O   LIG    1       36.149  34.081   9.211  0.00  0.00    -0.507 OA
ATOM      8  H   LIG    1       35.675  33.306   9.555  0.00  0.00    +0.292 HD
ENDBRANCH   4   7
TORSDOF 1
ENDMDL
MODEL 6
REMARK VINA RESULT:      -4.4      5.601      6.248
REMARK  Name = 
REMARK                            x       y       z     vdW  Elec       q    Type
REMARK                         _______ _______ _______ _____ _____    ______ ____
ROOT
ATOM      1  C   LIG    1       32.682  34.362   1.941  0.00  0.00    +0.000 A 
ATOM      2  C   LIG    1       33.124  34.467   0.622  0.00  0.00    +0.004 A 
ATOM      3  C   LIG    1       33.769  35.628   0.194  0.00  0.00    +0.045 A 
ATOM      4  C   LIG    1       33.966  36.674   1.089  0.00  0.00    +0.117 A 
ATOM      5  C   LIG    1       33.530  36.579   2.407  0.00  0.00    +0.045 A 
ATOM      6  C   LIG    1       32.884  35.417   2.833  0.00  0.00    +0.004 A 
ENDROOT
BRANCH   4   7
ATOM      7  O   LIG    1       34.599  37.791   0.630  0.00  0.00    -0.507 OA
ATOM      8  H   LIG    1       34.016  38.235  -0.008  0.00  0.00    +0.292 HD
ENDBRANCH   4   7
TORSDOF 1
ENDMDL
MODEL 7
REMARK VINA RESULT:      -4.3      3.110      3.976
REMARK  Name = 
REMARK                            x       y       z     vdW  Elec       q    Type
REMARK                         _______ _______ _______ _____ _____    ______ ____
ROOT
ATOM      1  C   LIG    1       37.233  34.466   8.605  0.00  0.00    +0.000 A 
ATOM      2  C   LIG    1       37.582  33.132   8.819  0.00  0.00    +0.004 A 
ATOM      3  C   LIG    1       38.419  32.478   7.915  0.00  0.00    +0.045 A 
ATOM      4  C   LIG    1       38.901  33.162   6.804  0.00  0.00    +0.117 A 
ATOM      5  C   LIG    1       38.560  34.493   6.582  0.00  0.00    +0.045 A 
ATOM      6  C   LIG    1       37.721  35.146   7.487  0.00  0.00    +0.004 A 
ENDROOT
BRANCH   4   7
ATOM      7  O   LIG    1       39.715  32.485   5.946  0.00  0.00    -0.507 OA
ATOM      8  H   LIG    1       39.201  31.773   5.531  0.00  0.00    +0.292 HD
ENDBRANCH   4   7
TORSDOF 1
ENDMDL
MODEL 8
REMARK VINA RESULT:      -4.3      5.419      5.957
REMARK  Name = 
REMARK                            x       y       z     vdW  Elec       q    Type
REMARK                         _______ _______ _______ _____ _____    ______ ____
ROOT
ATOM      1  C   LIG    1       33.210  34.532   0.477  0.00  0.00    +0.000 A 
ATOM      2  C   LIG    1       32.733  34.256   1.758  0.00  0.00    +0.004 A 
ATOM      3  C   LIG    1       32.872  35.203   2.773  0.00  0.00    +0.045 A 
ATOM      4  C   LIG    1       33.487  36.420   2.497  0.00  0.00    +0.117 A 
ATOM      5  C   LIG    1       33.964  36.707   1.222  0.00  0.00    +0.045 A 
ATOM      6  C   LIG    1       33.825  35.757   0.208  0.00  0.00    +0.004 A 
ENDROOT
BRANCH   4   7
ATOM      7  O   LIG    1       33.603  37.317   3.518  0.00  0.00    -0.507 OA
ATOM      8  H   LIG    1       32.786  37.840   3.563  0.00  0.00    +0.292 HD
ENDBRANCH   4   7
TORSDOF 1
ENDMDL
MODEL 9
REMARK VINA RESULT:      -4.2      5.907      6.503
REMARK  Name = 
REMARK                            x       y       z     vdW  Elec       q    Type
REMARK                         _______ _______ _______ _____ _____    ______ ____
ROOT
ATOM      1  C   LIG    1       32.727  35.384   2.986  0.00  0.00    +0.000 A 
ATOM      2  C   LIG    1       32.614  34.393   2.011  0.00  0.00    +0.004 A 
ATOM      3  C   LIG    1       33.134  34.607   0.735  0.00  0.00    +0.045 A 
ATOM      4  C   LIG    1       33.766  35.812   0.444  0.00  0.00    +0.117 A 
ATOM      5  C   LIG    1       33.886  36.807   1.409  0.00  0.00    +0.045 A 
ATOM      6  C   LIG    1       33.363  36.591   2.685  0.00  0.00    +0.004 A 
ENDROOT
BRANCH   4   7
ATOM      7  O   LIG    1       34.260  35.981  -0.816  0.00  0.00    -0.507 OA
ATOM      8  H   LIG    1       33.525  35.909  -1.447  0.00  0.00    +0.292 HD
ENDBRANCH   4   7
TORSDOF 1
ENDMDL
