MODEL 1
REMARK VINA RESULT:      -5.1      0.000      0.000
REMARK  Name = 
REMARK                            x       y       z     vdW  Elec       q    Type
REMARK                         _______ _______ _______ _____ _____    ______ ____
ROOT
ATOM      1  C   LIG    1        2.658   3.837  23.543  0.00  0.00    +0.000 A 
ATOM      2  C   LIG    1        3.308   2.751  22.956  0.00  0.00    +0.004 A 
ATOM      3  C   LIG    1        3.459   2.695  21.571  0.00  0.00    +0.045 A 
ATOM      4  C   LIG    1        2.958   3.727  20.783  0.00  0.00    +0.117 A 
ATOM      5  C   LIG    1        2.310   4.815  21.358  0.00  0.00    +0.045 A 
ATOM      6  C   LIG    1        2.159   4.869  22.745  0.00  0.00    +0.004 A 
ENDROOT
BRANCH   4   7
ATOM      7  O   LIG    1        3.126   3.632  19.433  0.00  0.00    -0.507 OA
ATOM      8  H   LIG    1        3.037   4.519  19.048  0.00  0.00    +0.292 HD
ENDBRANCH   4   7
TORSDOF 1
ENDMDL
MODEL 2
REMARK VINA RESULT:      -5.0      1.514      2.317
REMARK  Name = 
REMARK                            x       y       z     vdW  Elec       q    Type
REMARK                         _______ _______ _______ _____ _____    ______ ____
ROOT
ATOM      1  C   LIG    1        2.075   5.207  21.868  0.00  0.00    +0.000 A 
ATOM      2  C   LIG    1        2.750   4.659  20.777  0.00  0.00    +0.004 A 
ATOM      3  C   LIG    1        3.554   3.533  20.949  0.00  0.00    +0.045 A 
ATOM      4  C   LIG    1        3.678   2.963  22.212  0.00  0.00    +0.117 A 
ATOM      5  C   LIG    1        3.009   3.500  23.307  0.00  0.00    +0.045 A 
ATOM      6  C   LIG    1        2.204   4.628  23.133  0.00  0.00    +0.004 A 
ENDROOT
BRANCH   4   7
ATOM      7  O   LIG    1        4.476   1.864  22.337  0.00  0.00    -0.507 OA
ATOM      8  H   LIG    1        3.985   1.090  22.014  0.00  0.00    +0.292 HD
ENDBRANCH   4   7
TORSDOF 1
ENDMDL
MODEL 3
REMARK VINA RESULT:      -5.0      1.506      2.261
REMARK  Name = 
REMARK                            x       y       z     vdW  Elec       q    Type
REMARK                         _______ _______ _______ _____ _____    ______ ____
ROOT
ATOM      1  C   LIG    1        2.015   5.160  22.040  0.00  0.00    +0.000 A 
ATOM      2  C   LIG    1        2.214   4.516  23.262  0.00  0.00    +0.004 A 
ATOM      3  C   LIG    1        3.052   3.404  23.335  0.00  0.00    +0.045 A 
ATOM      4  C   LIG    1        3.687   2.945  22.185  0.00  0.00    +0.117 A 
ATOM      5  C   LIG    1        3.497   3.581  20.962  0.00  0.00    +0.045 A 
ATOM      6  C   LIG    1        2.656   4.693  20.891  0.00  0.00    +0.004 A 
ENDROOT
BRANCH   4   7
ATOM      7  O   LIG    1        4.497   1.854  22.301  0.00  0.00    -0.507 OA
ATOM      8  H   LIG    1        5.224   1.942  21.663  0.00  0.00    +0.292 HD
ENDBRANCH   4   7
TORSDOF 1
ENDMDL
MODEL 4
REMARK VINA RESULT:      -4.8      6.806      7.543
REMARK  Name = 
REMARK                            x       y       z     vdW  Elec       q    Type
REMARK                         _______ _______ _______ _____ _____    ______ ____
ROOT
ATOM      1  C   LIG    1       -0.324  -3.205  26.123  0.00  0.00    +0.000 A 
ATOM      2  C   LIG    1        0.240  -4.213  25.341  0.00  0.00    +0.004 A 
ATOM      3  C   LIG    1        0.954  -3.883  24.189  0.00  0.00    +0.045 A 
ATOM      4  C   LIG    1        1.099  -2.548  23.828  0.00  0.00    +0.117 A 
ATOM      5  C   LIG    1        0.541  -1.535  24.602  0.00  0.00    +0.045 A 
ATOM      6  C   LIG    1       -0.174  -1.867  25.754  0.00  0.00    +0.004 A 
ENDROOT
BRANCH   4   7
ATOM      7  O   LIG    1        1.803  -2.269  22.694  0.00  0.00    -0.507 OA
ATOM      8  H   LIG    1        1.741  -3.034  22.098  0.00  0.00    +0.292 HD
ENDBRANCH   4   7
TORSDOF 1
ENDMDL
MODEL 5
REMARK VINA RESULT:      -4.8      7.424      8.318
REMARK  Name = 
REMARK                            x       y       z     vdW  Elec       q    Type
REMARK                         _______ _______ _______ _____ _____    ______ ____
ROOT
ATOM      1  C   LIG    1        1.105  -3.251  23.421  0.00  0.00    +0.000 A 
ATOM      2  C   LIG    1        0.676  -4.328  24.196  0.00  0.00    +0.004 A 
ATOM      3  C   LIG    1        0.259  -4.119  25.510  0.00  0.00    +0.045 A 
ATOM      4  C   LIG    1        0.274  -2.832  26.039  0.00  0.00    +0.117 A 
ATOM      5  C   LIG    1        0.700  -1.750  25.275  0.00  0.00    +0.045 A 
ATOM      6  C   LIG    1        1.118  -1.963  23.959  0.00  0.00    +0.004 A 
ENDROOT
BRANCH   4   7
ATOM      7  O   LIG    1       -0.140  -2.671  27.328  0.00  0.00    -0.507 OA
ATOM      8  H   LIG    1       -0.001  -3.507  27.803  0.00  0.00    +0.292 HD
ENDBRANCH   4   7
TORSDOF 1
ENDMDL
MODEL 6
REMARK VINA RESULT:      -4.0     10.684     11.548
REMARK  Name = 
REMARK                            x       y       z     vdW  Elec       q    Type
REMARK                         _______ _______ _______ _____ _____    ______ ____
ROOT
ATOM      1  C   LIG    1        8.004  -4.237  26.228  0.00  0.00    +0.000 A 
ATOM      2  C   LIG    1        8.695  -4.518  27.407  0.00  0.00    +0.004 A 
ATOM      3  C   LIG    1       10.077  -4.346  27.463  0.00  0.00    +0.045 A 
ATOM      4  C   LIG    1       10.760  -3.893  26.338  0.00  0.00    +0.117 A 
ATOM      5  C   LIG    1       10.081  -3.608  25.158  0.00  0.00    +0.045 A 
ATOM      6  C   LIG    1        8.697  -3.782  25.103  0.00  0.00    +0.004 A 
ENDROOT
BRANCH   4   7
ATOM      7  O   LIG    1       12.111  -3.739  26.436  0.00  0.00    -0.507 OA
ATOM      8  H   LIG    1       12.315  -2.789  26.418  0.00  0.00    +0.292 HD
ENDBRANCH   4   7
TORSDOF 1
ENDMDL
MODEL 7
REMARK VINA RESULT:      -4.0     10.712     11.636
REMARK  Name = 
REMARK                            x       y       z     vdW  Elec       q    Type
REMARK                         _______ _______ _______ _____ _____    ______ ____
ROOT
ATOM      1  C   LIG    1        8.056  -4.216  26.335  0.00  0.00    +0.000 A 
ATOM      2  C   LIG    1        8.729  -3.770  25.196  0.00  0.00    +0.004 A 
ATOM      3  C   LIG    1       10.113  -3.600  25.227  0.00  0.00    +0.045 A 
ATOM      4  C   LIG    1       10.814  -3.877  26.396  0.00  0.00    +0.117 A 
ATOM      5  C   LIG    1       10.153  -4.323  27.537  0.00  0.00    +0.045 A 
ATOM      6  C   LIG    1        8.767  -4.492  27.504  0.00  0.00    +0.004 A 
ENDROOT
BRANCH   4   7
ATOM      7  O   LIG    1       12.165  -3.696  26.384  0.00  0.00    -0.507 OA
ATOM      8  H   LIG    1       12.522  -3.981  27.241  0.00  0.00    +0.292 HD
ENDBRANCH   4   7
TORSDOF 1
ENDMDL
MODEL 8
REMARK VINA RESULT:      -4.0      5.807      6.812
REMARK  Name = 
REMARK                            x       y       z     vdW  Elec       q    Type
REMARK                         _______ _______ _______ _____ _____    ______ ____
ROOT
ATOM      1  C   LIG    1        1.479  -1.034  21.941  0.00  0.00    +0.000 A 
ATOM      2  C   LIG    1        1.108  -0.244  23.029  0.00  0.00    +0.004 A 
ATOM      3  C   LIG    1        0.870  -0.835  24.270  0.00  0.00    +0.045 A 
ATOM      4  C   LIG    1        1.006  -2.212  24.413  0.00  0.00    +0.117 A 
ATOM      5  C   LIG    1        1.377  -3.009  23.334  0.00  0.00    +0.045 A 
ATOM      6  C   LIG    1        1.614  -2.416  22.092  0.00  0.00    +0.004 A 
ENDROOT
BRANCH   4   7
ATOM      7  O   LIG    1        0.763  -2.749  25.642  0.00  0.00    -0.507 OA
ATOM      8  H   LIG    1        0.882  -3.712  25.587  0.00  0.00    +0.292 HD
ENDBRANCH   4   7
TORSDOF 1
ENDMDL
MODEL 9
REMARK VINA RESULT:      -4.0      3.033      3.594
REMARK  Name = 
REMARK                            x       y       z     vdW  Elec       q    Type
REMARK                         _______ _______ _______ _____ _____    ______ ____
ROOT
ATOM      1  C   LIG    1        0.942   0.424  22.869  0.00  0.00    +0.000 A 
ATOM      2  C   LIG    1        1.423  -0.755  22.299  0.00  0.00    +0.004 A 
ATOM      3  C   LIG    1        2.610  -0.742  21.568  0.00  0.00    +0.045 A 
ATOM      4  C   LIG    1        3.309   0.452  21.413  0.00  0.00    +0.117 A 
ATOM      5  C   LIG    1        2.839   1.633  21.978  0.00  0.00    +0.045 A 
ATOM      6  C   LIG    1        1.649   1.617  22.709  0.00  0.00    +0.004 A 
ENDROOT
BRANCH   4   7
ATOM      7  O   LIG    1        4.464   0.421  20.690  0.00  0.00    -0.507 OA
ATOM      8  H   LIG    1        4.616  -0.490  20.390  0.00  0.00    +0.292 HD
ENDBRANCH   4   7
TORSDOF 1
ENDMDL
