MODEL 1
REMARK VINA RESULT:      -2.3      0.000      0.000
REMARK  Name = 
REMARK                            x       y       z     vdW  Elec       q    Type
REMARK                         _______ _______ _______ _____ _____    ______ ____
ROOT
ATOM      1  C   LIG    1       13.484   0.513  50.013  0.00  0.00    +0.000 A 
ATOM      2  C   LIG    1       13.801   1.410  51.034  0.00  0.00    +0.004 A 
ATOM      3  C   LIG    1       14.768   1.073  51.981  0.00  0.00    +0.045 A 
ATOM      4  C   LIG    1       15.412  -0.157  51.899  0.00  0.00    +0.117 A 
ATOM      5  C   LIG    1       15.104  -1.058  50.884  0.00  0.00    +0.045 A 
ATOM      6  C   LIG    1       14.135  -0.720  49.938  0.00  0.00    +0.004 A 
ENDROOT
BRANCH   4   7
ATOM      7  O   LIG    1       16.350  -0.446  52.845  0.00  0.00    -0.507 OA
ATOM      8  H   LIG    1       16.250   0.181  53.580  0.00  0.00    +0.292 HD
ENDBRANCH   4   7
TORSDOF 1
ENDMDL
MODEL 2
REMARK VINA RESULT:      -2.0      1.802      2.912
REMARK  Name = 
REMARK                            x       y       z     vdW  Elec       q    Type
REMARK                         _______ _______ _______ _____ _____    ______ ____
ROOT
ATOM      1  C   LIG    1       14.407   3.153  52.919  0.00  0.00    +0.000 A 
ATOM      2  C   LIG    1       15.760   2.856  52.754  0.00  0.00    +0.004 A 
ATOM      3  C   LIG    1       16.147   1.807  51.921  0.00  0.00    +0.045 A 
ATOM      4  C   LIG    1       15.177   1.062  51.258  0.00  0.00    +0.117 A 
ATOM      5  C   LIG    1       13.825   1.351  51.413  0.00  0.00    +0.045 A 
ATOM      6  C   LIG    1       13.440   2.401  52.249  0.00  0.00    +0.004 A 
ENDROOT
BRANCH   4   7
ATOM      7  O   LIG    1       15.599   0.045  50.454  0.00  0.00    -0.507 OA
ATOM      8  H   LIG    1       16.562  -0.040  50.544  0.00  0.00    +0.292 HD
ENDBRANCH   4   7
TORSDOF 1
ENDMDL
MODEL 3
REMARK VINA RESULT:      -2.0      1.801      2.999
REMARK  Name = 
REMARK                            x       y       z     vdW  Elec       q    Type
REMARK                         _______ _______ _______ _____ _____    ______ ____
ROOT
ATOM      1  C   LIG    1       14.407   3.275  52.874  0.00  0.00    +0.000 A 
ATOM      2  C   LIG    1       13.447   2.454  52.281  0.00  0.00    +0.004 A 
ATOM      3  C   LIG    1       13.845   1.342  51.539  0.00  0.00    +0.045 A 
ATOM      4  C   LIG    1       15.199   1.059  51.397  0.00  0.00    +0.117 A 
ATOM      5  C   LIG    1       16.164   1.870  51.986  0.00  0.00    +0.045 A 
ATOM      6  C   LIG    1       15.764   2.984  52.727  0.00  0.00    +0.004 A 
ENDROOT
BRANCH   4   7
ATOM      7  O   LIG    1       15.544  -0.037  50.662  0.00  0.00    -0.507 OA
ATOM      8  H   LIG    1       14.860  -0.184  49.989  0.00  0.00    +0.292 HD
ENDBRANCH   4   7
TORSDOF 1
ENDMDL
MODEL 4
REMARK VINA RESULT:      -2.0      1.668      2.777
REMARK  Name = 
REMARK                            x       y       z     vdW  Elec       q    Type
REMARK                         _______ _______ _______ _____ _____    ______ ____
ROOT
ATOM      1  C   LIG    1       13.727   0.591  53.561  0.00  0.00    +0.000 A 
ATOM      2  C   LIG    1       14.598  -0.488  53.408  0.00  0.00    +0.004 A 
ATOM      3  C   LIG    1       15.229  -0.706  52.183  0.00  0.00    +0.045 A 
ATOM      4  C   LIG    1       14.985   0.158  51.121  0.00  0.00    +0.117 A 
ATOM      5  C   LIG    1       14.120   1.239  51.263  0.00  0.00    +0.045 A 
ATOM      6  C   LIG    1       13.488   1.454  52.490  0.00  0.00    +0.004 A 
ENDROOT
BRANCH   4   7
ATOM      7  O   LIG    1       15.621  -0.091  49.941  0.00  0.00    -0.507 OA
ATOM      8  H   LIG    1       16.081   0.717  49.662  0.00  0.00    +0.292 HD
ENDBRANCH   4   7
TORSDOF 1
ENDMDL
MODEL 5
REMARK VINA RESULT:      -1.9      0.872      2.102
REMARK  Name = 
REMARK                            x       y       z     vdW  Elec       q    Type
REMARK                         _______ _______ _______ _____ _____    ______ ____
ROOT
ATOM      1  C   LIG    1       13.510   1.839  51.443  0.00  0.00    +0.000 A 
ATOM      2  C   LIG    1       13.789   0.777  50.583  0.00  0.00    +0.004 A 
ATOM      3  C   LIG    1       14.721  -0.193  50.952  0.00  0.00    +0.045 A 
ATOM      4  C   LIG    1       15.366  -0.093  52.180  0.00  0.00    +0.117 A 
ATOM      5  C   LIG    1       15.095   0.961  53.047  0.00  0.00    +0.045 A 
ATOM      6  C   LIG    1       14.162   1.931  52.675  0.00  0.00    +0.004 A 
ENDROOT
BRANCH   4   7
ATOM      7  O   LIG    1       16.271  -1.062  52.502  0.00  0.00    -0.507 OA
ATOM      8  H   LIG    1       16.499  -0.971  53.441  0.00  0.00    +0.292 HD
ENDBRANCH   4   7
TORSDOF 1
ENDMDL
MODEL 6
REMARK VINA RESULT:      -1.8      5.104      5.708
REMARK  Name = 
REMARK                            x       y       z     vdW  Elec       q    Type
REMARK                         _______ _______ _______ _____ _____    ______ ____
ROOT
ATOM      1  C   LIG    1       18.408   5.363  50.240  0.00  0.00    +0.000 A 
ATOM      2  C   LIG    1       17.555   4.976  51.274  0.00  0.00    +0.004 A 
ATOM      3  C   LIG    1       17.825   3.820  52.005  0.00  0.00    +0.045 A 
ATOM      4  C   LIG    1       18.949   3.059  51.697  0.00  0.00    +0.117 A 
ATOM      5  C   LIG    1       19.807   3.436  50.669  0.00  0.00    +0.045 A 
ATOM      6  C   LIG    1       19.534   4.594  49.938  0.00  0.00    +0.004 A 
ENDROOT
BRANCH   4   7
ATOM      7  O   LIG    1       19.175   1.935  52.435  0.00  0.00    -0.507 OA
ATOM      8  H   LIG    1       18.456   1.305  52.266  0.00  0.00    +0.292 HD
ENDBRANCH   4   7
TORSDOF 1
ENDMDL
MODEL 7
REMARK VINA RESULT:      -1.8      5.136      5.905
REMARK  Name = 
REMARK                            x       y       z     vdW  Elec       q    Type
REMARK                         _______ _______ _______ _____ _____    ______ ____
ROOT
ATOM      1  C   LIG    1       18.616   5.555  50.161  0.00  0.00    +0.000 A 
ATOM      2  C   LIG    1       19.644   4.639  49.938  0.00  0.00    +0.004 A 
ATOM      3  C   LIG    1       19.659   3.427  50.627  0.00  0.00    +0.045 A 
ATOM      4  C   LIG    1       18.645   3.139  51.534  0.00  0.00    +0.117 A 
ATOM      5  C   LIG    1       17.614   4.044  51.763  0.00  0.00    +0.045 A 
ATOM      6  C   LIG    1       17.601   5.258  51.073  0.00  0.00    +0.004 A 
ENDROOT
BRANCH   4   7
ATOM      7  O   LIG    1       18.699   1.943  52.187  0.00  0.00    -0.507 OA
ATOM      8  H   LIG    1       18.204   2.024  53.019  0.00  0.00    +0.292 HD
ENDBRANCH   4   7
TORSDOF 1
ENDMDL
MODEL 8
REMARK VINA RESULT:      -1.8      5.268      5.977
REMARK  Name = 
REMARK                            x       y       z     vdW  Elec       q    Type
REMARK                         _______ _______ _______ _____ _____    ______ ____
ROOT
ATOM      1  C   LIG    1       19.368   3.648  50.227  0.00  0.00    +0.000 A 
ATOM      2  C   LIG    1       19.114   4.991  49.942  0.00  0.00    +0.004 A 
ATOM      3  C   LIG    1       18.044   5.642  50.554  0.00  0.00    +0.045 A 
ATOM      4  C   LIG    1       17.236   4.946  51.447  0.00  0.00    +0.117 A 
ATOM      5  C   LIG    1       17.480   3.608  51.739  0.00  0.00    +0.045 A 
ATOM      6  C   LIG    1       18.552   2.957  51.124  0.00  0.00    +0.004 A 
ENDROOT
BRANCH   4   7
ATOM      7  O   LIG    1       16.199   5.621  52.023  0.00  0.00    -0.507 OA
ATOM      8  H   LIG    1       16.226   5.467  52.981  0.00  0.00    +0.292 HD
ENDBRANCH   4   7
TORSDOF 1
ENDMDL
MODEL 9
REMARK VINA RESULT:      -1.7      4.428      5.385
REMARK  Name = 
REMARK                            x       y       z     vdW  Elec       q    Type
REMARK                         _______ _______ _______ _____ _____    ______ ____
ROOT
ATOM      1  C   LIG    1       16.589   4.896  52.403  0.00  0.00    +0.000 A 
ATOM      2  C   LIG    1       16.636   3.509  52.544  0.00  0.00    +0.004 A 
ATOM      3  C   LIG    1       17.497   2.757  51.745  0.00  0.00    +0.045 A 
ATOM      4  C   LIG    1       18.304   3.398  50.811  0.00  0.00    +0.117 A 
ATOM      5  C   LIG    1       18.265   4.780  50.663  0.00  0.00    +0.045 A 
ATOM      6  C   LIG    1       17.403   5.532  51.463  0.00  0.00    +0.004 A 
ENDROOT
BRANCH   4   7
ATOM      7  O   LIG    1       19.129   2.624  50.049  0.00  0.00    -0.507 OA
ATOM      8  H   LIG    1       19.948   2.464  50.548  0.00  0.00    +0.292 HD
ENDBRANCH   4   7
TORSDOF 1
ENDMDL
