MODEL 1
REMARK VINA RESULT:      -5.0      0.000      0.000
REMARK  Name = 
REMARK                            x       y       z     vdW  Elec       q    Type
REMARK                         _______ _______ _______ _____ _____    ______ ____
ROOT
ATOM      1  C   LIG    1       30.905  -0.908  21.919  0.00  0.00    +0.000 A 
ATOM      2  C   LIG    1       31.349  -1.295  23.184  0.00  0.00    +0.004 A 
ATOM      3  C   LIG    1       30.441  -1.402  24.237  0.00  0.00    +0.045 A 
ATOM      4  C   LIG    1       29.097  -1.121  24.018  0.00  0.00    +0.117 A 
ATOM      5  C   LIG    1       28.643  -0.736  22.760  0.00  0.00    +0.045 A 
ATOM      6  C   LIG    1       29.554  -0.629  21.707  0.00  0.00    +0.004 A 
ENDROOT
BRANCH   4   7
ATOM      7  O   LIG    1       28.244  -1.237  25.076  0.00  0.00    -0.507 OA
ATOM      8  H   LIG    1       28.472  -0.557  25.731  0.00  0.00    +0.292 HD
ENDBRANCH   4   7
TORSDOF 1
ENDMDL
MODEL 2
REMARK VINA RESULT:      -5.0      5.413      6.526
REMARK  Name = 
REMARK                            x       y       z     vdW  Elec       q    Type
REMARK                         _______ _______ _______ _____ _____    ______ ____
ROOT
ATOM      1  C   LIG    1       27.088  -0.476  19.991  0.00  0.00    +0.000 A 
ATOM      2  C   LIG    1       26.655   0.840  19.824  0.00  0.00    +0.004 A 
ATOM      3  C   LIG    1       26.257   1.287  18.565  0.00  0.00    +0.045 A 
ATOM      4  C   LIG    1       26.293   0.415  17.482  0.00  0.00    +0.117 A 
ATOM      5  C   LIG    1       26.722  -0.899  17.637  0.00  0.00    +0.045 A 
ATOM      6  C   LIG    1       27.122  -1.345  18.899  0.00  0.00    +0.004 A 
ENDROOT
BRANCH   4   7
ATOM      7  O   LIG    1       25.896   0.894  16.268  0.00  0.00    -0.507 OA
ATOM      8  H   LIG    1       26.076   1.848  16.240  0.00  0.00    +0.292 HD
ENDBRANCH   4   7
TORSDOF 1
ENDMDL
MODEL 3
REMARK VINA RESULT:      -5.0      5.394      6.469
REMARK  Name = 
REMARK                            x       y       z     vdW  Elec       q    Type
REMARK                         _______ _______ _______ _____ _____    ______ ____
ROOT
ATOM      1  C   LIG    1       27.119  -0.481  19.994  0.00  0.00    +0.000 A 
ATOM      2  C   LIG    1       27.130  -1.330  18.887  0.00  0.00    +0.004 A 
ATOM      3  C   LIG    1       26.718  -0.856  17.642  0.00  0.00    +0.045 A 
ATOM      4  C   LIG    1       26.298   0.464  17.514  0.00  0.00    +0.117 A 
ATOM      5  C   LIG    1       26.284   1.319  18.611  0.00  0.00    +0.045 A 
ATOM      6  C   LIG    1       26.696   0.843  19.857  0.00  0.00    +0.004 A 
ENDROOT
BRANCH   4   7
ATOM      7  O   LIG    1       25.902   0.886  16.279  0.00  0.00    -0.507 OA
ATOM      8  H   LIG    1       25.341   1.672  16.387  0.00  0.00    +0.292 HD
ENDBRANCH   4   7
TORSDOF 1
ENDMDL
MODEL 4
REMARK VINA RESULT:      -4.7      5.214      6.165
REMARK  Name = 
REMARK                            x       y       z     vdW  Elec       q    Type
REMARK                         _______ _______ _______ _____ _____    ______ ____
ROOT
ATOM      1  C   LIG    1       27.037  -1.334  19.011  0.00  0.00    +0.000 A 
ATOM      2  C   LIG    1       26.907  -0.398  20.038  0.00  0.00    +0.004 A 
ATOM      3  C   LIG    1       26.534   0.913  19.742  0.00  0.00    +0.045 A 
ATOM      4  C   LIG    1       26.293   1.278  18.422  0.00  0.00    +0.117 A 
ATOM      5  C   LIG    1       26.419   0.353  17.390  0.00  0.00    +0.045 A 
ATOM      6  C   LIG    1       26.793  -0.959  17.688  0.00  0.00    +0.004 A 
ENDROOT
BRANCH   4   7
ATOM      7  O   LIG    1       25.932   2.570  18.177  0.00  0.00    -0.507 OA
ATOM      8  H   LIG    1       26.692   3.144  18.369  0.00  0.00    +0.292 HD
ENDBRANCH   4   7
TORSDOF 1
ENDMDL
MODEL 5
REMARK VINA RESULT:      -4.7      2.225      3.321
REMARK  Name = 
REMARK                            x       y       z     vdW  Elec       q    Type
REMARK                         _______ _______ _______ _____ _____    ______ ____
ROOT
ATOM      1  C   LIG    1       29.320  -1.420  23.612  0.00  0.00    +0.000 A 
ATOM      2  C   LIG    1       28.764  -0.617  22.615  0.00  0.00    +0.004 A 
ATOM      3  C   LIG    1       29.580   0.234  21.871  0.00  0.00    +0.045 A 
ATOM      4  C   LIG    1       30.946   0.276  22.128  0.00  0.00    +0.117 A 
ATOM      5  C   LIG    1       31.511  -0.522  23.118  0.00  0.00    +0.045 A 
ATOM      6  C   LIG    1       30.693  -1.373  23.863  0.00  0.00    +0.004 A 
ENDROOT
BRANCH   4   7
ATOM      7  O   LIG    1       31.707   1.122  21.377  0.00  0.00    -0.507 OA
ATOM      8  H   LIG    1       32.606   1.137  21.745  0.00  0.00    +0.292 HD
ENDBRANCH   4   7
TORSDOF 1
ENDMDL
MODEL 6
REMARK VINA RESULT:      -4.7      4.693      5.819
REMARK  Name = 
REMARK                            x       y       z     vdW  Elec       q    Type
REMARK                         _______ _______ _______ _____ _____    ______ ____
ROOT
ATOM      1  C   LIG    1       26.783  -0.949  17.703  0.00  0.00    +0.000 A 
ATOM      2  C   LIG    1       26.435   0.374  17.427  0.00  0.00    +0.004 A 
ATOM      3  C   LIG    1       26.305   1.292  18.469  0.00  0.00    +0.045 A 
ATOM      4  C   LIG    1       26.525   0.880  19.780  0.00  0.00    +0.117 A 
ATOM      5  C   LIG    1       26.874  -0.436  20.066  0.00  0.00    +0.045 A 
ATOM      6  C   LIG    1       27.002  -1.354  19.021  0.00  0.00    +0.004 A 
ENDROOT
BRANCH   4   7
ATOM      7  O   LIG    1       26.386   1.809  20.768  0.00  0.00    -0.507 OA
ATOM      8  H   LIG    1       25.476   2.147  20.747  0.00  0.00    +0.292 HD
ENDBRANCH   4   7
TORSDOF 1
ENDMDL
MODEL 7
REMARK VINA RESULT:      -4.6      4.435      5.532
REMARK  Name = 
REMARK                            x       y       z     vdW  Elec       q    Type
REMARK                         _______ _______ _______ _____ _____    ______ ____
ROOT
ATOM      1  C   LIG    1       26.435   0.317  17.406  0.00  0.00    +0.000 A 
ATOM      2  C   LIG    1       26.292   1.301  18.384  0.00  0.00    +0.004 A 
ATOM      3  C   LIG    1       26.528   0.992  19.724  0.00  0.00    +0.045 A 
ATOM      4  C   LIG    1       26.905  -0.299  20.075  0.00  0.00    +0.117 A 
ATOM      5  C   LIG    1       27.052  -1.289  19.108  0.00  0.00    +0.045 A 
ATOM      6  C   LIG    1       26.815  -0.978  17.768  0.00  0.00    +0.004 A 
ENDROOT
BRANCH   4   7
ATOM      7  O   LIG    1       27.125  -0.559  21.396  0.00  0.00    -0.507 OA
ATOM      8  H   LIG    1       27.849   0.009  21.705  0.00  0.00    +0.292 HD
ENDBRANCH   4   7
TORSDOF 1
ENDMDL
MODEL 8
REMARK VINA RESULT:      -4.6     11.517     12.463
REMARK  Name = 
REMARK                            x       y       z     vdW  Elec       q    Type
REMARK                         _______ _______ _______ _____ _____    ______ ____
ROOT
ATOM      1  C   LIG    1       25.270   4.142  14.862  0.00  0.00    +0.000 A 
ATOM      2  C   LIG    1       23.886   4.004  14.978  0.00  0.00    +0.004 A 
ATOM      3  C   LIG    1       23.126   3.649  13.865  0.00  0.00    +0.045 A 
ATOM      4  C   LIG    1       23.754   3.434  12.643  0.00  0.00    +0.117 A 
ATOM      5  C   LIG    1       25.133   3.568  12.516  0.00  0.00    +0.045 A 
ATOM      6  C   LIG    1       25.893   3.924  13.632  0.00  0.00    +0.004 A 
ENDROOT
BRANCH   4   7
ATOM      7  O   LIG    1       22.973   3.090  11.579  0.00  0.00    -0.507 OA
ATOM      8  H   LIG    1       23.105   2.146  11.393  0.00  0.00    +0.292 HD
ENDBRANCH   4   7
TORSDOF 1
ENDMDL
MODEL 9
REMARK VINA RESULT:      -4.6      1.228      2.227
REMARK  Name = 
REMARK                            x       y       z     vdW  Elec       q    Type
REMARK                         _______ _______ _______ _____ _____    ______ ____
ROOT
ATOM      1  C   LIG    1       30.256   0.793  21.553  0.00  0.00    +0.000 A 
ATOM      2  C   LIG    1       28.981   0.271  21.776  0.00  0.00    +0.004 A 
ATOM      3  C   LIG    1       28.802  -0.759  22.699  0.00  0.00    +0.045 A 
ATOM      4  C   LIG    1       29.899  -1.258  23.394  0.00  0.00    +0.117 A 
ATOM      5  C   LIG    1       31.174  -0.743  23.181  0.00  0.00    +0.045 A 
ATOM      6  C   LIG    1       31.352   0.287  22.255  0.00  0.00    +0.004 A 
ENDROOT
BRANCH   4   7
ATOM      7  O   LIG    1       29.679  -2.266  24.286  0.00  0.00    -0.507 OA
ATOM      8  H   LIG    1       28.766  -2.579  24.179  0.00  0.00    +0.292 HD
ENDBRANCH   4   7
TORSDOF 1
ENDMDL
