MODEL 1
REMARK VINA RESULT:      -5.0      0.000      0.000
REMARK  Name = 
REMARK                            x       y       z     vdW  Elec       q    Type
REMARK                         _______ _______ _______ _____ _____    ______ ____
ROOT
ATOM      1  C   LIG    1       21.666 -14.638  16.531  0.00  0.00    +0.000 A 
ATOM      2  C   LIG    1       22.489 -15.761  16.433  0.00  0.00    +0.004 A 
ATOM      3  C   LIG    1       22.131 -16.944  17.078  0.00  0.00    +0.045 A 
ATOM      4  C   LIG    1       20.952 -16.997  17.815  0.00  0.00    +0.117 A 
ATOM      5  C   LIG    1       20.124 -15.884  17.918  0.00  0.00    +0.045 A 
ATOM      6  C   LIG    1       20.484 -14.699  17.272  0.00  0.00    +0.004 A 
ENDROOT
BRANCH   4   7
ATOM      7  O   LIG    1       20.641 -18.173  18.430  0.00  0.00    -0.507 OA
ATOM      8  H   LIG    1       21.284 -18.328  19.142  0.00  0.00    +0.292 HD
ENDBRANCH   4   7
TORSDOF 1
ENDMDL
MODEL 2
REMARK VINA RESULT:      -5.0      0.042      1.829
REMARK  Name = 
REMARK                            x       y       z     vdW  Elec       q    Type
REMARK                         _______ _______ _______ _____ _____    ______ ____
ROOT
ATOM      1  C   LIG    1       21.622 -14.623  16.543  0.00  0.00    +0.000 A 
ATOM      2  C   LIG    1       20.455 -14.724  17.301  0.00  0.00    +0.004 A 
ATOM      3  C   LIG    1       20.139 -15.924  17.937  0.00  0.00    +0.045 A 
ATOM      4  C   LIG    1       20.993 -17.015  17.811  0.00  0.00    +0.117 A 
ATOM      5  C   LIG    1       22.160 -16.925  17.059  0.00  0.00    +0.045 A 
ATOM      6  C   LIG    1       22.474 -15.723  16.422  0.00  0.00    +0.004 A 
ENDROOT
BRANCH   4   7
ATOM      7  O   LIG    1       20.645 -18.169  18.449  0.00  0.00    -0.507 OA
ATOM      8  H   LIG    1       20.528 -17.976  19.393  0.00  0.00    +0.292 HD
ENDBRANCH   4   7
TORSDOF 1
ENDMDL
MODEL 3
REMARK VINA RESULT:      -4.7      1.652      2.535
REMARK  Name = 
REMARK                            x       y       z     vdW  Elec       q    Type
REMARK                         _______ _______ _______ _____ _____    ______ ____
ROOT
ATOM      1  C   LIG    1       18.442 -14.755  18.038  0.00  0.00    +0.000 A 
ATOM      2  C   LIG    1       19.770 -14.954  17.660  0.00  0.00    +0.004 A 
ATOM      3  C   LIG    1       20.374 -16.194  17.864  0.00  0.00    +0.045 A 
ATOM      4  C   LIG    1       19.645 -17.227  18.444  0.00  0.00    +0.117 A 
ATOM      5  C   LIG    1       18.320 -17.041  18.823  0.00  0.00    +0.045 A 
ATOM      6  C   LIG    1       17.716 -15.798  18.619  0.00  0.00    +0.004 A 
ENDROOT
BRANCH   4   7
ATOM      7  O   LIG    1       20.275 -18.423  18.626  0.00  0.00    -0.507 OA
ATOM      8  H   LIG    1       20.046 -19.007  17.884  0.00  0.00    +0.292 HD
ENDBRANCH   4   7
TORSDOF 1
ENDMDL
MODEL 4
REMARK VINA RESULT:      -4.7      2.404      3.646
REMARK  Name = 
REMARK                            x       y       z     vdW  Elec       q    Type
REMARK                         _______ _______ _______ _____ _____    ______ ____
ROOT
ATOM      1  C   LIG    1       18.007 -14.937  18.356  0.00  0.00    +0.000 A 
ATOM      2  C   LIG    1       16.946 -15.839  18.434  0.00  0.00    +0.004 A 
ATOM      3  C   LIG    1       17.196 -17.211  18.426  0.00  0.00    +0.045 A 
ATOM      4  C   LIG    1       18.506 -17.670  18.340  0.00  0.00    +0.117 A 
ATOM      5  C   LIG    1       19.572 -16.780  18.263  0.00  0.00    +0.045 A 
ATOM      6  C   LIG    1       19.320 -15.406  18.270  0.00  0.00    +0.004 A 
ENDROOT
BRANCH   4   7
ATOM      7  O   LIG    1       18.706 -19.019  18.334  0.00  0.00    -0.507 OA
ATOM      8  H   LIG    1       17.845 -19.458  18.432  0.00  0.00    +0.292 HD
ENDBRANCH   4   7
TORSDOF 1
ENDMDL
MODEL 5
REMARK VINA RESULT:      -4.5      1.027      2.080
REMARK  Name = 
REMARK                            x       y       z     vdW  Elec       q    Type
REMARK                         _______ _______ _______ _____ _____    ______ ____
ROOT
ATOM      1  C   LIG    1       22.269 -15.347  16.473  0.00  0.00    +0.000 A 
ATOM      2  C   LIG    1       21.258 -14.405  16.664  0.00  0.00    +0.004 A 
ATOM      3  C   LIG    1       20.125 -14.740  17.405  0.00  0.00    +0.045 A 
ATOM      4  C   LIG    1       20.013 -16.014  17.952  0.00  0.00    +0.117 A 
ATOM      5  C   LIG    1       21.017 -16.960  17.769  0.00  0.00    +0.045 A 
ATOM      6  C   LIG    1       22.150 -16.624  17.025  0.00  0.00    +0.004 A 
ENDROOT
BRANCH   4   7
ATOM      7  O   LIG    1       18.889 -16.300  18.669  0.00  0.00    -0.507 OA
ATOM      8  H   LIG    1       18.905 -15.778  19.488  0.00  0.00    +0.292 HD
ENDBRANCH   4   7
TORSDOF 1
ENDMDL
MODEL 6
REMARK VINA RESULT:      -4.5      2.973      3.766
REMARK  Name = 
REMARK                            x       y       z     vdW  Elec       q    Type
REMARK                         _______ _______ _______ _____ _____    ______ ____
ROOT
ATOM      1  C   LIG    1       25.232 -16.883  16.435  0.00  0.00    +0.000 A 
ATOM      2  C   LIG    1       25.831 -17.960  17.089  0.00  0.00    +0.004 A 
ATOM      3  C   LIG    1       25.047 -19.017  17.551  0.00  0.00    +0.045 A 
ATOM      4  C   LIG    1       23.670 -18.989  17.355  0.00  0.00    +0.117 A 
ATOM      5  C   LIG    1       23.063 -17.920  16.703  0.00  0.00    +0.045 A 
ATOM      6  C   LIG    1       23.849 -16.862  16.242  0.00  0.00    +0.004 A 
ENDROOT
BRANCH   4   7
ATOM      7  O   LIG    1       22.941 -20.042  17.823  0.00  0.00    -0.507 OA
ATOM      8  H   LIG    1       23.285 -20.289  18.697  0.00  0.00    +0.292 HD
ENDBRANCH   4   7
TORSDOF 1
ENDMDL
MODEL 7
REMARK VINA RESULT:      -4.5      2.981      4.105
REMARK  Name = 
REMARK                            x       y       z     vdW  Elec       q    Type
REMARK                         _______ _______ _______ _____ _____    ______ ____
ROOT
ATOM      1  C   LIG    1       25.215 -16.884  16.442  0.00  0.00    +0.000 A 
ATOM      2  C   LIG    1       23.831 -16.891  16.269  0.00  0.00    +0.004 A 
ATOM      3  C   LIG    1       23.076 -17.966  16.739  0.00  0.00    +0.045 A 
ATOM      4  C   LIG    1       23.711 -19.025  17.379  0.00  0.00    +0.117 A 
ATOM      5  C   LIG    1       25.091 -19.027  17.558  0.00  0.00    +0.045 A 
ATOM      6  C   LIG    1       25.845 -17.951  17.086  0.00  0.00    +0.004 A 
ENDROOT
BRANCH   4   7
ATOM      7  O   LIG    1       22.935 -20.055  17.822  0.00  0.00    -0.507 OA
ATOM      8  H   LIG    1       23.511 -20.717  18.238  0.00  0.00    +0.292 HD
ENDBRANCH   4   7
TORSDOF 1
ENDMDL
MODEL 8
REMARK VINA RESULT:      -4.5      2.650      3.601
REMARK  Name = 
REMARK                            x       y       z     vdW  Elec       q    Type
REMARK                         _______ _______ _______ _____ _____    ______ ____
ROOT
ATOM      1  C   LIG    1       22.211 -15.907  16.174  0.00  0.00    +0.000 A 
ATOM      2  C   LIG    1       21.649 -14.728  16.665  0.00  0.00    +0.004 A 
ATOM      3  C   LIG    1       22.355 -13.949  17.581  0.00  0.00    +0.045 A 
ATOM      4  C   LIG    1       23.618 -14.354  17.999  0.00  0.00    +0.117 A 
ATOM      5  C   LIG    1       24.188 -15.527  17.516  0.00  0.00    +0.045 A 
ATOM      6  C   LIG    1       23.480 -16.307  16.599  0.00  0.00    +0.004 A 
ENDROOT
BRANCH   4   7
ATOM      7  O   LIG    1       24.273 -13.563  18.897  0.00  0.00    -0.507 OA
ATOM      8  H   LIG    1       24.009 -13.830  19.793  0.00  0.00    +0.292 HD
ENDBRANCH   4   7
TORSDOF 1
ENDMDL
MODEL 9
REMARK VINA RESULT:      -4.4      2.391      2.971
REMARK  Name = 
REMARK                            x       y       z     vdW  Elec       q    Type
REMARK                         _______ _______ _______ _____ _____    ______ ____
ROOT
ATOM      1  C   LIG    1       19.926 -15.211  17.823  0.00  0.00    +0.000 A 
ATOM      2  C   LIG    1       20.571 -14.460  16.840  0.00  0.00    +0.004 A 
ATOM      3  C   LIG    1       21.926 -14.160  16.969  0.00  0.00    +0.045 A 
ATOM      4  C   LIG    1       22.629 -14.616  18.080  0.00  0.00    +0.117 A 
ATOM      5  C   LIG    1       21.997 -15.367  19.066  0.00  0.00    +0.045 A 
ATOM      6  C   LIG    1       20.638 -15.665  18.936  0.00  0.00    +0.004 A 
ENDROOT
BRANCH   4   7
ATOM      7  O   LIG    1       23.952 -14.299  18.167  0.00  0.00    -0.507 OA
ATOM      8  H   LIG    1       24.286 -14.607  19.026  0.00  0.00    +0.292 HD
ENDBRANCH   4   7
TORSDOF 1
ENDMDL
