MODEL 1
REMARK VINA RESULT:      -5.1      0.000      0.000
REMARK  Name = 
REMARK                            x       y       z     vdW  Elec       q    Type
REMARK                         _______ _______ _______ _____ _____    ______ ____
ROOT
ATOM      1  C   LIG    1        2.710  29.794   4.552  0.00  0.00    +0.000 A 
ATOM      2  C   LIG    1        1.907  28.667   4.375  0.00  0.00    +0.004 A 
ATOM      3  C   LIG    1        2.366  27.413   4.777  0.00  0.00    +0.045 A 
ATOM      4  C   LIG    1        3.627  27.296   5.353  0.00  0.00    +0.117 A 
ATOM      5  C   LIG    1        4.436  28.413   5.535  0.00  0.00    +0.045 A 
ATOM      6  C   LIG    1        3.975  29.667   5.131  0.00  0.00    +0.004 A 
ENDROOT
BRANCH   4   7
ATOM      7  O   LIG    1        4.038  26.051   5.731  0.00  0.00    -0.507 OA
ATOM      8  H   LIG    1        4.507  26.126   6.579  0.00  0.00    +0.292 HD
ENDBRANCH   4   7
TORSDOF 1
ENDMDL
MODEL 2
REMARK VINA RESULT:      -5.1      0.053      1.829
REMARK  Name = 
REMARK                            x       y       z     vdW  Elec       q    Type
REMARK                         _______ _______ _______ _____ _____    ______ ____
ROOT
ATOM      1  C   LIG    1        2.708  29.834   4.585  0.00  0.00    +0.000 A 
ATOM      2  C   LIG    1        3.976  29.668   5.143  0.00  0.00    +0.004 A 
ATOM      3  C   LIG    1        4.410  28.397   5.517  0.00  0.00    +0.045 A 
ATOM      4  C   LIG    1        3.574  27.301   5.330  0.00  0.00    +0.117 A 
ATOM      5  C   LIG    1        2.308  27.456   4.774  0.00  0.00    +0.045 A 
ATOM      6  C   LIG    1        1.874  28.730   4.400  0.00  0.00    +0.004 A 
ENDROOT
BRANCH   4   7
ATOM      7  O   LIG    1        4.037  26.077   5.712  0.00  0.00    -0.507 OA
ATOM      8  H   LIG    1        3.824  25.436   5.013  0.00  0.00    +0.292 HD
ENDBRANCH   4   7
TORSDOF 1
ENDMDL
MODEL 3
REMARK VINA RESULT:      -5.0      8.187      9.413
REMARK  Name = 
REMARK                            x       y       z     vdW  Elec       q    Type
REMARK                         _______ _______ _______ _____ _____    ______ ____
ROOT
ATOM      1  C   LIG    1        4.630  21.933  13.411  0.00  0.00    +0.000 A 
ATOM      2  C   LIG    1        5.196  22.984  12.688  0.00  0.00    +0.004 A 
ATOM      3  C   LIG    1        4.743  23.268  11.401  0.00  0.00    +0.045 A 
ATOM      4  C   LIG    1        3.726  22.499  10.845  0.00  0.00    +0.117 A 
ATOM      5  C   LIG    1        3.153  21.449  11.557  0.00  0.00    +0.045 A 
ATOM      6  C   LIG    1        3.610  21.166  12.846  0.00  0.00    +0.004 A 
ENDROOT
BRANCH   4   7
ATOM      7  O   LIG    1        3.313  22.809   9.583  0.00  0.00    -0.507 OA
ATOM      8  H   LIG    1        2.815  23.643   9.618  0.00  0.00    +0.292 HD
ENDBRANCH   4   7
TORSDOF 1
ENDMDL
MODEL 4
REMARK VINA RESULT:      -4.7      7.702      8.683
REMARK  Name = 
REMARK                            x       y       z     vdW  Elec       q    Type
REMARK                         _______ _______ _______ _____ _____    ______ ____
ROOT
ATOM      1  C   LIG    1        3.376  23.181  10.151  0.00  0.00    +0.000 A 
ATOM      2  C   LIG    1        4.301  23.303  11.188  0.00  0.00    +0.004 A 
ATOM      3  C   LIG    1        5.133  22.231  11.508  0.00  0.00    +0.045 A 
ATOM      4  C   LIG    1        5.034  21.045  10.788  0.00  0.00    +0.117 A 
ATOM      5  C   LIG    1        4.116  20.913   9.751  0.00  0.00    +0.045 A 
ATOM      6  C   LIG    1        3.283  21.987   9.433  0.00  0.00    +0.004 A 
ENDROOT
BRANCH   4   7
ATOM      7  O   LIG    1        5.866  20.022  11.135  0.00  0.00    -0.507 OA
ATOM      8  H   LIG    1        6.662  20.397  11.546  0.00  0.00    +0.292 HD
ENDBRANCH   4   7
TORSDOF 1
ENDMDL
MODEL 5
REMARK VINA RESULT:      -4.6      8.550      9.626
REMARK  Name = 
REMARK                            x       y       z     vdW  Elec       q    Type
REMARK                         _______ _______ _______ _____ _____    ______ ____
ROOT
ATOM      1  C   LIG    1        3.296  22.054  10.730  0.00  0.00    +0.000 A 
ATOM      2  C   LIG    1        4.328  22.993  10.770  0.00  0.00    +0.004 A 
ATOM      3  C   LIG    1        5.135  23.092  11.902  0.00  0.00    +0.045 A 
ATOM      4  C   LIG    1        4.906  22.250  12.986  0.00  0.00    +0.117 A 
ATOM      5  C   LIG    1        3.882  21.310  12.956  0.00  0.00    +0.045 A 
ATOM      6  C   LIG    1        3.073  21.213  11.822  0.00  0.00    +0.004 A 
ENDROOT
BRANCH   4   7
ATOM      7  O   LIG    1        5.719  22.381  14.074  0.00  0.00    -0.507 OA
ATOM      8  H   LIG    1        5.645  23.291  14.405  0.00  0.00    +0.292 HD
ENDBRANCH   4   7
TORSDOF 1
ENDMDL
MODEL 6
REMARK VINA RESULT:      -4.6      8.415      8.653
REMARK  Name = 
REMARK                            x       y       z     vdW  Elec       q    Type
REMARK                         _______ _______ _______ _____ _____    ______ ____
ROOT
ATOM      1  C   LIG    1        1.744  21.392  10.131  0.00  0.00    +0.000 A 
ATOM      2  C   LIG    1        3.031  21.578  10.637  0.00  0.00    +0.004 A 
ATOM      3  C   LIG    1        4.139  21.215   9.872  0.00  0.00    +0.045 A 
ATOM      4  C   LIG    1        3.952  20.669   8.607  0.00  0.00    +0.117 A 
ATOM      5  C   LIG    1        2.674  20.480   8.092  0.00  0.00    +0.045 A 
ATOM      6  C   LIG    1        1.565  20.844   8.859  0.00  0.00    +0.004 A 
ENDROOT
BRANCH   4   7
ATOM      7  O   LIG    1        5.063  20.326   7.893  0.00  0.00    -0.507 OA
ATOM      8  H   LIG    1        5.756  20.051   8.516  0.00  0.00    +0.292 HD
ENDBRANCH   4   7
TORSDOF 1
ENDMDL
MODEL 7
REMARK VINA RESULT:      -4.6      8.407      8.487
REMARK  Name = 
REMARK                            x       y       z     vdW  Elec       q    Type
REMARK                         _______ _______ _______ _____ _____    ______ ____
ROOT
ATOM      1  C   LIG    1        1.736  21.383  10.142  0.00  0.00    +0.000 A 
ATOM      2  C   LIG    1        1.572  20.846   8.865  0.00  0.00    +0.004 A 
ATOM      3  C   LIG    1        2.690  20.496   8.108  0.00  0.00    +0.045 A 
ATOM      4  C   LIG    1        3.964  20.686   8.634  0.00  0.00    +0.117 A 
ATOM      5  C   LIG    1        4.138  21.220   9.907  0.00  0.00    +0.045 A 
ATOM      6  C   LIG    1        3.018  21.570  10.663  0.00  0.00    +0.004 A 
ENDROOT
BRANCH   4   7
ATOM      7  O   LIG    1        5.029  20.332   7.860  0.00  0.00    -0.507 OA
ATOM      8  H   LIG    1        5.791  20.876   8.118  0.00  0.00    +0.292 HD
ENDBRANCH   4   7
TORSDOF 1
ENDMDL
MODEL 8
REMARK VINA RESULT:      -4.6      1.930      2.647
REMARK  Name = 
REMARK                            x       y       z     vdW  Elec       q    Type
REMARK                         _______ _______ _______ _____ _____    ______ ____
ROOT
ATOM      1  C   LIG    1        4.047  28.567   5.354  0.00  0.00    +0.000 A 
ATOM      2  C   LIG    1        3.299  27.397   5.483  0.00  0.00    +0.004 A 
ATOM      3  C   LIG    1        1.936  27.405   5.188  0.00  0.00    +0.045 A 
ATOM      4  C   LIG    1        1.331  28.585   4.765  0.00  0.00    +0.117 A 
ATOM      5  C   LIG    1        2.068  29.757   4.632  0.00  0.00    +0.045 A 
ATOM      6  C   LIG    1        3.433  29.747   4.929  0.00  0.00    +0.004 A 
ENDROOT
BRANCH   4   7
ATOM      7  O   LIG    1       -0.003  28.549   4.488  0.00  0.00    -0.507 OA
ATOM      8  H   LIG    1       -0.297  27.623   4.504  0.00  0.00    +0.292 HD
ENDBRANCH   4   7
TORSDOF 1
ENDMDL
MODEL 9
REMARK VINA RESULT:      -4.5      7.097      8.367
REMARK  Name = 
REMARK                            x       y       z     vdW  Elec       q    Type
REMARK                         _______ _______ _______ _____ _____    ______ ____
ROOT
ATOM      1  C   LIG    1        4.931  21.966  11.599  0.00  0.00    +0.000 A 
ATOM      2  C   LIG    1        4.327  23.108  11.072  0.00  0.00    +0.004 A 
ATOM      3  C   LIG    1        3.869  23.109   9.755  0.00  0.00    +0.045 A 
ATOM      4  C   LIG    1        4.018  21.967   8.974  0.00  0.00    +0.117 A 
ATOM      5  C   LIG    1        4.618  20.823   9.490  0.00  0.00    +0.045 A 
ATOM      6  C   LIG    1        5.077  20.824  10.808  0.00  0.00    +0.004 A 
ENDROOT
BRANCH   4   7
ATOM      7  O   LIG    1        3.557  22.012   7.691  0.00  0.00    -0.507 OA
ATOM      8  H   LIG    1        3.301  21.113   7.425  0.00  0.00    +0.292 HD
ENDBRANCH   4   7
TORSDOF 1
ENDMDL
