MODEL 1
REMARK VINA RESULT:      -4.8      0.000      0.000
REMARK  Name = 
REMARK                            x       y       z     vdW  Elec       q    Type
REMARK                         _______ _______ _______ _____ _____    ______ ____
ROOT
ATOM      1  C   LIG    1       25.391 -25.842 -11.834  0.00  0.00    +0.000 A 
ATOM      2  C   LIG    1       24.224 -25.081 -11.898  0.00  0.00    +0.004 A 
ATOM      3  C   LIG    1       24.295 -23.720 -12.192  0.00  0.00    +0.045 A 
ATOM      4  C   LIG    1       25.533 -23.130 -12.422  0.00  0.00    +0.117 A 
ATOM      5  C   LIG    1       26.704 -23.880 -12.363  0.00  0.00    +0.045 A 
ATOM      6  C   LIG    1       26.631 -25.243 -12.067  0.00  0.00    +0.004 A 
ENDROOT
BRANCH   4   7
ATOM      7  O   LIG    1       25.557 -21.796 -12.706  0.00  0.00    -0.507 OA
ATOM      8  H   LIG    1       25.744 -21.686 -13.652  0.00  0.00    +0.292 HD
ENDBRANCH   4   7
TORSDOF 1
ENDMDL
MODEL 2
REMARK VINA RESULT:      -4.8      0.058      1.830
REMARK  Name = 
REMARK                            x       y       z     vdW  Elec       q    Type
REMARK                         _______ _______ _______ _____ _____    ______ ____
ROOT
ATOM      1  C   LIG    1       25.397 -25.824 -11.769  0.00  0.00    +0.000 A 
ATOM      2  C   LIG    1       26.620 -25.203 -12.023  0.00  0.00    +0.004 A 
ATOM      3  C   LIG    1       26.659 -23.847 -12.346  0.00  0.00    +0.045 A 
ATOM      4  C   LIG    1       25.474 -23.121 -12.411  0.00  0.00    +0.117 A 
ATOM      5  C   LIG    1       24.249 -23.730 -12.158  0.00  0.00    +0.045 A 
ATOM      6  C   LIG    1       24.212 -25.088 -11.836  0.00  0.00    +0.004 A 
ENDROOT
BRANCH   4   7
ATOM      7  O   LIG    1       25.557 -21.798 -12.732  0.00  0.00    -0.507 OA
ATOM      8  H   LIG    1       26.190 -21.375 -12.129  0.00  0.00    +0.292 HD
ENDBRANCH   4   7
TORSDOF 1
ENDMDL
MODEL 3
REMARK VINA RESULT:      -4.8      1.746      2.479
REMARK  Name = 
REMARK                            x       y       z     vdW  Elec       q    Type
REMARK                         _______ _______ _______ _____ _____    ______ ____
ROOT
ATOM      1  C   LIG    1       24.304 -23.941 -11.942  0.00  0.00    +0.000 A 
ATOM      2  C   LIG    1       24.968 -25.015 -11.350  0.00  0.00    +0.004 A 
ATOM      3  C   LIG    1       26.243 -25.372 -11.787  0.00  0.00    +0.045 A 
ATOM      4  C   LIG    1       26.845 -24.652 -12.814  0.00  0.00    +0.117 A 
ATOM      5  C   LIG    1       26.192 -23.578 -13.411  0.00  0.00    +0.045 A 
ATOM      6  C   LIG    1       24.914 -23.223 -12.972  0.00  0.00    +0.004 A 
ENDROOT
BRANCH   4   7
ATOM      7  O   LIG    1       28.092 -25.035 -13.212  0.00  0.00    -0.507 OA
ATOM      8  H   LIG    1       28.240 -24.709 -14.114  0.00  0.00    +0.292 HD
ENDBRANCH   4   7
TORSDOF 1
ENDMDL
MODEL 4
REMARK VINA RESULT:      -4.8      1.739      2.462
REMARK  Name = 
REMARK                            x       y       z     vdW  Elec       q    Type
REMARK                         _______ _______ _______ _____ _____    ______ ____
ROOT
ATOM      1  C   LIG    1       24.291 -23.955 -11.929  0.00  0.00    +0.000 A 
ATOM      2  C   LIG    1       24.917 -23.251 -12.959  0.00  0.00    +0.004 A 
ATOM      3  C   LIG    1       26.195 -23.621 -13.378  0.00  0.00    +0.045 A 
ATOM      4  C   LIG    1       26.837 -24.691 -12.764  0.00  0.00    +0.117 A 
ATOM      5  C   LIG    1       26.221 -25.401 -11.738  0.00  0.00    +0.045 A 
ATOM      6  C   LIG    1       24.942 -25.029 -11.319  0.00  0.00    +0.004 A 
ENDROOT
BRANCH   4   7
ATOM      7  O   LIG    1       28.086 -25.018 -13.204  0.00  0.00    -0.507 OA
ATOM      8  H   LIG    1       28.731 -24.452 -12.749  0.00  0.00    +0.292 HD
ENDBRANCH   4   7
TORSDOF 1
ENDMDL
MODEL 5
REMARK VINA RESULT:      -4.7      7.737      8.600
REMARK  Name = 
REMARK                            x       y       z     vdW  Elec       q    Type
REMARK                         _______ _______ _______ _____ _____    ______ ____
ROOT
ATOM      1  C   LIG    1       27.862 -15.918  -8.533  0.00  0.00    +0.000 A 
ATOM      2  C   LIG    1       28.672 -16.657  -9.395  0.00  0.00    +0.004 A 
ATOM      3  C   LIG    1       28.199 -17.019 -10.656  0.00  0.00    +0.045 A 
ATOM      4  C   LIG    1       26.919 -16.637 -11.046  0.00  0.00    +0.117 A 
ATOM      5  C   LIG    1       26.104 -15.899 -10.194  0.00  0.00    +0.045 A 
ATOM      6  C   LIG    1       26.579 -15.538  -8.931  0.00  0.00    +0.004 A 
ENDROOT
BRANCH   4   7
ATOM      7  O   LIG    1       26.495 -17.013 -12.286  0.00  0.00    -0.507 OA
ATOM      8  H   LIG    1       27.275 -17.163 -12.846  0.00  0.00    +0.292 HD
ENDBRANCH   4   7
TORSDOF 1
ENDMDL
MODEL 6
REMARK VINA RESULT:      -4.5      2.178      2.731
REMARK  Name = 
REMARK                            x       y       z     vdW  Elec       q    Type
REMARK                         _______ _______ _______ _____ _____    ______ ____
ROOT
ATOM      1  C   LIG    1       24.657 -23.515 -12.503  0.00  0.00    +0.000 A 
ATOM      2  C   LIG    1       23.882 -24.258 -11.613  0.00  0.00    +0.004 A 
ATOM      3  C   LIG    1       24.475 -25.248 -10.830  0.00  0.00    +0.045 A 
ATOM      4  C   LIG    1       25.841 -25.488 -10.944  0.00  0.00    +0.117 A 
ATOM      5  C   LIG    1       26.624 -24.752 -11.827  0.00  0.00    +0.045 A 
ATOM      6  C   LIG    1       26.028 -23.761 -12.611  0.00  0.00    +0.004 A 
ENDROOT
BRANCH   4   7
ATOM      7  O   LIG    1       26.380 -26.466 -10.161  0.00  0.00    -0.507 OA
ATOM      8  H   LIG    1       27.051 -26.064  -9.586  0.00  0.00    +0.292 HD
ENDBRANCH   4   7
TORSDOF 1
ENDMDL
MODEL 7
REMARK VINA RESULT:      -4.5      7.995      8.654
REMARK  Name = 
REMARK                            x       y       z     vdW  Elec       q    Type
REMARK                         _______ _______ _______ _____ _____    ______ ____
ROOT
ATOM      1  C   LIG    1       28.525 -16.785  -9.343  0.00  0.00    +0.000 A 
ATOM      2  C   LIG    1       27.730 -15.995  -8.513  0.00  0.00    +0.004 A 
ATOM      3  C   LIG    1       26.542 -15.450  -8.999  0.00  0.00    +0.045 A 
ATOM      4  C   LIG    1       26.157 -15.700 -10.312  0.00  0.00    +0.117 A 
ATOM      5  C   LIG    1       26.942 -16.488 -11.148  0.00  0.00    +0.045 A 
ATOM      6  C   LIG    1       28.132 -17.032 -10.660  0.00  0.00    +0.004 A 
ENDROOT
BRANCH   4   7
ATOM      7  O   LIG    1       24.989 -15.147 -10.748  0.00  0.00    -0.507 OA
ATOM      8  H   LIG    1       24.753 -15.556 -11.596  0.00  0.00    +0.292 HD
ENDBRANCH   4   7
TORSDOF 1
ENDMDL
MODEL 8
REMARK VINA RESULT:      -4.5      8.050      8.222
REMARK  Name = 
REMARK                            x       y       z     vdW  Elec       q    Type
REMARK                         _______ _______ _______ _____ _____    ______ ____
ROOT
ATOM      1  C   LIG    1       29.048 -16.763 -10.787  0.00  0.00    +0.000 A 
ATOM      2  C   LIG    1       28.094 -16.393 -11.734  0.00  0.00    +0.004 A 
ATOM      3  C   LIG    1       26.751 -16.298 -11.370  0.00  0.00    +0.045 A 
ATOM      4  C   LIG    1       26.373 -16.572 -10.059  0.00  0.00    +0.117 A 
ATOM      5  C   LIG    1       27.317 -16.941  -9.106  0.00  0.00    +0.045 A 
ATOM      6  C   LIG    1       28.661 -17.037  -9.473  0.00  0.00    +0.004 A 
ENDROOT
BRANCH   4   7
ATOM      7  O   LIG    1       25.050 -16.468  -9.745  0.00  0.00    -0.507 OA
ATOM      8  H   LIG    1       24.946 -16.627  -8.793  0.00  0.00    +0.292 HD
ENDBRANCH   4   7
TORSDOF 1
ENDMDL
MODEL 9
REMARK VINA RESULT:      -4.5      7.803      7.979
REMARK  Name = 
REMARK                            x       y       z     vdW  Elec       q    Type
REMARK                         _______ _______ _______ _____ _____    ______ ____
ROOT
ATOM      1  C   LIG    1       26.959 -17.197  -9.311  0.00  0.00    +0.000 A 
ATOM      2  C   LIG    1       26.227 -16.816 -10.436  0.00  0.00    +0.004 A 
ATOM      3  C   LIG    1       26.890 -16.461 -11.610  0.00  0.00    +0.045 A 
ATOM      4  C   LIG    1       28.280 -16.491 -11.651  0.00  0.00    +0.117 A 
ATOM      5  C   LIG    1       29.020 -16.870 -10.535  0.00  0.00    +0.045 A 
ATOM      6  C   LIG    1       28.354 -17.225  -9.360  0.00  0.00    +0.004 A 
ENDROOT
BRANCH   4   7
ATOM      7  O   LIG    1       28.889 -16.135 -12.818  0.00  0.00    -0.507 OA
ATOM      8  H   LIG    1       28.202 -15.959 -13.482  0.00  0.00    +0.292 HD
ENDBRANCH   4   7
TORSDOF 1
ENDMDL
