MODEL 1
REMARK VINA RESULT:      -4.9      0.000      0.000
REMARK  Name = 
REMARK                            x       y       z     vdW  Elec       q    Type
REMARK                         _______ _______ _______ _____ _____    ______ ____
ROOT
ATOM      1  C   LIG    1       17.398  49.516  17.553  0.00  0.00    +0.000 A 
ATOM      2  C   LIG    1       16.959  48.193  17.617  0.00  0.00    +0.004 A 
ATOM      3  C   LIG    1       16.152  47.778  18.676  0.00  0.00    +0.045 A 
ATOM      4  C   LIG    1       15.789  48.690  19.662  0.00  0.00    +0.117 A 
ATOM      5  C   LIG    1       16.220  50.011  19.607  0.00  0.00    +0.045 A 
ATOM      6  C   LIG    1       17.029  50.425  18.546  0.00  0.00    +0.004 A 
ENDROOT
BRANCH   4   7
ATOM      7  O   LIG    1       14.999  48.242  20.680  0.00  0.00    -0.507 OA
ATOM      8  H   LIG    1       14.226  48.825  20.749  0.00  0.00    +0.292 HD
ENDBRANCH   4   7
TORSDOF 1
ENDMDL
MODEL 2
REMARK VINA RESULT:      -4.9      0.040      1.829
REMARK  Name = 
REMARK                            x       y       z     vdW  Elec       q    Type
REMARK                         _______ _______ _______ _____ _____    ______ ____
ROOT
ATOM      1  C   LIG    1       17.404  49.502  17.552  0.00  0.00    +0.000 A 
ATOM      2  C   LIG    1       17.029  50.393  18.558  0.00  0.00    +0.004 A 
ATOM      3  C   LIG    1       16.221  49.958  19.608  0.00  0.00    +0.045 A 
ATOM      4  C   LIG    1       15.793  48.634  19.644  0.00  0.00    +0.117 A 
ATOM      5  C   LIG    1       16.162  47.738  18.646  0.00  0.00    +0.045 A 
ATOM      6  C   LIG    1       16.971  48.175  17.595  0.00  0.00    +0.004 A 
ENDROOT
BRANCH   4   7
ATOM      7  O   LIG    1       15.003  48.251  20.687  0.00  0.00    -0.507 OA
ATOM      8  H   LIG    1       15.575  48.023  21.439  0.00  0.00    +0.292 HD
ENDBRANCH   4   7
TORSDOF 1
ENDMDL
MODEL 3
REMARK VINA RESULT:      -4.8      1.631      2.430
REMARK  Name = 
REMARK                            x       y       z     vdW  Elec       q    Type
REMARK                         _______ _______ _______ _____ _____    ______ ____
ROOT
ATOM      1  C   LIG    1       16.652  47.758  17.556  0.00  0.00    +0.000 A 
ATOM      2  C   LIG    1       17.320  48.809  16.927  0.00  0.00    +0.004 A 
ATOM      3  C   LIG    1       17.556  49.997  17.617  0.00  0.00    +0.045 A 
ATOM      4  C   LIG    1       17.122  50.126  18.933  0.00  0.00    +0.117 A 
ATOM      5  C   LIG    1       16.455  49.084  19.570  0.00  0.00    +0.045 A 
ATOM      6  C   LIG    1       16.220  47.895  18.876  0.00  0.00    +0.004 A 
ENDROOT
BRANCH   4   7
ATOM      7  O   LIG    1       17.371  51.305  19.571  0.00  0.00    -0.507 OA
ATOM      8  H   LIG    1       18.015  51.141  20.280  0.00  0.00    +0.292 HD
ENDBRANCH   4   7
TORSDOF 1
ENDMDL
MODEL 4
REMARK VINA RESULT:      -4.8      1.610      2.364
REMARK  Name = 
REMARK                            x       y       z     vdW  Elec       q    Type
REMARK                         _______ _______ _______ _____ _____    ______ ____
ROOT
ATOM      1  C   LIG    1       16.725  47.825  17.455  0.00  0.00    +0.000 A 
ATOM      2  C   LIG    1       16.271  47.914  18.771  0.00  0.00    +0.004 A 
ATOM      3  C   LIG    1       16.487  49.079  19.506  0.00  0.00    +0.045 A 
ATOM      4  C   LIG    1       17.156  50.148  18.918  0.00  0.00    +0.117 A 
ATOM      5  C   LIG    1       17.612  50.071  17.606  0.00  0.00    +0.045 A 
ATOM      6  C   LIG    1       17.396  48.902  16.873  0.00  0.00    +0.004 A 
ENDROOT
BRANCH   4   7
ATOM      7  O   LIG    1       17.348  51.268  19.672  0.00  0.00    -0.507 OA
ATOM      8  H   LIG    1       16.481  51.662  19.864  0.00  0.00    +0.292 HD
ENDBRANCH   4   7
TORSDOF 1
ENDMDL
MODEL 5
REMARK VINA RESULT:      -4.7      9.610     10.166
REMARK  Name = 
REMARK                            x       y       z     vdW  Elec       q    Type
REMARK                         _______ _______ _______ _____ _____    ______ ____
ROOT
ATOM      1  C   LIG    1       15.422  47.660  28.038  0.00  0.00    +0.000 A 
ATOM      2  C   LIG    1       14.185  48.305  28.064  0.00  0.00    +0.004 A 
ATOM      3  C   LIG    1       13.021  47.569  28.284  0.00  0.00    +0.045 A 
ATOM      4  C   LIG    1       13.102  46.194  28.476  0.00  0.00    +0.117 A 
ATOM      5  C   LIG    1       14.331  45.541  28.453  0.00  0.00    +0.045 A 
ATOM      6  C   LIG    1       15.496  46.279  28.231  0.00  0.00    +0.004 A 
ENDROOT
BRANCH   4   7
ATOM      7  O   LIG    1       11.940  45.513  28.686  0.00  0.00    -0.507 OA
ATOM      8  H   LIG    1       11.354  45.662  27.926  0.00  0.00    +0.292 HD
ENDBRANCH   4   7
TORSDOF 1
ENDMDL
MODEL 6
REMARK VINA RESULT:      -4.7      1.757      2.399
REMARK  Name = 
REMARK                            x       y       z     vdW  Elec       q    Type
REMARK                         _______ _______ _______ _____ _____    ______ ____
ROOT
ATOM      1  C   LIG    1       16.593  49.922  19.342  0.00  0.00    +0.000 A 
ATOM      2  C   LIG    1       15.611  48.952  19.546  0.00  0.00    +0.004 A 
ATOM      3  C   LIG    1       15.884  47.614  19.263  0.00  0.00    +0.045 A 
ATOM      4  C   LIG    1       17.138  47.256  18.777  0.00  0.00    +0.117 A 
ATOM      5  C   LIG    1       18.125  48.215  18.572  0.00  0.00    +0.045 A 
ATOM      6  C   LIG    1       17.849  49.554  18.855  0.00  0.00    +0.004 A 
ENDROOT
BRANCH   4   7
ATOM      7  O   LIG    1       17.362  45.938  18.512  0.00  0.00    -0.507 OA
ATOM      8  H   LIG    1       17.799  45.538  19.282  0.00  0.00    +0.292 HD
ENDBRANCH   4   7
TORSDOF 1
ENDMDL
MODEL 7
REMARK VINA RESULT:      -4.7      1.737      2.449
REMARK  Name = 
REMARK                            x       y       z     vdW  Elec       q    Type
REMARK                         _______ _______ _______ _____ _____    ______ ____
ROOT
ATOM      1  C   LIG    1       16.632  49.990  19.386  0.00  0.00    +0.000 A 
ATOM      2  C   LIG    1       17.864  49.560  18.892  0.00  0.00    +0.004 A 
ATOM      3  C   LIG    1       18.060  48.213  18.589  0.00  0.00    +0.045 A 
ATOM      4  C   LIG    1       17.023  47.306  18.782  0.00  0.00    +0.117 A 
ATOM      5  C   LIG    1       15.790  47.725  19.273  0.00  0.00    +0.045 A 
ATOM      6  C   LIG    1       15.596  49.074  19.577  0.00  0.00    +0.004 A 
ENDROOT
BRANCH   4   7
ATOM      7  O   LIG    1       17.257  45.999  18.474  0.00  0.00    -0.507 OA
ATOM      8  H   LIG    1       16.516  45.466  18.806  0.00  0.00    +0.292 HD
ENDBRANCH   4   7
TORSDOF 1
ENDMDL
MODEL 8
REMARK VINA RESULT:      -4.7      9.533      9.709
REMARK  Name = 
REMARK                            x       y       z     vdW  Elec       q    Type
REMARK                         _______ _______ _______ _____ _____    ______ ____
ROOT
ATOM      1  C   LIG    1       15.060  49.665  28.239  0.00  0.00    +0.000 A 
ATOM      2  C   LIG    1       13.695  49.400  28.130  0.00  0.00    +0.004 A 
ATOM      3  C   LIG    1       13.244  48.081  28.070  0.00  0.00    +0.045 A 
ATOM      4  C   LIG    1       14.163  47.038  28.120  0.00  0.00    +0.117 A 
ATOM      5  C   LIG    1       15.527  47.291  28.230  0.00  0.00    +0.045 A 
ATOM      6  C   LIG    1       15.976  48.612  28.289  0.00  0.00    +0.004 A 
ENDROOT
BRANCH   4   7
ATOM      7  O   LIG    1       13.680  45.764  28.058  0.00  0.00    -0.507 OA
ATOM      8  H   LIG    1       13.050  45.637  28.786  0.00  0.00    +0.292 HD
ENDBRANCH   4   7
TORSDOF 1
ENDMDL
MODEL 9
REMARK VINA RESULT:      -4.6      9.443      9.660
REMARK  Name = 
REMARK                            x       y       z     vdW  Elec       q    Type
REMARK                         _______ _______ _______ _____ _____    ______ ____
ROOT
ATOM      1  C   LIG    1       15.996  48.457  28.234  0.00  0.00    +0.000 A 
ATOM      2  C   LIG    1       15.327  49.679  28.314  0.00  0.00    +0.004 A 
ATOM      3  C   LIG    1       13.942  49.726  28.161  0.00  0.00    +0.045 A 
ATOM      4  C   LIG    1       13.236  48.550  27.929  0.00  0.00    +0.117 A 
ATOM      5  C   LIG    1       13.892  47.326  27.848  0.00  0.00    +0.045 A 
ATOM      6  C   LIG    1       15.280  47.281  28.001  0.00  0.00    +0.004 A 
ENDROOT
BRANCH   4   7
ATOM      7  O   LIG    1       11.883  48.641  27.784  0.00  0.00    -0.507 OA
ATOM      8  H   LIG    1       11.492  47.776  27.990  0.00  0.00    +0.292 HD
ENDBRANCH   4   7
TORSDOF 1
ENDMDL
