MODEL 1
REMARK VINA RESULT:      -7.4      0.000      0.000
REMARK  Name = 
REMARK                            x       y       z     vdW  Elec       q    Type
REMARK                         _______ _______ _______ _____ _____    ______ ____
ROOT
ATOM      1  C   LIG    1       -9.569  -1.746  12.093  0.00  0.00    +0.352 C 
ENDROOT
BRANCH   1   4
ATOM      2  O   LIG    1       -7.727  -1.772   9.853  0.00  0.00    -0.270 OA
ATOM      3  C   LIG    1       -8.436  -2.718  10.143  0.00  0.00    +0.252 C 
ATOM      4  N   LIG    1       -9.334  -2.823  11.157  0.00  0.00    -0.200 N 
ATOM      5  C   LIG    1       -9.934  -4.043  11.139  0.00  0.00    +0.252 C 
ATOM      6  O   LIG    1      -10.784  -4.523  11.866  0.00  0.00    -0.270 OA
ATOM      7  C   LIG    1       -9.355  -4.776  10.008  0.00  0.00    +0.023 C 
ATOM      8  C   LIG    1       -9.711  -6.148   9.614  0.00  0.00    +0.041 C 
ATOM      9  C   LIG    1       -8.892  -6.690   8.436  0.00  0.00    +0.005 C 
ATOM     10  C   LIG    1       -7.947  -5.743   7.673  0.00  0.00    +0.005 C 
ATOM     11  C   LIG    1       -7.645  -4.348   8.245  0.00  0.00    +0.041 C 
ATOM     12  C   LIG    1       -8.461  -3.992   9.417  0.00  0.00    +0.023 C 
ENDBRANCH   1   4
BRANCH   1  13
ATOM     13  O   LIG    1       -9.257  -2.171  13.409  0.00  0.00    -0.444 OA
BRANCH  13  14
ATOM     14  C   LIG    1       -8.070  -2.799  13.547  0.00  0.00    +0.313 C 
ATOM     15  O   LIG    1       -6.996  -2.407  13.114  0.00  0.00    -0.250 OA
BRANCH  14  16
ATOM     16  C   LIG    1       -8.246  -4.023  14.363  0.00  0.00    +0.111 C 
ATOM     17  C   LIG    1       -7.191  -4.671  15.245  0.00  0.00    -0.014 C 
ATOM     18  C   LIG    1       -7.687  -5.346  16.506  0.00  0.00    +0.012 C 
ATOM     19  C   LIG    1       -5.830  -4.045  15.421  0.00  0.00    +0.012 C 
ATOM     20  C   LIG    1       -7.593  -5.326  13.934  0.00  0.00    +0.032 C 
BRANCH  20  21
ATOM     21  C   LIG    1       -6.712  -5.347  12.755  0.00  0.00    -0.023 C 
ATOM     22  C   LIG    1       -6.647  -6.311  11.814  0.00  0.00    -0.079 C 
ATOM     23  C   LIG    1       -5.698  -6.203  10.651  0.00  0.00    +0.038 C 
ATOM     24  C   LIG    1       -7.483  -7.562  11.828  0.00  0.00    +0.038 C 
ENDBRANCH  20  21
ENDBRANCH  14  16
ENDBRANCH  13  14
ENDBRANCH   1  13
TORSDOF 5
ENDMDL
MODEL 2
REMARK VINA RESULT:      -7.2      2.069      4.820
REMARK  Name = 
REMARK                            x       y       z     vdW  Elec       q    Type
REMARK                         _______ _______ _______ _____ _____    ______ ____
ROOT
ATOM      1  C   LIG    1       -8.898  -5.708   8.651  0.00  0.00    +0.352 C 
ENDROOT
BRANCH   1   4
ATOM      2  O   LIG    1      -10.415  -5.880  11.118  0.00  0.00    -0.270 OA
ATOM      3  C   LIG    1       -9.837  -4.870  10.760  0.00  0.00    +0.252 C 
ATOM      4  N   LIG    1       -9.105  -4.667   9.635  0.00  0.00    -0.200 N 
ATOM      5  C   LIG    1       -8.627  -3.394   9.598  0.00  0.00    +0.252 C 
ATOM      6  O   LIG    1       -7.940  -2.825   8.770  0.00  0.00    -0.270 OA
ATOM      7  C   LIG    1       -9.103  -2.735  10.818  0.00  0.00    +0.023 C 
ATOM      8  C   LIG    1       -8.819  -1.342  11.197  0.00  0.00    +0.041 C 
ATOM      9  C   LIG    1       -9.383  -0.941  12.565  0.00  0.00    +0.005 C 
ATOM     10  C   LIG    1      -10.315  -1.913  13.314  0.00  0.00    +0.005 C 
ATOM     11  C   LIG    1      -10.470  -3.356  12.809  0.00  0.00    +0.041 C 
ATOM     12  C   LIG    1       -9.818  -3.612  11.514  0.00  0.00    +0.023 C 
ENDBRANCH   1   4
BRANCH   1  13
ATOM     13  O   LIG    1       -7.909  -6.615   9.108  0.00  0.00    -0.444 OA
BRANCH  13  14
ATOM     14  C   LIG    1       -6.635  -6.182   9.006  0.00  0.00    +0.313 C 
ATOM     15  O   LIG    1       -6.246  -5.256   8.310  0.00  0.00    -0.250 OA
BRANCH  14  16
ATOM     16  C   LIG    1       -5.769  -6.964   9.919  0.00  0.00    +0.111 C 
ATOM     17  C   LIG    1       -6.221  -7.711  11.163  0.00  0.00    -0.014 C 
ATOM     18  C   LIG    1       -5.477  -8.988  11.491  0.00  0.00    +0.012 C 
ATOM     19  C   LIG    1       -7.679  -7.776  11.547  0.00  0.00    +0.012 C 
ATOM     20  C   LIG    1       -5.429  -6.422  11.297  0.00  0.00    +0.032 C 
BRANCH  20  21
ATOM     21  C   LIG    1       -6.034  -5.162  11.756  0.00  0.00    -0.023 C 
ATOM     22  C   LIG    1       -5.823  -4.548  12.938  0.00  0.00    -0.079 C 
ATOM     23  C   LIG    1       -6.509  -3.252  13.278  0.00  0.00    +0.038 C 
ATOM     24  C   LIG    1       -4.914  -5.079  14.013  0.00  0.00    +0.038 C 
ENDBRANCH  20  21
ENDBRANCH  14  16
ENDBRANCH  13  14
ENDBRANCH   1  13
TORSDOF 5
ENDMDL
MODEL 3
REMARK VINA RESULT:      -7.2      2.229      5.872
REMARK  Name = 
REMARK                            x       y       z     vdW  Elec       q    Type
REMARK                         _______ _______ _______ _____ _____    ______ ____
ROOT
ATOM      1  C   LIG    1       -6.013  -6.689  10.515  0.00  0.00    +0.352 C 
ENDROOT
BRANCH   1   4
ATOM      2  O   LIG    1       -3.834  -5.496  12.013  0.00  0.00    -0.270 OA
ATOM      3  C   LIG    1       -4.969  -5.586  12.445  0.00  0.00    +0.252 C 
ATOM      4  N   LIG    1       -6.063  -6.123  11.846  0.00  0.00    -0.200 N 
ATOM      5  C   LIG    1       -7.146  -6.037  12.664  0.00  0.00    +0.252 C 
ATOM      6  O   LIG    1       -8.296  -6.399  12.501  0.00  0.00    -0.270 OA
ATOM      7  C   LIG    1       -6.689  -5.381  13.893  0.00  0.00    +0.023 C 
ATOM      8  C   LIG    1       -7.535  -5.078  15.058  0.00  0.00    +0.041 C 
ATOM      9  C   LIG    1       -6.808  -4.320  16.175  0.00  0.00    +0.005 C 
ATOM     10  C   LIG    1       -5.284  -4.112  16.081  0.00  0.00    +0.005 C 
ATOM     11  C   LIG    1       -4.553  -4.441  14.770  0.00  0.00    +0.041 C 
ATOM     12  C   LIG    1       -5.396  -5.107  13.764  0.00  0.00    +0.023 C 
ENDBRANCH   1   4
BRANCH   1  13
ATOM     13  O   LIG    1       -6.387  -5.712   9.559  0.00  0.00    -0.444 OA
BRANCH  13  14
ATOM     14  C   LIG    1       -7.658  -5.795   9.114  0.00  0.00    +0.313 C 
ATOM     15  O   LIG    1       -8.332  -6.813   9.053  0.00  0.00    -0.250 OA
BRANCH  14  16
ATOM     16  C   LIG    1       -8.150  -4.444   8.758  0.00  0.00    +0.111 C 
ATOM     17  C   LIG    1       -8.111  -3.213   9.648  0.00  0.00    -0.014 C 
ATOM     18  C   LIG    1       -7.906  -1.883   8.953  0.00  0.00    +0.012 C 
ATOM     19  C   LIG    1       -7.468  -3.257  11.012  0.00  0.00    +0.012 C 
ATOM     20  C   LIG    1       -9.432  -3.912   9.378  0.00  0.00    +0.032 C 
BRANCH  20  21
ATOM     21  C   LIG    1      -10.133  -4.706  10.399  0.00  0.00    -0.023 C 
ATOM     22  C   LIG    1      -10.644  -4.256  11.563  0.00  0.00    -0.079 C 
ATOM     23  C   LIG    1      -11.345  -5.182  12.519  0.00  0.00    +0.038 C 
ATOM     24  C   LIG    1      -10.564  -2.824  12.021  0.00  0.00    +0.038 C 
ENDBRANCH  20  21
ENDBRANCH  14  16
ENDBRANCH  13  14
ENDBRANCH   1  13
TORSDOF 5
ENDMDL
MODEL 4
REMARK VINA RESULT:      -7.1      1.188      2.917
REMARK  Name = 
REMARK                            x       y       z     vdW  Elec       q    Type
REMARK                         _______ _______ _______ _____ _____    ______ ____
ROOT
ATOM      1  C   LIG    1       -9.485  -2.191  12.566  0.00  0.00    +0.352 C 
ENDROOT
BRANCH   1   4
ATOM      2  O   LIG    1       -7.826  -1.834  10.213  0.00  0.00    -0.270 OA
ATOM      3  C   LIG    1       -8.446  -2.856  10.442  0.00  0.00    +0.252 C 
ATOM      4  N   LIG    1       -9.253  -3.139  11.498  0.00  0.00    -0.200 N 
ATOM      5  C   LIG    1       -9.769  -4.392  11.383  0.00  0.00    +0.252 C 
ATOM      6  O   LIG    1      -10.525  -5.011  12.108  0.00  0.00    -0.270 OA
ATOM      7  C   LIG    1       -9.233  -4.950  10.137  0.00  0.00    +0.023 C 
ATOM      8  C   LIG    1       -9.526  -6.294   9.614  0.00  0.00    +0.041 C 
ATOM      9  C   LIG    1       -8.768  -6.641   8.327  0.00  0.00    +0.005 C 
ATOM     10  C   LIG    1       -7.951  -5.547   7.613  0.00  0.00    +0.005 C 
ATOM     11  C   LIG    1       -7.699  -4.205   8.318  0.00  0.00    +0.041 C 
ATOM     12  C   LIG    1       -8.443  -4.041   9.578  0.00  0.00    +0.023 C 
ENDBRANCH   1   4
BRANCH   1  13
ATOM     13  O   LIG    1       -8.313  -2.049  13.350  0.00  0.00    -0.444 OA
BRANCH  13  14
ATOM     14  C   LIG    1       -7.812  -3.195  13.856  0.00  0.00    +0.313 C 
ATOM     15  O   LIG    1       -8.367  -3.927  14.663  0.00  0.00    -0.250 OA
BRANCH  14  16
ATOM     16  C   LIG    1       -6.495  -3.477  13.240  0.00  0.00    +0.111 C 
ATOM     17  C   LIG    1       -6.013  -4.827  12.734  0.00  0.00    -0.014 C 
ATOM     18  C   LIG    1       -5.099  -4.809  11.527  0.00  0.00    +0.012 C 
ATOM     19  C   LIG    1       -6.916  -6.036  12.757  0.00  0.00    +0.012 C 
ATOM     20  C   LIG    1       -5.440  -4.249  14.015  0.00  0.00    +0.032 C 
BRANCH  20  21
ATOM     21  C   LIG    1       -5.762  -4.790  15.345  0.00  0.00    -0.023 C 
ATOM     22  C   LIG    1       -4.953  -4.821  16.423  0.00  0.00    -0.079 C 
ATOM     23  C   LIG    1       -5.415  -5.404  17.731  0.00  0.00    +0.038 C 
ATOM     24  C   LIG    1       -3.542  -4.298  16.433  0.00  0.00    +0.038 C 
ENDBRANCH  20  21
ENDBRANCH  14  16
ENDBRANCH  13  14
ENDBRANCH   1  13
TORSDOF 5
ENDMDL
MODEL 5
REMARK VINA RESULT:      -7.0      1.671      5.806
REMARK  Name = 
REMARK                            x       y       z     vdW  Elec       q    Type
REMARK                         _______ _______ _______ _____ _____    ______ ____
ROOT
ATOM      1  C   LIG    1       -7.398  -2.935  11.764  0.00  0.00    +0.352 C 
ENDROOT
BRANCH   1   4
ATOM      2  O   LIG    1       -8.864  -3.795  14.115  0.00  0.00    -0.270 OA
ATOM      3  C   LIG    1       -7.648  -3.814  14.044  0.00  0.00    +0.252 C 
ATOM      4  N   LIG    1       -6.855  -3.436  13.009  0.00  0.00    -0.200 N 
ATOM      5  C   LIG    1       -5.544  -3.603  13.326  0.00  0.00    +0.252 C 
ATOM      6  O   LIG    1       -4.534  -3.383  12.683  0.00  0.00    -0.270 OA
ATOM      7  C   LIG    1       -5.510  -4.140  14.690  0.00  0.00    +0.023 C 
ATOM      8  C   LIG    1       -4.290  -4.478  15.440  0.00  0.00    +0.041 C 
ATOM      9  C   LIG    1       -4.556  -5.092  16.820  0.00  0.00    +0.005 C 
ATOM     10  C   LIG    1       -5.997  -5.129  17.365  0.00  0.00    +0.005 C 
ATOM     11  C   LIG    1       -7.170  -4.786  16.435  0.00  0.00    +0.041 C 
ATOM     12  C   LIG    1       -6.760  -4.271  15.118  0.00  0.00    +0.023 C 
ENDBRANCH   1   4
BRANCH   1  13
ATOM     13  O   LIG    1       -7.000  -3.771  10.692  0.00  0.00    -0.444 OA
BRANCH  13  14
ATOM     14  C   LIG    1       -7.581  -3.505   9.504  0.00  0.00    +0.313 C 
ATOM     15  O   LIG    1       -8.051  -2.429   9.160  0.00  0.00    -0.250 OA
BRANCH  14  16
ATOM     16  C   LIG    1       -7.516  -4.704   8.636  0.00  0.00    +0.111 C 
ATOM     17  C   LIG    1       -8.189  -6.040   8.903  0.00  0.00    -0.014 C 
ATOM     18  C   LIG    1       -8.668  -6.808   7.689  0.00  0.00    +0.012 C 
ATOM     19  C   LIG    1       -9.083  -6.237  10.102  0.00  0.00    +0.012 C 
ATOM     20  C   LIG    1       -6.684  -5.904   9.057  0.00  0.00    +0.032 C 
BRANCH  20  21
ATOM     21  C   LIG    1       -6.017  -5.907  10.368  0.00  0.00    -0.023 C 
ATOM     22  C   LIG    1       -5.770  -6.980  11.147  0.00  0.00    -0.079 C 
ATOM     23  C   LIG    1       -5.070  -6.839  12.472  0.00  0.00    +0.038 C 
ATOM     24  C   LIG    1       -6.161  -8.388  10.790  0.00  0.00    +0.038 C 
ENDBRANCH  20  21
ENDBRANCH  14  16
ENDBRANCH  13  14
ENDBRANCH   1  13
TORSDOF 5
ENDMDL
MODEL 6
REMARK VINA RESULT:      -6.9      1.950      5.797
REMARK  Name = 
REMARK                            x       y       z     vdW  Elec       q    Type
REMARK                         _______ _______ _______ _____ _____    ______ ____
ROOT
ATOM      1  C   LIG    1       -8.766  -4.008  13.743  0.00  0.00    +0.352 C 
ENDROOT
BRANCH   1   4
ATOM      2  O   LIG    1       -6.039  -3.312  13.039  0.00  0.00    -0.270 OA
ATOM      3  C   LIG    1       -6.337  -3.870  14.079  0.00  0.00    +0.252 C 
ATOM      4  N   LIG    1       -7.566  -4.249  14.515  0.00  0.00    -0.200 N 
ATOM      5  C   LIG    1       -7.477  -4.852  15.730  0.00  0.00    +0.252 C 
ATOM      6  O   LIG    1       -8.337  -5.328  16.448  0.00  0.00    -0.270 OA
ATOM      7  C   LIG    1       -6.056  -4.851  16.093  0.00  0.00    +0.023 C 
ATOM      8  C   LIG    1       -5.497  -5.403  17.337  0.00  0.00    +0.041 C 
ATOM      9  C   LIG    1       -3.985  -5.197  17.487  0.00  0.00    +0.005 C 
ATOM     10  C   LIG    1       -3.179  -4.629  16.303  0.00  0.00    +0.005 C 
ATOM     11  C   LIG    1       -3.921  -4.047  15.088  0.00  0.00    +0.041 C 
ATOM     12  C   LIG    1       -5.377  -4.263  15.116  0.00  0.00    +0.023 C 
ENDBRANCH   1   4
BRANCH   1  13
ATOM     13  O   LIG    1       -8.963  -5.062  12.815  0.00  0.00    -0.444 OA
BRANCH  13  14
ATOM     14  C   LIG    1       -9.461  -4.692  11.617  0.00  0.00    +0.313 C 
ATOM     15  O   LIG    1      -10.563  -4.985  11.176  0.00  0.00    -0.250 OA
BRANCH  14  16
ATOM     16  C   LIG    1       -8.489  -3.815  10.922  0.00  0.00    +0.111 C 
ATOM     17  C   LIG    1       -8.394  -3.594   9.422  0.00  0.00    -0.014 C 
ATOM     18  C   LIG    1       -7.963  -2.216   8.968  0.00  0.00    +0.012 C 
ATOM     19  C   LIG    1       -9.382  -4.232   8.476  0.00  0.00    +0.012 C 
ATOM     20  C   LIG    1       -7.341  -4.423  10.135  0.00  0.00    +0.032 C 
BRANCH  20  21
ATOM     21  C   LIG    1       -7.248  -5.885   9.990  0.00  0.00    -0.023 C 
ATOM     22  C   LIG    1       -6.332  -6.696  10.558  0.00  0.00    -0.079 C 
ATOM     23  C   LIG    1       -6.356  -8.183  10.327  0.00  0.00    +0.038 C 
ATOM     24  C   LIG    1       -5.218  -6.217  11.448  0.00  0.00    +0.038 C 
ENDBRANCH  20  21
ENDBRANCH  14  16
ENDBRANCH  13  14
ENDBRANCH   1  13
TORSDOF 5
ENDMDL
MODEL 7
REMARK VINA RESULT:      -6.9      2.305      6.258
REMARK  Name = 
REMARK                            x       y       z     vdW  Elec       q    Type
REMARK                         _______ _______ _______ _____ _____    ______ ____
ROOT
ATOM      1  C   LIG    1       -5.519  -4.201  11.710  0.00  0.00    +0.352 C 
ENDROOT
BRANCH   1   4
ATOM      2  O   LIG    1       -3.359  -5.090  13.431  0.00  0.00    -0.270 OA
ATOM      3  C   LIG    1       -4.477  -4.836  13.842  0.00  0.00    +0.252 C 
ATOM      4  N   LIG    1       -5.562  -4.420  13.140  0.00  0.00    -0.200 N 
ATOM      5  C   LIG    1       -6.630  -4.253  13.966  0.00  0.00    +0.252 C 
ATOM      6  O   LIG    1       -7.770  -3.898  13.731  0.00  0.00    -0.270 OA
ATOM      7  C   LIG    1       -6.170  -4.594  15.316  0.00  0.00    +0.023 C 
ATOM      8  C   LIG    1       -6.998  -4.551  16.531  0.00  0.00    +0.041 C 
ATOM      9  C   LIG    1       -6.235  -4.888  17.817  0.00  0.00    +0.005 C 
ATOM     10  C   LIG    1       -4.786  -5.405  17.723  0.00  0.00    +0.005 C 
ATOM     11  C   LIG    1       -4.043  -5.341  16.380  0.00  0.00    +0.041 C 
ATOM     12  C   LIG    1       -4.889  -4.937  15.246  0.00  0.00    +0.023 C 
ENDBRANCH   1   4
BRANCH   1  13
ATOM     13  O   LIG    1       -5.603  -5.441  11.028  0.00  0.00    -0.444 OA
BRANCH  13  14
ATOM     14  C   LIG    1       -6.597  -5.536  10.121  0.00  0.00    +0.313 C 
ATOM     15  O   LIG    1       -6.457  -5.668   8.913  0.00  0.00    -0.250 OA
BRANCH  14  16
ATOM     16  C   LIG    1       -7.907  -5.516  10.813  0.00  0.00    +0.111 C 
ATOM     17  C   LIG    1       -9.263  -5.762  10.171  0.00  0.00    -0.014 C 
ATOM     18  C   LIG    1      -10.302  -6.450  11.032  0.00  0.00    +0.012 C 
ATOM     19  C   LIG    1       -9.381  -6.135   8.714  0.00  0.00    +0.012 C 
ATOM     20  C   LIG    1       -8.867  -4.359  10.595  0.00  0.00    +0.032 C 
BRANCH  20  21
ATOM     21  C   LIG    1       -8.530  -3.302   9.628  0.00  0.00    -0.023 C 
ATOM     22  C   LIG    1       -8.242  -2.014   9.905  0.00  0.00    -0.079 C 
ATOM     23  C   LIG    1       -7.908  -1.035   8.812  0.00  0.00    +0.038 C 
ATOM     24  C   LIG    1       -8.231  -1.433  11.293  0.00  0.00    +0.038 C 
ENDBRANCH  20  21
ENDBRANCH  14  16
ENDBRANCH  13  14
ENDBRANCH   1  13
TORSDOF 5
ENDMDL
MODEL 8
REMARK VINA RESULT:      -6.9      2.314      6.401
REMARK  Name = 
REMARK                            x       y       z     vdW  Elec       q    Type
REMARK                         _______ _______ _______ _____ _____    ______ ____
ROOT
ATOM      1  C   LIG    1       -5.547  -4.162  11.710  0.00  0.00    +0.352 C 
ENDROOT
BRANCH   1   4
ATOM      2  O   LIG    1       -7.692  -3.853  13.639  0.00  0.00    -0.270 OA
ATOM      3  C   LIG    1       -6.572  -4.221  13.942  0.00  0.00    +0.252 C 
ATOM      4  N   LIG    1       -5.492  -4.398  13.137  0.00  0.00    -0.200 N 
ATOM      5  C   LIG    1       -4.419  -4.814  13.861  0.00  0.00    +0.252 C 
ATOM      6  O   LIG    1       -3.281  -5.078  13.518  0.00  0.00    -0.270 OA
ATOM      7  C   LIG    1       -4.868  -4.909  15.254  0.00  0.00    +0.023 C 
ATOM      8  C   LIG    1       -4.030  -5.328  16.389  0.00  0.00    +0.041 C 
ATOM      9  C   LIG    1       -4.783  -5.408  17.722  0.00  0.00    +0.005 C 
ATOM     10  C   LIG    1       -6.231  -4.888  17.806  0.00  0.00    +0.005 C 
ATOM     11  C   LIG    1       -6.985  -4.531  16.515  0.00  0.00    +0.041 C 
ATOM     12  C   LIG    1       -6.149  -4.562  15.304  0.00  0.00    +0.023 C 
ENDBRANCH   1   4
BRANCH   1  13
ATOM     13  O   LIG    1       -5.577  -5.397  11.016  0.00  0.00    -0.444 OA
BRANCH  13  14
ATOM     14  C   LIG    1       -6.566  -5.526  10.107  0.00  0.00    +0.313 C 
ATOM     15  O   LIG    1       -6.420  -5.684   8.904  0.00  0.00    -0.250 OA
BRANCH  14  16
ATOM     16  C   LIG    1       -7.879  -5.508  10.794  0.00  0.00    +0.111 C 
ATOM     17  C   LIG    1       -9.232  -5.757  10.147  0.00  0.00    -0.014 C 
ATOM     18  C   LIG    1      -10.273  -6.445  11.004  0.00  0.00    +0.012 C 
ATOM     19  C   LIG    1       -9.343  -6.131   8.690  0.00  0.00    +0.012 C 
ATOM     20  C   LIG    1       -8.840  -4.352  10.571  0.00  0.00    +0.032 C 
BRANCH  20  21
ATOM     21  C   LIG    1       -8.500  -3.296   9.604  0.00  0.00    -0.023 C 
ATOM     22  C   LIG    1       -8.244  -2.001   9.879  0.00  0.00    -0.079 C 
ATOM     23  C   LIG    1       -7.904  -1.023   8.787  0.00  0.00    +0.038 C 
ATOM     24  C   LIG    1       -8.279  -1.410  11.263  0.00  0.00    +0.038 C 
ENDBRANCH  20  21
ENDBRANCH  14  16
ENDBRANCH  13  14
ENDBRANCH   1  13
TORSDOF 5
ENDMDL
MODEL 9
REMARK VINA RESULT:      -6.8      1.686      5.554
REMARK  Name = 
REMARK                            x       y       z     vdW  Elec       q    Type
REMARK                         _______ _______ _______ _____ _____    ______ ____
ROOT
ATOM      1  C   LIG    1       -7.319  -2.868  11.762  0.00  0.00    +0.352 C 
ENDROOT
BRANCH   1   4
ATOM      2  O   LIG    1       -4.589  -3.316  12.634  0.00  0.00    -0.270 OA
ATOM      3  C   LIG    1       -5.559  -3.574  13.323  0.00  0.00    +0.252 C 
ATOM      4  N   LIG    1       -6.874  -3.415  13.026  0.00  0.00    -0.200 N 
ATOM      5  C   LIG    1       -7.651  -3.830  14.061  0.00  0.00    +0.252 C 
ATOM      6  O   LIG    1       -8.861  -3.855  14.189  0.00  0.00    -0.270 OA
ATOM      7  C   LIG    1       -6.736  -4.293  15.110  0.00  0.00    +0.023 C 
ATOM      8  C   LIG    1       -7.145  -4.828  16.418  0.00  0.00    +0.041 C 
ATOM      9  C   LIG    1       -5.972  -5.165  17.347  0.00  0.00    +0.005 C 
ATOM     10  C   LIG    1       -4.533  -5.102  16.801  0.00  0.00    +0.005 C 
ATOM     11  C   LIG    1       -4.269  -4.471  15.425  0.00  0.00    +0.041 C 
ATOM     12  C   LIG    1       -5.491  -4.137  14.675  0.00  0.00    +0.023 C 
ENDBRANCH   1   4
BRANCH   1  13
ATOM     13  O   LIG    1       -7.004  -3.764  10.710  0.00  0.00    -0.444 OA
BRANCH  13  14
ATOM     14  C   LIG    1       -7.604  -3.504   9.529  0.00  0.00    +0.313 C 
ATOM     15  O   LIG    1       -8.091  -2.434   9.192  0.00  0.00    -0.250 OA
BRANCH  14  16
ATOM     16  C   LIG    1       -7.535  -4.702   8.661  0.00  0.00    +0.111 C 
ATOM     17  C   LIG    1       -8.193  -6.045   8.933  0.00  0.00    -0.014 C 
ATOM     18  C   LIG    1       -8.676  -6.817   7.723  0.00  0.00    +0.012 C 
ATOM     19  C   LIG    1       -9.074  -6.251  10.140  0.00  0.00    +0.012 C 
ATOM     20  C   LIG    1       -6.688  -5.894   9.073  0.00  0.00    +0.032 C 
BRANCH  20  21
ATOM     21  C   LIG    1       -6.009  -5.891  10.378  0.00  0.00    -0.023 C 
ATOM     22  C   LIG    1       -5.742  -6.963  11.153  0.00  0.00    -0.079 C 
ATOM     23  C   LIG    1       -5.032  -6.816  12.471  0.00  0.00    +0.038 C 
ATOM     24  C   LIG    1       -6.121  -8.375  10.797  0.00  0.00    +0.038 C 
ENDBRANCH  20  21
ENDBRANCH  14  16
ENDBRANCH  13  14
ENDBRANCH   1  13
TORSDOF 5
ENDMDL
