MODEL 1
REMARK VINA RESULT:      -8.7      0.000      0.000
REMARK  Name = 
REMARK                            x       y       z     vdW  Elec       q    Type
REMARK                         _______ _______ _______ _____ _____    ______ ____
ROOT
ATOM      1  C   LIG    1       64.194  45.720  28.453  0.00  0.00    +0.352 C 
ENDROOT
BRANCH   1   4
ATOM      2  O   LIG    1       62.132  43.843  29.253  0.00  0.00    -0.270 OA
ATOM      3  C   LIG    1       61.912  45.021  29.033  0.00  0.00    +0.252 C 
ATOM      4  N   LIG    1       62.786  45.988  28.651  0.00  0.00    -0.200 N 
ATOM      5  C   LIG    1       62.145  47.178  28.500  0.00  0.00    +0.252 C 
ATOM      6  O   LIG    1       62.565  48.272  28.171  0.00  0.00    -0.270 OA
ATOM      7  C   LIG    1       60.734  46.935  28.819  0.00  0.00    +0.023 C 
ATOM      8  C   LIG    1       59.671  47.951  28.791  0.00  0.00    +0.041 C 
ATOM      9  C   LIG    1       58.301  47.432  29.244  0.00  0.00    +0.005 C 
ATOM     10  C   LIG    1       58.110  45.924  29.497  0.00  0.00    +0.005 C 
ATOM     11  C   LIG    1       59.336  44.999  29.537  0.00  0.00    +0.041 C 
ATOM     12  C   LIG    1       60.594  45.654  29.141  0.00  0.00    +0.023 C 
ENDBRANCH   1   4
BRANCH   1  13
ATOM     13  O   LIG    1       64.919  46.060  29.623  0.00  0.00    -0.444 OA
BRANCH  13  14
ATOM     14  C   LIG    1       65.278  45.020  30.404  0.00  0.00    +0.313 C 
ATOM     15  O   LIG    1       65.282  43.842  30.074  0.00  0.00    -0.250 OA
BRANCH  14  16
ATOM     16  C   LIG    1       65.729  45.519  31.723  0.00  0.00    +0.111 C 
ATOM     17  C   LIG    1       65.408  44.900  33.074  0.00  0.00    -0.014 C 
ATOM     18  C   LIG    1       66.479  45.009  34.138  0.00  0.00    +0.012 C 
ATOM     19  C   LIG    1       64.619  43.618  33.176  0.00  0.00    +0.012 C 
ATOM     20  C   LIG    1       64.744  46.201  32.658  0.00  0.00    +0.032 C 
BRANCH  20  21
ATOM     21  C   LIG    1       63.323  46.284  32.286  0.00  0.00    -0.023 C 
ATOM     22  C   LIG    1       62.282  46.504  33.116  0.00  0.00    -0.079 C 
ATOM     23  C   LIG    1       60.870  46.569  32.598  0.00  0.00    +0.038 C 
ATOM     24  C   LIG    1       62.415  46.692  34.603  0.00  0.00    +0.038 C 
ENDBRANCH  20  21
ENDBRANCH  14  16
ENDBRANCH  13  14
ENDBRANCH   1  13
TORSDOF 5
ENDMDL
MODEL 2
REMARK VINA RESULT:      -8.4      1.874      2.699
REMARK  Name = 
REMARK                            x       y       z     vdW  Elec       q    Type
REMARK                         _______ _______ _______ _____ _____    ______ ____
ROOT
ATOM      1  C   LIG    1       62.038  47.046  30.128  0.00  0.00    +0.352 C 
ENDROOT
BRANCH   1   4
ATOM      2  O   LIG    1       60.250  46.803  27.856  0.00  0.00    -0.270 OA
ATOM      3  C   LIG    1       59.919  46.533  28.996  0.00  0.00    +0.252 C 
ATOM      4  N   LIG    1       60.658  46.610  30.133  0.00  0.00    -0.200 N 
ATOM      5  C   LIG    1       59.921  46.226  31.209  0.00  0.00    +0.252 C 
ATOM      6  O   LIG    1       60.211  46.157  32.389  0.00  0.00    -0.270 OA
ATOM      7  C   LIG    1       58.592  45.873  30.699  0.00  0.00    +0.023 C 
ATOM      8  C   LIG    1       57.467  45.396  31.519  0.00  0.00    +0.041 C 
ATOM      9  C   LIG    1       56.218  45.030  30.710  0.00  0.00    +0.005 C 
ATOM     10  C   LIG    1       56.171  45.351  29.204  0.00  0.00    +0.005 C 
ATOM     11  C   LIG    1       57.452  45.800  28.483  0.00  0.00    +0.041 C 
ATOM     12  C   LIG    1       58.590  46.050  29.383  0.00  0.00    +0.023 C 
ENDBRANCH   1   4
BRANCH   1  13
ATOM     13  O   LIG    1       62.653  46.719  31.362  0.00  0.00    -0.444 OA
BRANCH  13  14
ATOM     14  C   LIG    1       63.544  45.706  31.314  0.00  0.00    +0.313 C 
ATOM     15  O   LIG    1       63.479  44.727  30.584  0.00  0.00    -0.250 OA
BRANCH  14  16
ATOM     16  C   LIG    1       64.662  45.981  32.246  0.00  0.00    +0.111 C 
ATOM     17  C   LIG    1       65.078  45.118  33.426  0.00  0.00    -0.014 C 
ATOM     18  C   LIG    1       66.557  45.081  33.747  0.00  0.00    +0.012 C 
ATOM     19  C   LIG    1       64.391  43.806  33.713  0.00  0.00    +0.012 C 
ATOM     20  C   LIG    1       64.375  46.443  33.666  0.00  0.00    +0.032 C 
BRANCH  20  21
ATOM     21  C   LIG    1       62.985  46.530  34.138  0.00  0.00    -0.023 C 
ATOM     22  C   LIG    1       62.491  47.403  35.040  0.00  0.00    -0.079 C 
ATOM     23  C   LIG    1       61.038  47.384  35.432  0.00  0.00    +0.038 C 
ATOM     24  C   LIG    1       63.315  48.452  35.736  0.00  0.00    +0.038 C 
ENDBRANCH  20  21
ENDBRANCH  14  16
ENDBRANCH  13  14
ENDBRANCH   1  13
TORSDOF 5
ENDMDL
MODEL 3
REMARK VINA RESULT:      -8.3      1.324      5.847
REMARK  Name = 
REMARK                            x       y       z     vdW  Elec       q    Type
REMARK                         _______ _______ _______ _____ _____    ______ ____
ROOT
ATOM      1  C   LIG    1       63.425  43.980  28.825  0.00  0.00    +0.352 C 
ENDROOT
BRANCH   1   4
ATOM      2  O   LIG    1       64.859  46.310  29.790  0.00  0.00    -0.270 OA
ATOM      3  C   LIG    1       64.646  45.327  30.477  0.00  0.00    +0.252 C 
ATOM      4  N   LIG    1       63.996  44.183  30.139  0.00  0.00    -0.200 N 
ATOM      5  C   LIG    1       63.975  43.318  31.188  0.00  0.00    +0.252 C 
ATOM      6  O   LIG    1       63.500  42.202  31.290  0.00  0.00    -0.270 OA
ATOM      7  C   LIG    1       64.677  43.983  32.290  0.00  0.00    +0.023 C 
ATOM      8  C   LIG    1       64.890  43.410  33.629  0.00  0.00    +0.041 C 
ATOM      9  C   LIG    1       65.591  44.359  34.608  0.00  0.00    +0.005 C 
ATOM     10  C   LIG    1       66.159  45.695  34.091  0.00  0.00    +0.005 C 
ATOM     11  C   LIG    1       65.805  46.173  32.674  0.00  0.00    +0.041 C 
ATOM     12  C   LIG    1       65.072  45.179  31.872  0.00  0.00    +0.023 C 
ENDBRANCH   1   4
BRANCH   1  13
ATOM     13  O   LIG    1       62.015  44.112  28.884  0.00  0.00    -0.444 OA
BRANCH  13  14
ATOM     14  C   LIG    1       61.540  45.351  28.638  0.00  0.00    +0.313 C 
ATOM     15  O   LIG    1       62.117  46.231  28.016  0.00  0.00    -0.250 OA
BRANCH  14  16
ATOM     16  C   LIG    1       60.169  45.477  29.186  0.00  0.00    +0.111 C 
ATOM     17  C   LIG    1       59.379  46.766  29.336  0.00  0.00    -0.014 C 
ATOM     18  C   LIG    1       57.880  46.665  29.154  0.00  0.00    +0.012 C 
ATOM     19  C   LIG    1       59.933  48.082  28.847  0.00  0.00    +0.012 C 
ATOM     20  C   LIG    1       59.952  46.080  30.564  0.00  0.00    +0.032 C 
BRANCH  20  21
ATOM     21  C   LIG    1       61.097  46.619  31.314  0.00  0.00    -0.023 C 
ATOM     22  C   LIG    1       61.224  46.692  32.654  0.00  0.00    -0.079 C 
ATOM     23  C   LIG    1       62.459  47.267  33.293  0.00  0.00    +0.038 C 
ATOM     24  C   LIG    1       60.172  46.229  33.626  0.00  0.00    +0.038 C 
ENDBRANCH  20  21
ENDBRANCH  14  16
ENDBRANCH  13  14
ENDBRANCH   1  13
TORSDOF 5
ENDMDL
MODEL 4
REMARK VINA RESULT:      -8.2      2.256      3.849
REMARK  Name = 
REMARK                            x       y       z     vdW  Elec       q    Type
REMARK                         _______ _______ _______ _____ _____    ______ ____
ROOT
ATOM      1  C   LIG    1       61.334  46.991  30.922  0.00  0.00    +0.352 C 
ENDROOT
BRANCH   1   4
ATOM      2  O   LIG    1       59.947  46.859  28.378  0.00  0.00    -0.270 OA
ATOM      3  C   LIG    1       59.448  46.496  29.428  0.00  0.00    +0.252 C 
ATOM      4  N   LIG    1       59.991  46.513  30.672  0.00  0.00    -0.200 N 
ATOM      5  C   LIG    1       59.107  46.028  31.585  0.00  0.00    +0.252 C 
ATOM      6  O   LIG    1       59.207  45.882  32.790  0.00  0.00    -0.270 OA
ATOM      7  C   LIG    1       57.895  45.671  30.843  0.00  0.00    +0.023 C 
ATOM      8  C   LIG    1       56.674  45.101  31.434  0.00  0.00    +0.041 C 
ATOM      9  C   LIG    1       55.587  44.756  30.409  0.00  0.00    +0.005 C 
ATOM     10  C   LIG    1       55.770  45.185  28.940  0.00  0.00    +0.005 C 
ATOM     11  C   LIG    1       57.130  45.725  28.470  0.00  0.00    +0.041 C 
ATOM     12  C   LIG    1       58.096  45.944  29.559  0.00  0.00    +0.023 C 
ENDBRANCH   1   4
BRANCH   1  13
ATOM     13  O   LIG    1       62.141  45.933  31.411  0.00  0.00    -0.444 OA
BRANCH  13  14
ATOM     14  C   LIG    1       62.821  46.200  32.545  0.00  0.00    +0.313 C 
ATOM     15  O   LIG    1       62.634  47.155  33.286  0.00  0.00    -0.250 OA
BRANCH  14  16
ATOM     16  C   LIG    1       63.804  45.122  32.803  0.00  0.00    +0.111 C 
ATOM     17  C   LIG    1       65.280  45.311  33.113  0.00  0.00    -0.014 C 
ATOM     18  C   LIG    1       65.905  44.305  34.055  0.00  0.00    +0.012 C 
ATOM     19  C   LIG    1       65.876  46.689  33.260  0.00  0.00    +0.012 C 
ATOM     20  C   LIG    1       64.851  44.780  31.756  0.00  0.00    +0.032 C 
BRANCH  20  21
ATOM     21  C   LIG    1       64.943  45.581  30.525  0.00  0.00    -0.023 C 
ATOM     22  C   LIG    1       64.463  45.250  29.309  0.00  0.00    -0.079 C 
ATOM     23  C   LIG    1       64.623  46.170  28.129  0.00  0.00    +0.038 C 
ATOM     24  C   LIG    1       63.747  43.961  29.007  0.00  0.00    +0.038 C 
ENDBRANCH  20  21
ENDBRANCH  14  16
ENDBRANCH  13  14
ENDBRANCH   1  13
TORSDOF 5
ENDMDL
MODEL 5
REMARK VINA RESULT:      -8.2      2.368      4.299
REMARK  Name = 
REMARK                            x       y       z     vdW  Elec       q    Type
REMARK                         _______ _______ _______ _____ _____    ______ ____
ROOT
ATOM      1  C   LIG    1       60.986  46.176  30.419  0.00  0.00    +0.352 C 
ENDROOT
BRANCH   1   4
ATOM      2  O   LIG    1       59.328  46.564  28.071  0.00  0.00    -0.270 OA
ATOM      3  C   LIG    1       58.880  46.243  29.156  0.00  0.00    +0.252 C 
ATOM      4  N   LIG    1       59.549  46.037  30.320  0.00  0.00    -0.200 N 
ATOM      5  C   LIG    1       58.685  45.696  31.314  0.00  0.00    +0.252 C 
ATOM      6  O   LIG    1       58.883  45.436  32.486  0.00  0.00    -0.270 OA
ATOM      7  C   LIG    1       57.346  45.684  30.716  0.00  0.00    +0.023 C 
ATOM      8  C   LIG    1       56.101  45.361  31.429  0.00  0.00    +0.041 C 
ATOM      9  C   LIG    1       54.855  45.354  30.536  0.00  0.00    +0.005 C 
ATOM     10  C   LIG    1       54.966  45.845  29.080  0.00  0.00    +0.005 C 
ATOM     11  C   LIG    1       56.352  46.097  28.467  0.00  0.00    +0.041 C 
ATOM     12  C   LIG    1       57.460  46.004  29.432  0.00  0.00    +0.023 C 
ENDBRANCH   1   4
BRANCH   1  13
ATOM     13  O   LIG    1       61.316  47.031  31.501  0.00  0.00    -0.444 OA
BRANCH  13  14
ATOM     14  C   LIG    1       62.342  46.617  32.273  0.00  0.00    +0.313 C 
ATOM     15  O   LIG    1       63.486  46.409  31.896  0.00  0.00    -0.250 OA
BRANCH  14  16
ATOM     16  C   LIG    1       61.892  46.504  33.680  0.00  0.00    +0.111 C 
ATOM     17  C   LIG    1       62.092  47.544  34.771  0.00  0.00    -0.014 C 
ATOM     18  C   LIG    1       60.996  47.651  35.810  0.00  0.00    +0.012 C 
ATOM     19  C   LIG    1       62.736  48.875  34.471  0.00  0.00    +0.012 C 
ATOM     20  C   LIG    1       62.905  46.261  34.787  0.00  0.00    +0.032 C 
BRANCH  20  21
ATOM     21  C   LIG    1       64.341  46.228  34.468  0.00  0.00    -0.023 C 
ATOM     22  C   LIG    1       65.128  45.135  34.400  0.00  0.00    -0.079 C 
ATOM     23  C   LIG    1       66.590  45.244  34.056  0.00  0.00    +0.038 C 
ATOM     24  C   LIG    1       64.648  43.732  34.660  0.00  0.00    +0.038 C 
ENDBRANCH  20  21
ENDBRANCH  14  16
ENDBRANCH  13  14
ENDBRANCH   1  13
TORSDOF 5
ENDMDL
MODEL 6
REMARK VINA RESULT:      -8.2      1.821      5.710
REMARK  Name = 
REMARK                            x       y       z     vdW  Elec       q    Type
REMARK                         _______ _______ _______ _____ _____    ______ ____
ROOT
ATOM      1  C   LIG    1       64.402  43.863  29.355  0.00  0.00    +0.352 C 
ENDROOT
BRANCH   1   4
ATOM      2  O   LIG    1       63.965  42.078  31.600  0.00  0.00    -0.270 OA
ATOM      3  C   LIG    1       64.254  43.254  31.730  0.00  0.00    +0.252 C 
ATOM      4  N   LIG    1       64.477  44.182  30.764  0.00  0.00    -0.200 N 
ATOM      5  C   LIG    1       64.768  45.389  31.320  0.00  0.00    +0.252 C 
ATOM      6  O   LIG    1       65.024  46.462  30.805  0.00  0.00    -0.270 OA
ATOM      7  C   LIG    1       64.725  45.200  32.774  0.00  0.00    +0.023 C 
ATOM      8  C   LIG    1       64.983  46.247  33.774  0.00  0.00    +0.041 C 
ATOM      9  C   LIG    1       64.943  45.748  35.223  0.00  0.00    +0.005 C 
ATOM     10  C   LIG    1       64.474  44.309  35.515  0.00  0.00    +0.005 C 
ATOM     11  C   LIG    1       64.292  43.320  34.353  0.00  0.00    +0.041 C 
ATOM     12  C   LIG    1       64.425  43.930  33.020  0.00  0.00    +0.023 C 
ENDBRANCH   1   4
BRANCH   1  13
ATOM     13  O   LIG    1       63.668  44.863  28.671  0.00  0.00    -0.444 OA
BRANCH  13  14
ATOM     14  C   LIG    1       62.326  44.725  28.712  0.00  0.00    +0.313 C 
ATOM     15  O   LIG    1       61.715  43.800  29.227  0.00  0.00    -0.250 OA
BRANCH  14  16
ATOM     16  C   LIG    1       61.685  45.904  28.084  0.00  0.00    +0.111 C 
ATOM     17  C   LIG    1       61.458  47.256  28.740  0.00  0.00    -0.014 C 
ATOM     18  C   LIG    1       61.541  48.468  27.836  0.00  0.00    +0.012 C 
ATOM     19  C   LIG    1       61.959  47.540  30.135  0.00  0.00    +0.012 C 
ATOM     20  C   LIG    1       60.284  46.322  28.501  0.00  0.00    +0.032 C 
BRANCH  20  21
ATOM     21  C   LIG    1       59.603  45.607  29.592  0.00  0.00    -0.023 C 
ATOM     22  C   LIG    1       58.272  45.489  29.774  0.00  0.00    -0.079 C 
ATOM     23  C   LIG    1       57.707  44.720  30.938  0.00  0.00    +0.038 C 
ATOM     24  C   LIG    1       57.240  46.101  28.865  0.00  0.00    +0.038 C 
ENDBRANCH  20  21
ENDBRANCH  14  16
ENDBRANCH  13  14
ENDBRANCH   1  13
TORSDOF 5
ENDMDL
MODEL 7
REMARK VINA RESULT:      -8.0      1.940      5.579
REMARK  Name = 
REMARK                            x       y       z     vdW  Elec       q    Type
REMARK                         _______ _______ _______ _____ _____    ______ ____
ROOT
ATOM      1  C   LIG    1       64.135  43.567  31.252  0.00  0.00    +0.352 C 
ENDROOT
BRANCH   1   4
ATOM      2  O   LIG    1       65.398  43.543  33.864  0.00  0.00    -0.270 OA
ATOM      3  C   LIG    1       64.588  44.386  33.523  0.00  0.00    +0.252 C 
ATOM      4  N   LIG    1       63.931  44.499  32.340  0.00  0.00    -0.200 N 
ATOM      5  C   LIG    1       63.102  45.577  32.355  0.00  0.00    +0.252 C 
ATOM      6  O   LIG    1       62.350  46.015  31.504  0.00  0.00    -0.270 OA
ATOM      7  C   LIG    1       63.254  46.202  33.672  0.00  0.00    +0.023 C 
ATOM      8  C   LIG    1       62.545  47.407  34.127  0.00  0.00    +0.041 C 
ATOM      9  C   LIG    1       62.955  47.882  35.527  0.00  0.00    +0.005 C 
ATOM     10  C   LIG    1       63.887  47.000  36.380  0.00  0.00    +0.005 C 
ATOM     11  C   LIG    1       64.589  45.793  35.738  0.00  0.00    +0.041 C 
ATOM     12  C   LIG    1       64.141  45.499  34.368  0.00  0.00    +0.023 C 
ENDBRANCH   1   4
BRANCH   1  13
ATOM     13  O   LIG    1       64.339  44.273  30.041  0.00  0.00    -0.444 OA
BRANCH  13  14
ATOM     14  C   LIG    1       63.431  44.035  29.072  0.00  0.00    +0.313 C 
ATOM     15  O   LIG    1       62.500  43.244  29.139  0.00  0.00    -0.250 OA
BRANCH  14  16
ATOM     16  C   LIG    1       63.689  44.925  27.917  0.00  0.00    +0.111 C 
ATOM     17  C   LIG    1       63.899  46.430  27.974  0.00  0.00    -0.014 C 
ATOM     18  C   LIG    1       64.857  47.017  26.959  0.00  0.00    +0.012 C 
ATOM     19  C   LIG    1       63.933  47.163  29.292  0.00  0.00    +0.012 C 
ATOM     20  C   LIG    1       62.602  45.865  27.421  0.00  0.00    +0.032 C 
BRANCH  20  21
ATOM     21  C   LIG    1       61.325  45.952  28.146  0.00  0.00    -0.023 C 
ATOM     22  C   LIG    1       60.515  47.027  28.232  0.00  0.00    -0.079 C 
ATOM     23  C   LIG    1       59.227  46.976  29.009  0.00  0.00    +0.038 C 
ATOM     24  C   LIG    1       60.807  48.355  27.586  0.00  0.00    +0.038 C 
ENDBRANCH  20  21
ENDBRANCH  14  16
ENDBRANCH  13  14
ENDBRANCH   1  13
TORSDOF 5
ENDMDL
MODEL 8
REMARK VINA RESULT:      -7.8      2.432      4.187
REMARK  Name = 
REMARK                            x       y       z     vdW  Elec       q    Type
REMARK                         _______ _______ _______ _____ _____    ______ ____
ROOT
ATOM      1  C   LIG    1       60.673  45.859  30.459  0.00  0.00    +0.352 C 
ENDROOT
BRANCH   1   4
ATOM      2  O   LIG    1       58.561  44.962  32.233  0.00  0.00    -0.270 OA
ATOM      3  C   LIG    1       58.348  45.456  31.141  0.00  0.00    +0.252 C 
ATOM      4  N   LIG    1       59.246  45.906  30.226  0.00  0.00    -0.200 N 
ATOM      5  C   LIG    1       58.607  46.382  29.124  0.00  0.00    +0.252 C 
ATOM      6  O   LIG    1       59.045  46.864  28.096  0.00  0.00    -0.270 OA
ATOM      7  C   LIG    1       57.171  46.218  29.371  0.00  0.00    +0.023 C 
ATOM      8  C   LIG    1       56.100  46.605  28.440  0.00  0.00    +0.041 C 
ATOM      9  C   LIG    1       54.686  46.385  28.991  0.00  0.00    +0.005 C 
ATOM     10  C   LIG    1       54.502  45.640  30.327  0.00  0.00    +0.005 C 
ATOM     11  C   LIG    1       55.727  45.347  31.208  0.00  0.00    +0.041 C 
ATOM     12  C   LIG    1       57.014  45.672  30.571  0.00  0.00    +0.023 C 
ENDBRANCH   1   4
BRANCH   1  13
ATOM     13  O   LIG    1       61.057  46.911  31.327  0.00  0.00    -0.444 OA
BRANCH  13  14
ATOM     14  C   LIG    1       62.135  46.659  32.099  0.00  0.00    +0.313 C 
ATOM     15  O   LIG    1       63.296  46.609  31.717  0.00  0.00    -0.250 OA
BRANCH  14  16
ATOM     16  C   LIG    1       61.713  46.508  33.511  0.00  0.00    +0.111 C 
ATOM     17  C   LIG    1       61.934  47.517  34.626  0.00  0.00    -0.014 C 
ATOM     18  C   LIG    1       60.858  47.597  35.688  0.00  0.00    +0.012 C 
ATOM     19  C   LIG    1       62.574  48.856  34.350  0.00  0.00    +0.012 C 
ATOM     20  C   LIG    1       62.746  46.235  34.591  0.00  0.00    +0.032 C 
BRANCH  20  21
ATOM     21  C   LIG    1       64.176  46.209  34.244  0.00  0.00    -0.023 C 
ATOM     22  C   LIG    1       64.997  45.140  34.279  0.00  0.00    -0.079 C 
ATOM     23  C   LIG    1       66.447  45.255  33.891  0.00  0.00    +0.038 C 
ATOM     24  C   LIG    1       64.569  43.762  34.706  0.00  0.00    +0.038 C 
ENDBRANCH  20  21
ENDBRANCH  14  16
ENDBRANCH  13  14
ENDBRANCH   1  13
TORSDOF 5
ENDMDL
MODEL 9
REMARK VINA RESULT:      -7.8      2.462      4.445
REMARK  Name = 
REMARK                            x       y       z     vdW  Elec       q    Type
REMARK                         _______ _______ _______ _____ _____    ______ ____
ROOT
ATOM      1  C   LIG    1       60.523  45.374  30.020  0.00  0.00    +0.352 C 
ENDROOT
BRANCH   1   4
ATOM      2  O   LIG    1       58.999  46.926  28.100  0.00  0.00    -0.270 OA
ATOM      3  C   LIG    1       58.485  46.305  29.013  0.00  0.00    +0.252 C 
ATOM      4  N   LIG    1       59.088  45.552  29.969  0.00  0.00    -0.200 N 
ATOM      5  C   LIG    1       58.162  45.025  30.815  0.00  0.00    +0.252 C 
ATOM      6  O   LIG    1       58.292  44.307  31.789  0.00  0.00    -0.270 OA
ATOM      7  C   LIG    1       56.854  45.490  30.343  0.00  0.00    +0.023 C 
ATOM      8  C   LIG    1       55.561  45.157  30.962  0.00  0.00    +0.041 C 
ATOM      9  C   LIG    1       54.348  45.721  30.213  0.00  0.00    +0.005 C 
ATOM     10  C   LIG    1       54.570  46.699  29.043  0.00  0.00    +0.005 C 
ATOM     11  C   LIG    1       55.986  46.904  28.482  0.00  0.00    +0.041 C 
ATOM     12  C   LIG    1       57.042  46.247  29.269  0.00  0.00    +0.023 C 
ENDBRANCH   1   4
BRANCH   1  13
ATOM     13  O   LIG    1       61.154  46.614  30.290  0.00  0.00    -0.444 OA
BRANCH  13  14
ATOM     14  C   LIG    1       62.056  46.598  31.293  0.00  0.00    +0.313 C 
ATOM     15  O   LIG    1       62.245  47.495  32.103  0.00  0.00    -0.250 OA
BRANCH  14  16
ATOM     16  C   LIG    1       62.757  45.293  31.313  0.00  0.00    +0.111 C 
ATOM     17  C   LIG    1       64.169  45.042  31.818  0.00  0.00    -0.014 C 
ATOM     18  C   LIG    1       64.423  43.699  32.470  0.00  0.00    +0.012 C 
ATOM     19  C   LIG    1       64.984  46.150  32.438  0.00  0.00    +0.012 C 
ATOM     20  C   LIG    1       63.880  45.017  30.327  0.00  0.00    +0.032 C 
BRANCH  20  21
ATOM     21  C   LIG    1       64.328  46.080  29.414  0.00  0.00    -0.023 C 
ATOM     22  C   LIG    1       63.992  46.225  28.116  0.00  0.00    -0.079 C 
ATOM     23  C   LIG    1       64.523  47.369  27.294  0.00  0.00    +0.038 C 
ATOM     24  C   LIG    1       63.085  45.284  27.370  0.00  0.00    +0.038 C 
ENDBRANCH  20  21
ENDBRANCH  14  16
ENDBRANCH  13  14
ENDBRANCH   1  13
TORSDOF 5
ENDMDL
