MODEL 1
REMARK VINA RESULT:     -10.2      0.000      0.000
REMARK  Name = 
REMARK                            x       y       z     vdW  Elec       q    Type
REMARK                         _______ _______ _______ _____ _____    ______ ____
ROOT
ATOM      1  C   LIG    1       41.980  -0.353  17.955  0.00  0.00    +0.352 C 
ENDROOT
BRANCH   1   4
ATOM      2  O   LIG    1       44.524  -1.152  19.097  0.00  0.00    -0.270 OA
ATOM      3  C   LIG    1       43.947  -1.796  18.240  0.00  0.00    +0.252 C 
ATOM      4  N   LIG    1       42.764  -1.525  17.631  0.00  0.00    -0.200 N 
ATOM      5  C   LIG    1       42.463  -2.490  16.721  0.00  0.00    +0.252 C 
ATOM      6  O   LIG    1       41.508  -2.612  15.976  0.00  0.00    -0.270 OA
ATOM      7  C   LIG    1       43.561  -3.461  16.765  0.00  0.00    +0.023 C 
ATOM      8  C   LIG    1       43.651  -4.679  15.944  0.00  0.00    +0.041 C 
ATOM      9  C   LIG    1       44.874  -5.550  16.253  0.00  0.00    +0.005 C 
ATOM     10  C   LIG    1       45.957  -5.019  17.212  0.00  0.00    +0.005 C 
ATOM     11  C   LIG    1       45.688  -3.749  18.033  0.00  0.00    +0.041 C 
ATOM     12  C   LIG    1       44.442  -3.054  17.671  0.00  0.00    +0.023 C 
ENDBRANCH   1   4
BRANCH   1  13
ATOM     13  O   LIG    1       40.717  -0.742  18.468  0.00  0.00    -0.444 OA
BRANCH  13  14
ATOM     14  C   LIG    1       39.658  -0.441  17.688  0.00  0.00    +0.313 C 
ATOM     15  O   LIG    1       38.793  -1.222  17.318  0.00  0.00    -0.250 OA
BRANCH  14  16
ATOM     16  C   LIG    1       39.659   1.009  17.385  0.00  0.00    +0.111 C 
ATOM     17  C   LIG    1       38.470   1.825  16.902  0.00  0.00    -0.014 C 
ATOM     18  C   LIG    1       38.403   3.262  17.372  0.00  0.00    +0.012 C 
ATOM     19  C   LIG    1       37.105   1.200  16.754  0.00  0.00    +0.012 C 
ATOM     20  C   LIG    1       39.598   1.487  15.944  0.00  0.00    +0.032 C 
BRANCH  20  21
ATOM     21  C   LIG    1       39.449   0.508  14.855  0.00  0.00    -0.023 C 
ATOM     22  C   LIG    1       38.898   0.724  13.644  0.00  0.00    -0.079 C 
ATOM     23  C   LIG    1       38.813  -0.373  12.617  0.00  0.00    +0.038 C 
ATOM     24  C   LIG    1       38.318   2.041  13.205  0.00  0.00    +0.038 C 
ENDBRANCH  20  21
ENDBRANCH  14  16
ENDBRANCH  13  14
ENDBRANCH   1  13
TORSDOF 5
ENDMDL
MODEL 2
REMARK VINA RESULT:     -10.1      0.048      1.814
REMARK  Name = 
REMARK                            x       y       z     vdW  Elec       q    Type
REMARK                         _______ _______ _______ _____ _____    ______ ____
ROOT
ATOM      1  C   LIG    1       41.967  -0.365  17.868  0.00  0.00    +0.352 C 
ENDROOT
BRANCH   1   4
ATOM      2  O   LIG    1       41.539  -2.543  16.001  0.00  0.00    -0.270 OA
ATOM      3  C   LIG    1       42.510  -2.474  16.732  0.00  0.00    +0.252 C 
ATOM      4  N   LIG    1       42.816  -1.514  17.643  0.00  0.00    -0.200 N 
ATOM      5  C   LIG    1       43.990  -1.804  18.266  0.00  0.00    +0.252 C 
ATOM      6  O   LIG    1       44.600  -1.206  19.133  0.00  0.00    -0.270 OA
ATOM      7  C   LIG    1       44.468  -3.065  17.689  0.00  0.00    +0.023 C 
ATOM      8  C   LIG    1       45.712  -3.753  18.067  0.00  0.00    +0.041 C 
ATOM      9  C   LIG    1       45.999  -5.016  17.246  0.00  0.00    +0.005 C 
ATOM     10  C   LIG    1       44.927  -5.545  16.273  0.00  0.00    +0.005 C 
ATOM     11  C   LIG    1       43.699  -4.679  15.951  0.00  0.00    +0.041 C 
ATOM     12  C   LIG    1       43.592  -3.463  16.773  0.00  0.00    +0.023 C 
ENDBRANCH   1   4
BRANCH   1  13
ATOM     13  O   LIG    1       40.723  -0.780  18.406  0.00  0.00    -0.444 OA
BRANCH  13  14
ATOM     14  C   LIG    1       39.638  -0.455  17.674  0.00  0.00    +0.313 C 
ATOM     15  O   LIG    1       38.744  -1.219  17.338  0.00  0.00    -0.250 OA
BRANCH  14  16
ATOM     16  C   LIG    1       39.652   0.996  17.377  0.00  0.00    +0.111 C 
ATOM     17  C   LIG    1       38.473   1.824  16.894  0.00  0.00    -0.014 C 
ATOM     18  C   LIG    1       38.416   3.260  17.370  0.00  0.00    +0.012 C 
ATOM     19  C   LIG    1       37.102   1.212  16.737  0.00  0.00    +0.012 C 
ATOM     20  C   LIG    1       39.602   1.480  15.938  0.00  0.00    +0.032 C 
BRANCH  20  21
ATOM     21  C   LIG    1       39.448   0.507  14.845  0.00  0.00    -0.023 C 
ATOM     22  C   LIG    1       38.902   0.732  13.632  0.00  0.00    -0.079 C 
ATOM     23  C   LIG    1       38.812  -0.359  12.601  0.00  0.00    +0.038 C 
ATOM     24  C   LIG    1       38.333   2.056  13.198  0.00  0.00    +0.038 C 
ENDBRANCH  20  21
ENDBRANCH  14  16
ENDBRANCH  13  14
ENDBRANCH   1  13
TORSDOF 5
ENDMDL
MODEL 3
REMARK VINA RESULT:     -10.1      1.367      3.159
REMARK  Name = 
REMARK                            x       y       z     vdW  Elec       q    Type
REMARK                         _______ _______ _______ _____ _____    ______ ____
ROOT
ATOM      1  C   LIG    1       41.983  -0.903  17.934  0.00  0.00    +0.352 C 
ENDROOT
BRANCH   1   4
ATOM      2  O   LIG    1       42.141  -3.245  16.229  0.00  0.00    -0.270 OA
ATOM      3  C   LIG    1       43.029  -2.918  16.995  0.00  0.00    +0.252 C 
ATOM      4  N   LIG    1       43.069  -1.855  17.840  0.00  0.00    -0.200 N 
ATOM      5  C   LIG    1       44.237  -1.842  18.536  0.00  0.00    +0.252 C 
ATOM      6  O   LIG    1       44.653  -1.070  19.380  0.00  0.00    -0.270 OA
ATOM      7  C   LIG    1       45.005  -3.007  18.084  0.00  0.00    +0.023 C 
ATOM      8  C   LIG    1       46.341  -3.384  18.570  0.00  0.00    +0.041 C 
ATOM      9  C   LIG    1       46.938  -4.608  17.866  0.00  0.00    +0.005 C 
ATOM     10  C   LIG    1       46.064  -5.421  16.891  0.00  0.00    +0.005 C 
ATOM     11  C   LIG    1       44.703  -4.863  16.447  0.00  0.00    +0.041 C 
ATOM     12  C   LIG    1       44.291  -3.645  17.164  0.00  0.00    +0.023 C 
ENDBRANCH   1   4
BRANCH   1  13
ATOM     13  O   LIG    1       42.105   0.072  16.913  0.00  0.00    -0.444 OA
BRANCH  13  14
ATOM     14  C   LIG    1       41.119   0.072  15.993  0.00  0.00    +0.313 C 
ATOM     15  O   LIG    1       41.247   0.327  14.803  0.00  0.00    -0.250 OA
BRANCH  14  16
ATOM     16  C   LIG    1       39.846  -0.344  16.626  0.00  0.00    +0.111 C 
ATOM     17  C   LIG    1       38.458  -0.211  16.020  0.00  0.00    -0.014 C 
ATOM     18  C   LIG    1       37.462  -1.296  16.372  0.00  0.00    +0.012 C 
ATOM     19  C   LIG    1       38.266   0.318  14.620  0.00  0.00    +0.012 C 
ATOM     20  C   LIG    1       38.880   0.703  17.156  0.00  0.00    +0.032 C 
BRANCH  20  21
ATOM     21  C   LIG    1       39.172   2.132  16.959  0.00  0.00    -0.023 C 
ATOM     22  C   LIG    1       38.306   3.158  17.082  0.00  0.00    -0.079 C 
ATOM     23  C   LIG    1       38.741   4.581  16.854  0.00  0.00    +0.038 C 
ATOM     24  C   LIG    1       36.853   2.997  17.441  0.00  0.00    +0.038 C 
ENDBRANCH  20  21
ENDBRANCH  14  16
ENDBRANCH  13  14
ENDBRANCH   1  13
TORSDOF 5
ENDMDL
MODEL 4
REMARK VINA RESULT:     -10.0      1.367      2.393
REMARK  Name = 
REMARK                            x       y       z     vdW  Elec       q    Type
REMARK                         _______ _______ _______ _____ _____    ______ ____
ROOT
ATOM      1  C   LIG    1       41.516  -0.316  17.641  0.00  0.00    +0.352 C 
ENDROOT
BRANCH   1   4
ATOM      2  O   LIG    1       44.083  -0.982  18.817  0.00  0.00    -0.270 OA
ATOM      3  C   LIG    1       43.527  -1.682  17.991  0.00  0.00    +0.252 C 
ATOM      4  N   LIG    1       42.337  -1.476  17.370  0.00  0.00    -0.200 N 
ATOM      5  C   LIG    1       42.068  -2.491  16.506  0.00  0.00    +0.252 C 
ATOM      6  O   LIG    1       41.118  -2.677  15.768  0.00  0.00    -0.270 OA
ATOM      7  C   LIG    1       43.195  -3.424  16.594  0.00  0.00    +0.023 C 
ATOM      8  C   LIG    1       43.324  -4.675  15.829  0.00  0.00    +0.041 C 
ATOM      9  C   LIG    1       44.573  -5.492  16.178  0.00  0.00    +0.005 C 
ATOM     10  C   LIG    1       45.639  -4.884  17.110  0.00  0.00    +0.005 C 
ATOM     11  C   LIG    1       45.329  -3.587  17.873  0.00  0.00    +0.041 C 
ATOM     12  C   LIG    1       44.062  -2.949  17.480  0.00  0.00    +0.023 C 
ENDBRANCH   1   4
BRANCH   1  13
ATOM     13  O   LIG    1       40.147  -0.645  17.487  0.00  0.00    -0.444 OA
BRANCH  13  14
ATOM     14  C   LIG    1       39.331   0.391  17.201  0.00  0.00    +0.313 C 
ATOM     15  O   LIG    1       39.505   1.554  17.533  0.00  0.00    -0.250 OA
BRANCH  14  16
ATOM     16  C   LIG    1       38.204  -0.079  16.361  0.00  0.00    +0.111 C 
ATOM     17  C   LIG    1       38.085   0.075  14.854  0.00  0.00    -0.014 C 
ATOM     18  C   LIG    1       37.376  -1.041  14.115  0.00  0.00    +0.012 C 
ATOM     19  C   LIG    1       39.198   0.690  14.042  0.00  0.00    +0.012 C 
ATOM     20  C   LIG    1       37.222   0.921  15.774  0.00  0.00    +0.032 C 
BRANCH  20  21
ATOM     21  C   LIG    1       37.445   2.362  15.968  0.00  0.00    -0.023 C 
ATOM     22  C   LIG    1       37.031   3.360  15.160  0.00  0.00    -0.079 C 
ATOM     23  C   LIG    1       37.326   4.800  15.482  0.00  0.00    +0.038 C 
ATOM     24  C   LIG    1       36.262   3.146  13.884  0.00  0.00    +0.038 C 
ENDBRANCH  20  21
ENDBRANCH  14  16
ENDBRANCH  13  14
ENDBRANCH   1  13
TORSDOF 5
ENDMDL
MODEL 5
REMARK VINA RESULT:     -10.0      1.749      3.224
REMARK  Name = 
REMARK                            x       y       z     vdW  Elec       q    Type
REMARK                         _______ _______ _______ _____ _____    ______ ____
ROOT
ATOM      1  C   LIG    1       40.149  -0.948  17.135  0.00  0.00    +0.352 C 
ENDROOT
BRANCH   1   4
ATOM      2  O   LIG    1       40.813  -3.219  15.457  0.00  0.00    -0.270 OA
ATOM      3  C   LIG    1       41.571  -2.765  16.294  0.00  0.00    +0.252 C 
ATOM      4  N   LIG    1       41.374  -1.718  17.136  0.00  0.00    -0.200 N 
ATOM      5  C   LIG    1       42.463  -1.530  17.928  0.00  0.00    +0.252 C 
ATOM      6  O   LIG    1       42.680  -0.711  18.802  0.00  0.00    -0.270 OA
ATOM      7  C   LIG    1       43.438  -2.556  17.546  0.00  0.00    +0.023 C 
ATOM      8  C   LIG    1       44.771  -2.725  18.145  0.00  0.00    +0.041 C 
ATOM      9  C   LIG    1       45.609  -3.834  17.498  0.00  0.00    +0.005 C 
ATOM     10  C   LIG    1       44.958  -4.763  16.456  0.00  0.00    +0.005 C 
ATOM     11  C   LIG    1       43.568  -4.420  15.896  0.00  0.00    +0.041 C 
ATOM     12  C   LIG    1       42.913  -3.289  16.571  0.00  0.00    +0.023 C 
ENDBRANCH   1   4
BRANCH   1  13
ATOM     13  O   LIG    1       40.443   0.429  16.966  0.00  0.00    -0.444 OA
BRANCH  13  14
ATOM     14  C   LIG    1       39.373   1.250  16.945  0.00  0.00    +0.313 C 
ATOM     15  O   LIG    1       39.311   2.361  17.453  0.00  0.00    -0.250 OA
BRANCH  14  16
ATOM     16  C   LIG    1       38.284   0.631  16.154  0.00  0.00    +0.111 C 
ATOM     17  C   LIG    1       38.135   0.679  14.642  0.00  0.00    -0.014 C 
ATOM     18  C   LIG    1       37.521  -0.540  13.986  0.00  0.00    +0.012 C 
ATOM     19  C   LIG    1       39.180   1.337  13.776  0.00  0.00    +0.012 C 
ATOM     20  C   LIG    1       37.210   1.501  15.522  0.00  0.00    +0.032 C 
BRANCH  20  21
ATOM     21  C   LIG    1       37.305   2.966  15.623  0.00  0.00    -0.023 C 
ATOM     22  C   LIG    1       36.695   3.872  14.832  0.00  0.00    -0.079 C 
ATOM     23  C   LIG    1       36.877   5.350  15.051  0.00  0.00    +0.038 C 
ATOM     24  C   LIG    1       35.801   3.514  13.676  0.00  0.00    +0.038 C 
ENDBRANCH  20  21
ENDBRANCH  14  16
ENDBRANCH  13  14
ENDBRANCH   1  13
TORSDOF 5
ENDMDL
MODEL 6
REMARK VINA RESULT:      -9.8      1.316      2.301
REMARK  Name = 
REMARK                            x       y       z     vdW  Elec       q    Type
REMARK                         _______ _______ _______ _____ _____    ______ ____
ROOT
ATOM      1  C   LIG    1       40.821  -1.793  16.431  0.00  0.00    +0.352 C 
ENDROOT
BRANCH   1   4
ATOM      2  O   LIG    1       42.379  -4.078  15.558  0.00  0.00    -0.270 OA
ATOM      3  C   LIG    1       42.747  -3.317  16.435  0.00  0.00    +0.252 C 
ATOM      4  N   LIG    1       42.109  -2.225  16.930  0.00  0.00    -0.200 N 
ATOM      5  C   LIG    1       42.849  -1.644  17.912  0.00  0.00    +0.252 C 
ATOM      6  O   LIG    1       42.631  -0.662  18.597  0.00  0.00    -0.270 OA
ATOM      7  C   LIG    1       44.069  -2.447  18.045  0.00  0.00    +0.023 C 
ATOM      8  C   LIG    1       45.162  -2.179  18.992  0.00  0.00    +0.041 C 
ATOM      9  C   LIG    1       46.350  -3.139  18.861  0.00  0.00    +0.005 C 
ATOM     10  C   LIG    1       46.234  -4.362  17.930  0.00  0.00    +0.005 C 
ATOM     11  C   LIG    1       45.044  -4.471  16.964  0.00  0.00    +0.041 C 
ATOM     12  C   LIG    1       44.013  -3.440  17.165  0.00  0.00    +0.023 C 
ENDBRANCH   1   4
BRANCH   1  13
ATOM     13  O   LIG    1       40.848  -0.401  16.164  0.00  0.00    -0.444 OA
BRANCH  13  14
ATOM     14  C   LIG    1       39.898   0.327  16.788  0.00  0.00    +0.313 C 
ATOM     15  O   LIG    1       39.342   0.033  17.837  0.00  0.00    -0.250 OA
BRANCH  14  16
ATOM     16  C   LIG    1       39.662   1.583  16.040  0.00  0.00    +0.111 C 
ATOM     17  C   LIG    1       38.382   2.404  16.048  0.00  0.00    -0.014 C 
ATOM     18  C   LIG    1       38.542   3.904  15.921  0.00  0.00    +0.012 C 
ATOM     19  C   LIG    1       37.214   2.018  16.921  0.00  0.00    +0.012 C 
ATOM     20  C   LIG    1       38.753   1.587  14.823  0.00  0.00    +0.032 C 
BRANCH  20  21
ATOM     21  C   LIG    1       38.038   0.358  14.442  0.00  0.00    -0.023 C 
ATOM     22  C   LIG    1       38.434  -0.560  13.536  0.00  0.00    -0.079 C 
ATOM     23  C   LIG    1       37.602  -1.780  13.245  0.00  0.00    +0.038 C 
ATOM     24  C   LIG    1       39.705  -0.460  12.737  0.00  0.00    +0.038 C 
ENDBRANCH  20  21
ENDBRANCH  14  16
ENDBRANCH  13  14
ENDBRANCH   1  13
TORSDOF 5
ENDMDL
MODEL 7
REMARK VINA RESULT:      -9.8      1.965      2.905
REMARK  Name = 
REMARK                            x       y       z     vdW  Elec       q    Type
REMARK                         _______ _______ _______ _____ _____    ______ ____
ROOT
ATOM      1  C   LIG    1       43.472  -0.693  15.477  0.00  0.00    +0.352 C 
ENDROOT
BRANCH   1   4
ATOM      2  O   LIG    1       43.923  -1.068  18.318  0.00  0.00    -0.270 OA
ATOM      3  C   LIG    1       44.530  -1.683  17.461  0.00  0.00    +0.252 C 
ATOM      4  N   LIG    1       44.412  -1.593  16.111  0.00  0.00    -0.200 N 
ATOM      5  C   LIG    1       45.276  -2.446  15.498  0.00  0.00    +0.252 C 
ATOM      6  O   LIG    1       45.478  -2.661  14.317  0.00  0.00    -0.270 OA
ATOM      7  C   LIG    1       46.004  -3.140  16.564  0.00  0.00    +0.023 C 
ATOM      8  C   LIG    1       47.042  -4.161  16.358  0.00  0.00    +0.041 C 
ATOM      9  C   LIG    1       47.583  -4.772  17.656  0.00  0.00    +0.005 C 
ATOM     10  C   LIG    1       47.159  -4.169  19.009  0.00  0.00    +0.005 C 
ATOM     11  C   LIG    1       46.022  -3.136  19.058  0.00  0.00    +0.041 C 
ATOM     12  C   LIG    1       45.560  -2.692  17.733  0.00  0.00    +0.023 C 
ENDBRANCH   1   4
BRANCH   1  13
ATOM     13  O   LIG    1       42.493  -1.435  14.771  0.00  0.00    -0.444 OA
BRANCH  13  14
ATOM     14  C   LIG    1       41.220  -1.022  14.941  0.00  0.00    +0.313 C 
ATOM     15  O   LIG    1       40.310  -1.148  14.134  0.00  0.00    -0.250 OA
BRANCH  14  16
ATOM     16  C   LIG    1       41.062  -0.437  16.293  0.00  0.00    +0.111 C 
ATOM     17  C   LIG    1       39.949  -0.747  17.280  0.00  0.00    -0.014 C 
ATOM     18  C   LIG    1       40.320  -0.718  18.747  0.00  0.00    +0.012 C 
ATOM     19  C   LIG    1       38.899  -1.786  16.970  0.00  0.00    +0.012 C 
ATOM     20  C   LIG    1       39.972   0.588  16.557  0.00  0.00    +0.032 C 
BRANCH  20  21
ATOM     21  C   LIG    1       39.018   0.931  15.491  0.00  0.00    -0.023 C 
ATOM     22  C   LIG    1       37.796   1.482  15.645  0.00  0.00    -0.079 C 
ATOM     23  C   LIG    1       36.920   1.786  14.460  0.00  0.00    +0.038 C 
ATOM     24  C   LIG    1       37.193   1.834  16.978  0.00  0.00    +0.038 C 
ENDBRANCH  20  21
ENDBRANCH  14  16
ENDBRANCH  13  14
ENDBRANCH   1  13
TORSDOF 5
ENDMDL
MODEL 8
REMARK VINA RESULT:      -9.7      1.613      3.118
REMARK  Name = 
REMARK                            x       y       z     vdW  Elec       q    Type
REMARK                         _______ _______ _______ _____ _____    ______ ____
ROOT
ATOM      1  C   LIG    1       40.317  -1.420  16.584  0.00  0.00    +0.352 C 
ENDROOT
BRANCH   1   4
ATOM      2  O   LIG    1       41.960  -0.359  18.727  0.00  0.00    -0.270 OA
ATOM      3  C   LIG    1       42.299  -1.298  18.031  0.00  0.00    +0.252 C 
ATOM      4  N   LIG    1       41.624  -1.877  17.004  0.00  0.00    -0.200 N 
ATOM      5  C   LIG    1       42.347  -2.899  16.474  0.00  0.00    +0.252 C 
ATOM      6  O   LIG    1       42.100  -3.656  15.553  0.00  0.00    -0.270 OA
ATOM      7  C   LIG    1       43.594  -2.971  17.243  0.00  0.00    +0.023 C 
ATOM      8  C   LIG    1       44.677  -3.940  17.015  0.00  0.00    +0.041 C 
ATOM      9  C   LIG    1       45.831  -3.831  18.019  0.00  0.00    +0.005 C 
ATOM     10  C   LIG    1       45.858  -2.657  19.016  0.00  0.00    +0.005 C 
ATOM     11  C   LIG    1       44.620  -1.758  19.164  0.00  0.00    +0.041 C 
ATOM     12  C   LIG    1       43.565  -2.023  18.172  0.00  0.00    +0.023 C 
ENDBRANCH   1   4
BRANCH   1  13
ATOM     13  O   LIG    1       40.393  -0.076  16.141  0.00  0.00    -0.444 OA
BRANCH  13  14
ATOM     14  C   LIG    1       39.417   0.739  16.593  0.00  0.00    +0.313 C 
ATOM     15  O   LIG    1       39.223   1.048  17.760  0.00  0.00    -0.250 OA
BRANCH  14  16
ATOM     16  C   LIG    1       38.635   1.262  15.449  0.00  0.00    +0.111 C 
ATOM     17  C   LIG    1       38.450   2.726  15.085  0.00  0.00    -0.014 C 
ATOM     18  C   LIG    1       38.339   3.046  13.609  0.00  0.00    +0.012 C 
ATOM     19  C   LIG    1       39.144   3.817  15.862  0.00  0.00    +0.012 C 
ATOM     20  C   LIG    1       37.297   1.942  15.687  0.00  0.00    +0.032 C 
BRANCH  20  21
ATOM     21  C   LIG    1       36.823   2.158  17.064  0.00  0.00    -0.023 C 
ATOM     22  C   LIG    1       36.103   3.205  17.515  0.00  0.00    -0.079 C 
ATOM     23  C   LIG    1       35.679   3.298  18.956  0.00  0.00    +0.038 C 
ATOM     24  C   LIG    1       35.667   4.361  16.656  0.00  0.00    +0.038 C 
ENDBRANCH  20  21
ENDBRANCH  14  16
ENDBRANCH  13  14
ENDBRANCH   1  13
TORSDOF 5
ENDMDL
MODEL 9
REMARK VINA RESULT:      -9.7      1.764      3.685
REMARK  Name = 
REMARK                            x       y       z     vdW  Elec       q    Type
REMARK                         _______ _______ _______ _____ _____    ______ ____
ROOT
ATOM      1  C   LIG    1       39.547  -1.107  17.004  0.00  0.00    +0.352 C 
ENDROOT
BRANCH   1   4
ATOM      2  O   LIG    1       40.635  -3.345  15.514  0.00  0.00    -0.270 OA
ATOM      3  C   LIG    1       41.276  -2.719  16.338  0.00  0.00    +0.252 C 
ATOM      4  N   LIG    1       40.879  -1.664  17.096  0.00  0.00    -0.200 N 
ATOM      5  C   LIG    1       41.891  -1.248  17.903  0.00  0.00    +0.252 C 
ATOM      6  O   LIG    1       41.938  -0.348  18.721  0.00  0.00    -0.270 OA
ATOM      7  C   LIG    1       43.034  -2.123  17.624  0.00  0.00    +0.023 C 
ATOM      8  C   LIG    1       44.351  -2.032  18.272  0.00  0.00    +0.041 C 
ATOM      9  C   LIG    1       45.383  -3.029  17.731  0.00  0.00    +0.005 C 
ATOM     10  C   LIG    1       44.932  -4.120  16.740  0.00  0.00    +0.005 C 
ATOM     11  C   LIG    1       43.529  -4.047  16.117  0.00  0.00    +0.041 C 
ATOM     12  C   LIG    1       42.673  -2.996  16.690  0.00  0.00    +0.023 C 
ENDBRANCH   1   4
BRANCH   1  13
ATOM     13  O   LIG    1       39.506  -0.114  15.993  0.00  0.00    -0.444 OA
BRANCH  13  14
ATOM     14  C   LIG    1       39.217   1.133  16.418  0.00  0.00    +0.313 C 
ATOM     15  O   LIG    1       39.629   1.655  17.444  0.00  0.00    -0.250 OA
BRANCH  14  16
ATOM     16  C   LIG    1       38.362   1.815  15.418  0.00  0.00    +0.111 C 
ATOM     17  C   LIG    1       38.101   3.310  15.333  0.00  0.00    -0.014 C 
ATOM     18  C   LIG    1       37.909   3.883  13.945  0.00  0.00    +0.012 C 
ATOM     19  C   LIG    1       38.786   4.276  16.268  0.00  0.00    +0.012 C 
ATOM     20  C   LIG    1       37.011   2.376  15.827  0.00  0.00    +0.032 C 
BRANCH  20  21
ATOM     21  C   LIG    1       36.593   2.319  17.237  0.00  0.00    -0.023 C 
ATOM     22  C   LIG    1       35.830   3.219  17.891  0.00  0.00    -0.079 C 
ATOM     23  C   LIG    1       35.473   3.033  19.341  0.00  0.00    +0.038 C 
ATOM     24  C   LIG    1       35.279   4.470  17.263  0.00  0.00    +0.038 C 
ENDBRANCH  20  21
ENDBRANCH  14  16
ENDBRANCH  13  14
ENDBRANCH   1  13
TORSDOF 5
ENDMDL
