MODEL 1
REMARK VINA RESULT:      -7.8      0.000      0.000
REMARK  Name = 
REMARK                            x       y       z     vdW  Elec       q    Type
REMARK                         _______ _______ _______ _____ _____    ______ ____
ROOT
ATOM      1  C   LIG    1       21.496  27.877   7.774  0.00  0.00    +0.352 C 
ENDROOT
BRANCH   1   4
ATOM      2  O   LIG    1       24.076  26.602   8.142  0.00  0.00    -0.270 OA
ATOM      3  C   LIG    1       23.932  27.655   7.547  0.00  0.00    +0.252 C 
ATOM      4  N   LIG    1       22.786  28.346   7.316  0.00  0.00    -0.200 N 
ATOM      5  C   LIG    1       23.047  29.484   6.619  0.00  0.00    +0.252 C 
ATOM      6  O   LIG    1       22.304  30.363   6.222  0.00  0.00    -0.270 OA
ATOM      7  C   LIG    1       24.495  29.509   6.388  0.00  0.00    +0.023 C 
ATOM      8  C   LIG    1       25.222  30.564   5.665  0.00  0.00    +0.041 C 
ATOM      9  C   LIG    1       26.723  30.293   5.510  0.00  0.00    +0.005 C 
ATOM     10  C   LIG    1       27.355  29.097   6.248  0.00  0.00    +0.005 C 
ATOM     11  C   LIG    1       26.449  28.055   6.921  0.00  0.00    +0.041 C 
ATOM     12  C   LIG    1       25.023  28.420   6.935  0.00  0.00    +0.023 C 
ENDBRANCH   1   4
BRANCH   1  13
ATOM     13  O   LIG    1       21.183  28.466   9.025  0.00  0.00    -0.444 OA
BRANCH  13  14
ATOM     14  C   LIG    1       20.094  29.261   9.034  0.00  0.00    +0.313 C 
ATOM     15  O   LIG    1       20.096  30.483   8.988  0.00  0.00    -0.250 OA
BRANCH  14  16
ATOM     16  C   LIG    1       18.869  28.428   9.047  0.00  0.00    +0.111 C 
ATOM     17  C   LIG    1       17.446  28.929   9.235  0.00  0.00    -0.014 C 
ATOM     18  C   LIG    1       16.362  28.179   8.490  0.00  0.00    +0.012 C 
ATOM     19  C   LIG    1       17.149  30.403   9.358  0.00  0.00    +0.012 C 
ATOM     20  C   LIG    1       18.137  28.170  10.354  0.00  0.00    +0.032 C 
BRANCH  20  21
ATOM     21  C   LIG    1       18.598  28.822  11.590  0.00  0.00    -0.023 C 
ATOM     22  C   LIG    1       18.614  28.287  12.828  0.00  0.00    -0.079 C 
ATOM     23  C   LIG    1       19.119  29.069  14.011  0.00  0.00    +0.038 C 
ATOM     24  C   LIG    1       18.136  26.898  13.152  0.00  0.00    +0.038 C 
ENDBRANCH  20  21
ENDBRANCH  14  16
ENDBRANCH  13  14
ENDBRANCH   1  13
TORSDOF 5
ENDMDL
MODEL 2
REMARK VINA RESULT:      -7.7      1.566      3.825
REMARK  Name = 
REMARK                            x       y       z     vdW  Elec       q    Type
REMARK                         _______ _______ _______ _____ _____    ______ ____
ROOT
ATOM      1  C   LIG    1       20.214  28.893   9.334  0.00  0.00    +0.352 C 
ENDROOT
BRANCH   1   4
ATOM      2  O   LIG    1       21.365  30.993   7.697  0.00  0.00    -0.270 OA
ATOM      3  C   LIG    1       21.798  29.855   7.722  0.00  0.00    +0.252 C 
ATOM      4  N   LIG    1       21.346  28.793   8.438  0.00  0.00    -0.200 N 
ATOM      5  C   LIG    1       22.099  27.690   8.183  0.00  0.00    +0.252 C 
ATOM      6  O   LIG    1       22.019  26.555   8.615  0.00  0.00    -0.270 OA
ATOM      7  C   LIG    1       23.123  28.098   7.217  0.00  0.00    +0.023 C 
ATOM      8  C   LIG    1       24.164  27.220   6.660  0.00  0.00    +0.041 C 
ATOM      9  C   LIG    1       25.148  27.934   5.727  0.00  0.00    +0.005 C 
ATOM     10  C   LIG    1       24.876  29.393   5.314  0.00  0.00    +0.005 C 
ATOM     11  C   LIG    1       23.773  30.191   6.027  0.00  0.00    +0.041 C 
ATOM     12  C   LIG    1       22.950  29.386   6.945  0.00  0.00    +0.023 C 
ENDBRANCH   1   4
BRANCH   1  13
ATOM     13  O   LIG    1       20.631  29.409  10.586  0.00  0.00    -0.444 OA
BRANCH  13  14
ATOM     14  C   LIG    1       20.506  28.564  11.631  0.00  0.00    +0.313 C 
ATOM     15  O   LIG    1       20.857  27.393  11.653  0.00  0.00    -0.250 OA
BRANCH  14  16
ATOM     16  C   LIG    1       19.927  29.286  12.788  0.00  0.00    +0.111 C 
ATOM     17  C   LIG    1       18.767  28.813  13.649  0.00  0.00    -0.014 C 
ATOM     18  C   LIG    1       18.815  29.195  15.114  0.00  0.00    +0.012 C 
ATOM     19  C   LIG    1       18.127  27.465  13.424  0.00  0.00    +0.012 C 
ATOM     20  C   LIG    1       18.567  29.953  12.667  0.00  0.00    +0.032 C 
BRANCH  20  21
ATOM     21  C   LIG    1       17.789  29.805  11.427  0.00  0.00    -0.023 C 
ATOM     22  C   LIG    1       17.137  30.780  10.761  0.00  0.00    -0.079 C 
ATOM     23  C   LIG    1       16.379  30.489   9.494  0.00  0.00    +0.038 C 
ATOM     24  C   LIG    1       17.091  32.218  11.203  0.00  0.00    +0.038 C 
ENDBRANCH  20  21
ENDBRANCH  14  16
ENDBRANCH  13  14
ENDBRANCH   1  13
TORSDOF 5
ENDMDL
MODEL 3
REMARK VINA RESULT:      -7.7      0.107      1.816
REMARK  Name = 
REMARK                            x       y       z     vdW  Elec       q    Type
REMARK                         _______ _______ _______ _____ _____    ______ ____
ROOT
ATOM      1  C   LIG    1       21.502  27.835   7.804  0.00  0.00    +0.352 C 
ENDROOT
BRANCH   1   4
ATOM      2  O   LIG    1       22.282  30.225   6.357  0.00  0.00    -0.270 OA
ATOM      3  C   LIG    1       23.077  29.378   6.723  0.00  0.00    +0.252 C 
ATOM      4  N   LIG    1       22.835  28.225   7.398  0.00  0.00    -0.200 N 
ATOM      5  C   LIG    1       23.992  27.545   7.613  0.00  0.00    +0.252 C 
ATOM      6  O   LIG    1       24.200  26.484   8.172  0.00  0.00    -0.270 OA
ATOM      7  C   LIG    1       25.065  28.350   7.019  0.00  0.00    +0.023 C 
ATOM      8  C   LIG    1       26.493  27.996   7.022  0.00  0.00    +0.041 C 
ATOM      9  C   LIG    1       27.400  29.060   6.393  0.00  0.00    +0.005 C 
ATOM     10  C   LIG    1       26.765  30.266   5.674  0.00  0.00    +0.005 C 
ATOM     11  C   LIG    1       25.255  30.520   5.807  0.00  0.00    +0.041 C 
ATOM     12  C   LIG    1       24.524  29.443   6.493  0.00  0.00    +0.023 C 
ENDBRANCH   1   4
BRANCH   1  13
ATOM     13  O   LIG    1       21.184  28.427   9.052  0.00  0.00    -0.444 OA
BRANCH  13  14
ATOM     14  C   LIG    1       20.104  29.236   9.050  0.00  0.00    +0.313 C 
ATOM     15  O   LIG    1       20.122  30.458   9.001  0.00  0.00    -0.250 OA
BRANCH  14  16
ATOM     16  C   LIG    1       18.869  28.418   9.056  0.00  0.00    +0.111 C 
ATOM     17  C   LIG    1       17.450  28.940   9.216  0.00  0.00    -0.014 C 
ATOM     18  C   LIG    1       16.368  28.193   8.465  0.00  0.00    +0.012 C 
ATOM     19  C   LIG    1       17.169  30.419   9.316  0.00  0.00    +0.012 C 
ATOM     20  C   LIG    1       18.115  28.186  10.355  0.00  0.00    +0.032 C 
BRANCH  20  21
ATOM     21  C   LIG    1       18.565  28.849  11.589  0.00  0.00    -0.023 C 
ATOM     22  C   LIG    1       18.599  28.315  12.827  0.00  0.00    -0.079 C 
ATOM     23  C   LIG    1       19.090  29.109  14.008  0.00  0.00    +0.038 C 
ATOM     24  C   LIG    1       18.154  26.915  13.153  0.00  0.00    +0.038 C 
ENDBRANCH  20  21
ENDBRANCH  14  16
ENDBRANCH  13  14
ENDBRANCH   1  13
TORSDOF 5
ENDMDL
MODEL 4
REMARK VINA RESULT:      -7.7      2.210      7.727
REMARK  Name = 
REMARK                            x       y       z     vdW  Elec       q    Type
REMARK                         _______ _______ _______ _____ _____    ______ ____
ROOT
ATOM      1  C   LIG    1       19.780  27.863   8.890  0.00  0.00    +0.352 C 
ENDROOT
BRANCH   1   4
ATOM      2  O   LIG    1       19.958  29.924  10.923  0.00  0.00    -0.270 OA
ATOM      3  C   LIG    1       18.975  29.763  10.223  0.00  0.00    +0.252 C 
ATOM      4  N   LIG    1       18.773  28.838   9.249  0.00  0.00    -0.200 N 
ATOM      5  C   LIG    1       17.536  28.983   8.702  0.00  0.00    +0.252 C 
ATOM      6  O   LIG    1       16.979  28.361   7.818  0.00  0.00    -0.270 OA
ATOM      7  C   LIG    1       16.902  30.108   9.398  0.00  0.00    +0.023 C 
ATOM      8  C   LIG    1       15.551  30.622   9.126  0.00  0.00    +0.041 C 
ATOM      9  C   LIG    1       15.174  31.856   9.954  0.00  0.00    +0.005 C 
ATOM     10  C   LIG    1       16.113  32.323  11.083  0.00  0.00    +0.005 C 
ATOM     11  C   LIG    1       17.517  31.711  11.206  0.00  0.00    +0.041 C 
ATOM     12  C   LIG    1       17.758  30.577  10.299  0.00  0.00    +0.023 C 
ENDBRANCH   1   4
BRANCH   1  13
ATOM     13  O   LIG    1       20.652  28.405   7.913  0.00  0.00    -0.444 OA
BRANCH  13  14
ATOM     14  C   LIG    1       21.955  28.090   8.061  0.00  0.00    +0.313 C 
ATOM     15  O   LIG    1       22.393  27.090   8.613  0.00  0.00    -0.250 OA
BRANCH  14  16
ATOM     16  C   LIG    1       22.795  29.114   7.398  0.00  0.00    +0.111 C 
ATOM     17  C   LIG    1       23.110  29.190   5.913  0.00  0.00    -0.014 C 
ATOM     18  C   LIG    1       23.268  30.577   5.327  0.00  0.00    +0.012 C 
ATOM     19  C   LIG    1       22.501  28.215   4.936  0.00  0.00    +0.012 C 
ATOM     20  C   LIG    1       24.183  28.754   6.895  0.00  0.00    +0.032 C 
BRANCH  20  21
ATOM     21  C   LIG    1       24.655  27.363   6.989  0.00  0.00    -0.023 C 
ATOM     22  C   LIG    1       25.809  26.937   7.541  0.00  0.00    -0.079 C 
ATOM     23  C   LIG    1       26.168  25.476   7.573  0.00  0.00    +0.038 C 
ATOM     24  C   LIG    1       26.836  27.849   8.157  0.00  0.00    +0.038 C 
ENDBRANCH  20  21
ENDBRANCH  14  16
ENDBRANCH  13  14
ENDBRANCH   1  13
TORSDOF 5
ENDMDL
MODEL 5
REMARK VINA RESULT:      -7.3      0.917      2.789
REMARK  Name = 
REMARK                            x       y       z     vdW  Elec       q    Type
REMARK                         _______ _______ _______ _____ _____    ______ ____
ROOT
ATOM      1  C   LIG    1       21.666  27.988   7.551  0.00  0.00    +0.352 C 
ENDROOT
BRANCH   1   4
ATOM      2  O   LIG    1       24.236  26.749   8.075  0.00  0.00    -0.270 OA
ATOM      3  C   LIG    1       24.112  27.785   7.447  0.00  0.00    +0.252 C 
ATOM      4  N   LIG    1       22.972  28.458   7.143  0.00  0.00    -0.200 N 
ATOM      5  C   LIG    1       23.257  29.580   6.429  0.00  0.00    +0.252 C 
ATOM      6  O   LIG    1       22.527  30.441   5.973  0.00  0.00    -0.270 OA
ATOM      7  C   LIG    1       24.714  29.613   6.267  0.00  0.00    +0.023 C 
ATOM      8  C   LIG    1       25.466  30.656   5.551  0.00  0.00    +0.041 C 
ATOM      9  C   LIG    1       26.975  30.395   5.475  0.00  0.00    +0.005 C 
ATOM     10  C   LIG    1       27.581  29.226   6.274  0.00  0.00    +0.005 C 
ATOM     11  C   LIG    1       26.653  28.192   6.931  0.00  0.00    +0.041 C 
ATOM     12  C   LIG    1       25.225  28.544   6.867  0.00  0.00    +0.023 C 
ENDBRANCH   1   4
BRANCH   1  13
ATOM     13  O   LIG    1       21.156  28.815   8.583  0.00  0.00    -0.444 OA
BRANCH  13  14
ATOM     14  C   LIG    1       20.944  28.200   9.765  0.00  0.00    +0.313 C 
ATOM     15  O   LIG    1       21.204  27.034  10.025  0.00  0.00    -0.250 OA
BRANCH  14  16
ATOM     16  C   LIG    1       20.395  29.171  10.741  0.00  0.00    +0.111 C 
ATOM     17  C   LIG    1       19.263  28.914  11.721  0.00  0.00    -0.014 C 
ATOM     18  C   LIG    1       19.351  29.623  13.055  0.00  0.00    +0.012 C 
ATOM     19  C   LIG    1       18.621  27.553  11.831  0.00  0.00    +0.012 C 
ATOM     20  C   LIG    1       19.030  29.797  10.508  0.00  0.00    +0.032 C 
BRANCH  20  21
ATOM     21  C   LIG    1       18.218  29.370   9.358  0.00  0.00    -0.023 C 
ATOM     22  C   LIG    1       16.990  29.819   9.024  0.00  0.00    -0.079 C 
ATOM     23  C   LIG    1       16.270  29.295   7.811  0.00  0.00    +0.038 C 
ATOM     24  C   LIG    1       16.230  30.854   9.808  0.00  0.00    +0.038 C 
ENDBRANCH  20  21
ENDBRANCH  14  16
ENDBRANCH  13  14
ENDBRANCH   1  13
TORSDOF 5
ENDMDL
MODEL 6
REMARK VINA RESULT:      -7.3      2.258      4.777
REMARK  Name = 
REMARK                            x       y       z     vdW  Elec       q    Type
REMARK                         _______ _______ _______ _____ _____    ______ ____
ROOT
ATOM      1  C   LIG    1       18.486  27.826  10.128  0.00  0.00    +0.352 C 
ENDROOT
BRANCH   1   4
ATOM      2  O   LIG    1       19.292  30.351   8.949  0.00  0.00    -0.270 OA
ATOM      3  C   LIG    1       19.958  29.335   8.867  0.00  0.00    +0.252 C 
ATOM      4  N   LIG    1       19.687  28.103   9.369  0.00  0.00    -0.200 N 
ATOM      5  C   LIG    1       20.681  27.229   9.054  0.00  0.00    +0.252 C 
ATOM      6  O   LIG    1       20.813  26.047   9.311  0.00  0.00    -0.270 OA
ATOM      7  C   LIG    1       21.673  27.987   8.284  0.00  0.00    +0.023 C 
ATOM      8  C   LIG    1       22.924  27.437   7.739  0.00  0.00    +0.041 C 
ATOM      9  C   LIG    1       23.808  28.476   7.038  0.00  0.00    +0.005 C 
ATOM     10  C   LIG    1       23.262  29.898   6.804  0.00  0.00    +0.005 C 
ATOM     11  C   LIG    1       21.954  30.331   7.484  0.00  0.00    +0.041 C 
ATOM     12  C   LIG    1       21.248  29.240   8.175  0.00  0.00    +0.023 C 
ENDBRANCH   1   4
BRANCH   1  13
ATOM     13  O   LIG    1       18.413  28.690  11.249  0.00  0.00    -0.444 OA
BRANCH  13  14
ATOM     14  C   LIG    1       18.950  28.207  12.388  0.00  0.00    +0.313 C 
ATOM     15  O   LIG    1       18.622  27.174  12.955  0.00  0.00    -0.250 OA
BRANCH  14  16
ATOM     16  C   LIG    1       20.055  29.089  12.831  0.00  0.00    +0.111 C 
ATOM     17  C   LIG    1       20.407  29.429  14.270  0.00  0.00    -0.014 C 
ATOM     18  C   LIG    1       21.876  29.640  14.573  0.00  0.00    +0.012 C 
ATOM     19  C   LIG    1       19.663  28.804  15.424  0.00  0.00    +0.012 C 
ATOM     20  C   LIG    1       19.751  30.472  13.383  0.00  0.00    +0.032 C 
BRANCH  20  21
ATOM     21  C   LIG    1       18.353  30.897  13.558  0.00  0.00    -0.023 C 
ATOM     22  C   LIG    1       17.612  31.614  12.689  0.00  0.00    -0.079 C 
ATOM     23  C   LIG    1       16.184  31.978  12.995  0.00  0.00    +0.038 C 
ATOM     24  C   LIG    1       18.119  32.119  11.365  0.00  0.00    +0.038 C 
ENDBRANCH  20  21
ENDBRANCH  14  16
ENDBRANCH  13  14
ENDBRANCH   1  13
TORSDOF 5
ENDMDL
MODEL 7
REMARK VINA RESULT:      -7.2      1.569      3.463
REMARK  Name = 
REMARK                            x       y       z     vdW  Elec       q    Type
REMARK                         _______ _______ _______ _____ _____    ______ ____
ROOT
ATOM      1  C   LIG    1       21.507  28.171   9.085  0.00  0.00    +0.352 C 
ENDROOT
BRANCH   1   4
ATOM      2  O   LIG    1       21.409  30.558   7.439  0.00  0.00    -0.270 OA
ATOM      3  C   LIG    1       22.211  29.658   7.261  0.00  0.00    +0.252 C 
ATOM      4  N   LIG    1       22.350  28.500   7.956  0.00  0.00    -0.200 N 
ATOM      5  C   LIG    1       23.361  27.752   7.438  0.00  0.00    +0.252 C 
ATOM      6  O   LIG    1       23.796  26.664   7.769  0.00  0.00    -0.270 OA
ATOM      7  C   LIG    1       23.910  28.514   6.312  0.00  0.00    +0.023 C 
ATOM      8  C   LIG    1       25.029  28.083   5.460  0.00  0.00    +0.041 C 
ATOM      9  C   LIG    1       25.441  29.115   4.403  0.00  0.00    +0.005 C 
ATOM     10  C   LIG    1       24.578  30.375   4.200  0.00  0.00    +0.005 C 
ATOM     11  C   LIG    1       23.469  30.707   5.211  0.00  0.00    +0.041 C 
ATOM     12  C   LIG    1       23.231  29.650   6.208  0.00  0.00    +0.023 C 
ENDBRANCH   1   4
BRANCH   1  13
ATOM     13  O   LIG    1       20.252  27.696   8.629  0.00  0.00    -0.444 OA
BRANCH  13  14
ATOM     14  C   LIG    1       19.175  28.342   9.123  0.00  0.00    +0.313 C 
ATOM     15  O   LIG    1       18.006  28.072   8.888  0.00  0.00    -0.250 OA
BRANCH  14  16
ATOM     16  C   LIG    1       19.616  29.406  10.055  0.00  0.00    +0.111 C 
ATOM     17  C   LIG    1       19.100  29.631  11.466  0.00  0.00    -0.014 C 
ATOM     18  C   LIG    1       20.098  30.161  12.474  0.00  0.00    +0.012 C 
ATOM     19  C   LIG    1       18.093  28.694  12.088  0.00  0.00    +0.012 C 
ATOM     20  C   LIG    1       18.704  30.584  10.352  0.00  0.00    +0.032 C 
BRANCH  20  21
ATOM     21  C   LIG    1       17.348  30.620   9.782  0.00  0.00    -0.023 C 
ATOM     22  C   LIG    1       16.317  31.384  10.197  0.00  0.00    -0.079 C 
ATOM     23  C   LIG    1       14.976  31.324   9.516  0.00  0.00    +0.038 C 
ATOM     24  C   LIG    1       16.391  32.342  11.355  0.00  0.00    +0.038 C 
ENDBRANCH  20  21
ENDBRANCH  14  16
ENDBRANCH  13  14
ENDBRANCH   1  13
TORSDOF 5
ENDMDL
MODEL 8
REMARK VINA RESULT:      -7.2      1.625      2.671
REMARK  Name = 
REMARK                            x       y       z     vdW  Elec       q    Type
REMARK                         _______ _______ _______ _____ _____    ______ ____
ROOT
ATOM      1  C   LIG    1       21.931  27.806   8.725  0.00  0.00    +0.352 C 
ENDROOT
BRANCH   1   4
ATOM      2  O   LIG    1       24.220  26.674   7.349  0.00  0.00    -0.270 OA
ATOM      3  C   LIG    1       23.745  27.760   7.069  0.00  0.00    +0.252 C 
ATOM      4  N   LIG    1       22.687  28.393   7.639  0.00  0.00    -0.200 N 
ATOM      5  C   LIG    1       22.474  29.597   7.045  0.00  0.00    +0.252 C 
ATOM      6  O   LIG    1       21.639  30.455   7.262  0.00  0.00    -0.270 OA
ATOM      7  C   LIG    1       23.494  29.733   6.000  0.00  0.00    +0.023 C 
ATOM      8  C   LIG    1       23.638  30.887   5.099  0.00  0.00    +0.041 C 
ATOM      9  C   LIG    1       24.747  30.726   4.053  0.00  0.00    +0.005 C 
ATOM     10  C   LIG    1       25.700  29.518   4.141  0.00  0.00    +0.005 C 
ATOM     11  C   LIG    1       25.382  28.369   5.110  0.00  0.00    +0.041 C 
ATOM     12  C   LIG    1       24.248  28.640   6.009  0.00  0.00    +0.023 C 
ENDBRANCH   1   4
BRANCH   1  13
ATOM     13  O   LIG    1       20.590  27.593   8.321  0.00  0.00    -0.444 OA
BRANCH  13  14
ATOM     14  C   LIG    1       19.658  28.261   9.032  0.00  0.00    +0.313 C 
ATOM     15  O   LIG    1       18.504  28.469   8.686  0.00  0.00    -0.250 OA
BRANCH  14  16
ATOM     16  C   LIG    1       20.223  28.663  10.341  0.00  0.00    +0.111 C 
ATOM     17  C   LIG    1       19.616  28.378  11.705  0.00  0.00    -0.014 C 
ATOM     18  C   LIG    1       20.589  28.143  12.841  0.00  0.00    +0.012 C 
ATOM     19  C   LIG    1       18.358  27.556  11.842  0.00  0.00    +0.012 C 
ATOM     20  C   LIG    1       19.579  29.786  11.137  0.00  0.00    +0.032 C 
BRANCH  20  21
ATOM     21  C   LIG    1       18.340  30.411  10.646  0.00  0.00    -0.023 C 
ATOM     22  C   LIG    1       17.443  31.107  11.374  0.00  0.00    -0.079 C 
ATOM     23  C   LIG    1       16.214  31.700  10.740  0.00  0.00    +0.038 C 
ATOM     24  C   LIG    1       17.566  31.351  12.854  0.00  0.00    +0.038 C 
ENDBRANCH  20  21
ENDBRANCH  14  16
ENDBRANCH  13  14
ENDBRANCH   1  13
TORSDOF 5
ENDMDL
MODEL 9
REMARK VINA RESULT:      -7.2      1.865      7.629
REMARK  Name = 
REMARK                            x       y       z     vdW  Elec       q    Type
REMARK                         _______ _______ _______ _____ _____    ______ ____
ROOT
ATOM      1  C   LIG    1       19.936  27.970   8.641  0.00  0.00    +0.352 C 
ENDROOT
BRANCH   1   4
ATOM      2  O   LIG    1       20.052  26.751  11.271  0.00  0.00    -0.270 OA
ATOM      3  C   LIG    1       19.468  27.795  11.046  0.00  0.00    +0.252 C 
ATOM      4  N   LIG    1       19.340  28.457   9.867  0.00  0.00    -0.200 N 
ATOM      5  C   LIG    1       18.603  29.588  10.030  0.00  0.00    +0.252 C 
ATOM      6  O   LIG    1       18.265  30.440   9.231  0.00  0.00    -0.270 OA
ATOM      7  C   LIG    1       18.235  29.643  11.449  0.00  0.00    +0.023 C 
ATOM      8  C   LIG    1       17.435  30.706  12.077  0.00  0.00    +0.041 C 
ATOM      9  C   LIG    1       17.266  30.546  13.593  0.00  0.00    +0.005 C 
ATOM     10  C   LIG    1       17.757  29.255  14.275  0.00  0.00    +0.005 C 
ATOM     11  C   LIG    1       18.624  28.261  13.487  0.00  0.00    +0.041 C 
ATOM     12  C   LIG    1       18.751  28.581  12.056  0.00  0.00    +0.023 C 
ENDBRANCH   1   4
BRANCH   1  13
ATOM     13  O   LIG    1       20.958  28.855   8.215  0.00  0.00    -0.444 OA
BRANCH  13  14
ATOM     14  C   LIG    1       22.173  28.295   8.040  0.00  0.00    +0.313 C 
ATOM     15  O   LIG    1       22.503  27.172   8.393  0.00  0.00    -0.250 OA
BRANCH  14  16
ATOM     16  C   LIG    1       23.049  29.228   7.293  0.00  0.00    +0.111 C 
ATOM     17  C   LIG    1       23.288  29.226   5.792  0.00  0.00    -0.014 C 
ATOM     18  C   LIG    1       23.516  30.574   5.143  0.00  0.00    +0.012 C 
ATOM     19  C   LIG    1       22.557  28.265   4.888  0.00  0.00    +0.012 C 
ATOM     20  C   LIG    1       24.377  28.745   6.735  0.00  0.00    +0.032 C 
BRANCH  20  21
ATOM     21  C   LIG    1       24.749  27.327   6.861  0.00  0.00    -0.023 C 
ATOM     22  C   LIG    1       25.799  26.824   7.542  0.00  0.00    -0.079 C 
ATOM     23  C   LIG    1       26.062  25.343   7.592  0.00  0.00    +0.038 C 
ATOM     24  C   LIG    1       26.795  27.665   8.296  0.00  0.00    +0.038 C 
ENDBRANCH  20  21
ENDBRANCH  14  16
ENDBRANCH  13  14
ENDBRANCH   1  13
TORSDOF 5
ENDMDL
