MODEL 1
REMARK VINA RESULT:      -8.4      0.000      0.000
REMARK  Name = 
REMARK                            x       y       z     vdW  Elec       q    Type
REMARK                         _______ _______ _______ _____ _____    ______ ____
ROOT
ATOM      1  C   LIG    1       33.569  -3.671  23.234  0.00  0.00    +0.352 C 
ENDROOT
BRANCH   1   4
ATOM      2  O   LIG    1       31.161  -3.696  21.616  0.00  0.00    -0.270 OA
ATOM      3  C   LIG    1       32.247  -3.346  21.189  0.00  0.00    +0.252 C 
ATOM      4  N   LIG    1       33.436  -3.296  21.843  0.00  0.00    -0.200 N 
ATOM      5  C   LIG    1       34.419  -2.855  21.012  0.00  0.00    +0.252 C 
ATOM      6  O   LIG    1       35.606  -2.674  21.210  0.00  0.00    -0.270 OA
ATOM      7  C   LIG    1       33.785  -2.602  19.714  0.00  0.00    +0.023 C 
ATOM      8  C   LIG    1       34.477  -2.108  18.514  0.00  0.00    +0.041 C 
ATOM      9  C   LIG    1       33.551  -1.864  17.316  0.00  0.00    +0.005 C 
ATOM     10  C   LIG    1       32.079  -2.312  17.396  0.00  0.00    +0.005 C 
ATOM     11  C   LIG    1       31.494  -2.764  18.743  0.00  0.00    +0.041 C 
ATOM     12  C   LIG    1       32.493  -2.889  19.818  0.00  0.00    +0.023 C 
ENDBRANCH   1   4
BRANCH   1  13
ATOM     13  O   LIG    1       33.543  -2.514  24.052  0.00  0.00    -0.444 OA
BRANCH  13  14
ATOM     14  C   LIG    1       32.543  -2.465  24.955  0.00  0.00    +0.313 C 
ATOM     15  O   LIG    1       32.084  -3.417  25.571  0.00  0.00    -0.250 OA
BRANCH  14  16
ATOM     16  C   LIG    1       32.109  -1.061  25.144  0.00  0.00    +0.111 C 
ATOM     17  C   LIG    1       32.350  -0.207  26.378  0.00  0.00    -0.014 C 
ATOM     18  C   LIG    1       32.562   1.274  26.142  0.00  0.00    +0.012 C 
ATOM     19  C   LIG    1       33.156  -0.728  27.542  0.00  0.00    +0.012 C 
ATOM     20  C   LIG    1       30.959  -0.738  26.083  0.00  0.00    +0.032 C 
BRANCH  20  21
ATOM     21  C   LIG    1       30.336  -1.813  26.871  0.00  0.00    -0.023 C 
ATOM     22  C   LIG    1       29.025  -1.951  27.157  0.00  0.00    -0.079 C 
ATOM     23  C   LIG    1       28.520  -3.108  27.975  0.00  0.00    +0.038 C 
ATOM     24  C   LIG    1       27.960  -0.987  26.708  0.00  0.00    +0.038 C 
ENDBRANCH  20  21
ENDBRANCH  14  16
ENDBRANCH  13  14
ENDBRANCH   1  13
TORSDOF 5
ENDMDL
MODEL 2
REMARK VINA RESULT:      -8.4      0.121      1.816
REMARK  Name = 
REMARK                            x       y       z     vdW  Elec       q    Type
REMARK                         _______ _______ _______ _____ _____    ______ ____
ROOT
ATOM      1  C   LIG    1       33.481  -3.690  23.240  0.00  0.00    +0.352 C 
ENDROOT
BRANCH   1   4
ATOM      2  O   LIG    1       35.498  -2.784  21.362  0.00  0.00    -0.270 OA
ATOM      3  C   LIG    1       34.324  -2.917  21.067  0.00  0.00    +0.252 C 
ATOM      4  N   LIG    1       33.295  -3.325  21.852  0.00  0.00    -0.200 N 
ATOM      5  C   LIG    1       32.131  -3.334  21.148  0.00  0.00    +0.252 C 
ATOM      6  O   LIG    1       31.000  -3.630  21.484  0.00  0.00    -0.270 OA
ATOM      7  C   LIG    1       32.462  -2.891  19.790  0.00  0.00    +0.023 C 
ATOM      8  C   LIG    1       31.502  -2.753  18.684  0.00  0.00    +0.041 C 
ATOM      9  C   LIG    1       32.141  -2.342  17.352  0.00  0.00    +0.005 C 
ATOM     10  C   LIG    1       33.628  -1.939  17.319  0.00  0.00    +0.005 C 
ATOM     11  C   LIG    1       34.510  -2.189  18.552  0.00  0.00    +0.041 C 
ATOM     12  C   LIG    1       33.767  -2.646  19.737  0.00  0.00    +0.023 C 
ENDBRANCH   1   4
BRANCH   1  13
ATOM     13  O   LIG    1       33.496  -2.525  24.048  0.00  0.00    -0.444 OA
BRANCH  13  14
ATOM     14  C   LIG    1       32.543  -2.470  25.002  0.00  0.00    +0.313 C 
ATOM     15  O   LIG    1       32.132  -3.414  25.661  0.00  0.00    -0.250 OA
BRANCH  14  16
ATOM     16  C   LIG    1       32.099  -1.068  25.182  0.00  0.00    +0.111 C 
ATOM     17  C   LIG    1       32.373  -0.191  26.392  0.00  0.00    -0.014 C 
ATOM     18  C   LIG    1       32.558   1.288  26.126  0.00  0.00    +0.012 C 
ATOM     19  C   LIG    1       33.224  -0.683  27.537  0.00  0.00    +0.012 C 
ATOM     20  C   LIG    1       30.978  -0.743  26.155  0.00  0.00    +0.032 C 
BRANCH  20  21
ATOM     21  C   LIG    1       30.396  -1.812  26.982  0.00  0.00    -0.023 C 
ATOM     22  C   LIG    1       29.085  -2.053  27.185  0.00  0.00    -0.079 C 
ATOM     23  C   LIG    1       28.625  -3.190  28.057  0.00  0.00    +0.038 C 
ATOM     24  C   LIG    1       27.974  -1.232  26.587  0.00  0.00    +0.038 C 
ENDBRANCH  20  21
ENDBRANCH  14  16
ENDBRANCH  13  14
ENDBRANCH   1  13
TORSDOF 5
ENDMDL
MODEL 3
REMARK VINA RESULT:      -8.4      1.049      2.702
REMARK  Name = 
REMARK                            x       y       z     vdW  Elec       q    Type
REMARK                         _______ _______ _______ _____ _____    ______ ____
ROOT
ATOM      1  C   LIG    1       32.930  -3.679  23.166  0.00  0.00    +0.352 C 
ENDROOT
BRANCH   1   4
ATOM      2  O   LIG    1       30.825  -3.485  21.179  0.00  0.00    -0.270 OA
ATOM      3  C   LIG    1       31.993  -3.239  20.938  0.00  0.00    +0.252 C 
ATOM      4  N   LIG    1       33.060  -3.297  21.776  0.00  0.00    -0.200 N 
ATOM      5  C   LIG    1       34.201  -2.951  21.121  0.00  0.00    +0.252 C 
ATOM      6  O   LIG    1       35.352  -2.881  21.511  0.00  0.00    -0.270 OA
ATOM      7  C   LIG    1       33.812  -2.645  19.741  0.00  0.00    +0.023 C 
ATOM      8  C   LIG    1       34.733  -2.219  18.675  0.00  0.00    +0.041 C 
ATOM      9  C   LIG    1       34.039  -1.894  17.346  0.00  0.00    +0.005 C 
ATOM     10  C   LIG    1       32.539  -2.203  17.181  0.00  0.00    +0.005 C 
ATOM     11  C   LIG    1       31.704  -2.596  18.410  0.00  0.00    +0.041 C 
ATOM     12  C   LIG    1       32.499  -2.810  19.631  0.00  0.00    +0.023 C 
ENDBRANCH   1   4
BRANCH   1  13
ATOM     13  O   LIG    1       33.149  -2.554  24.000  0.00  0.00    -0.444 OA
BRANCH  13  14
ATOM     14  C   LIG    1       32.037  -1.896  24.387  0.00  0.00    +0.313 C 
ATOM     15  O   LIG    1       31.357  -1.160  23.685  0.00  0.00    -0.250 OA
BRANCH  14  16
ATOM     16  C   LIG    1       31.715  -2.242  25.791  0.00  0.00    +0.111 C 
ATOM     17  C   LIG    1       30.694  -1.544  26.675  0.00  0.00    -0.014 C 
ATOM     18  C   LIG    1       29.964  -2.413  27.677  0.00  0.00    +0.012 C 
ATOM     19  C   LIG    1       29.831  -0.429  26.139  0.00  0.00    +0.012 C 
ATOM     20  C   LIG    1       32.179  -1.341  26.923  0.00  0.00    +0.032 C 
BRANCH  20  21
ATOM     21  C   LIG    1       32.870  -0.079  26.616  0.00  0.00    -0.023 C 
ATOM     22  C   LIG    1       32.954   1.010  27.408  0.00  0.00    -0.079 C 
ATOM     23  C   LIG    1       33.700   2.240  26.968  0.00  0.00    +0.038 C 
ATOM     24  C   LIG    1       32.324   1.112  28.770  0.00  0.00    +0.038 C 
ENDBRANCH  20  21
ENDBRANCH  14  16
ENDBRANCH  13  14
ENDBRANCH   1  13
TORSDOF 5
ENDMDL
MODEL 4
REMARK VINA RESULT:      -8.3      1.062      3.243
REMARK  Name = 
REMARK                            x       y       z     vdW  Elec       q    Type
REMARK                         _______ _______ _______ _____ _____    ______ ____
ROOT
ATOM      1  C   LIG    1       32.946  -3.673  23.202  0.00  0.00    +0.352 C 
ENDROOT
BRANCH   1   4
ATOM      2  O   LIG    1       35.256  -2.960  21.598  0.00  0.00    -0.270 OA
ATOM      3  C   LIG    1       34.123  -2.999  21.154  0.00  0.00    +0.252 C 
ATOM      4  N   LIG    1       32.970  -3.311  21.801  0.00  0.00    -0.200 N 
ATOM      5  C   LIG    1       31.910  -3.232  20.953  0.00  0.00    +0.252 C 
ATOM      6  O   LIG    1       30.724  -3.430  21.141  0.00  0.00    -0.270 OA
ATOM      7  C   LIG    1       32.448  -2.835  19.648  0.00  0.00    +0.023 C 
ATOM      8  C   LIG    1       31.652  -2.632  18.427  0.00  0.00    +0.041 C 
ATOM      9  C   LIG    1       32.488  -2.291  17.188  0.00  0.00    +0.005 C 
ATOM     10  C   LIG    1       33.996  -2.013  17.346  0.00  0.00    +0.005 C 
ATOM     11  C   LIG    1       34.689  -2.321  18.682  0.00  0.00    +0.041 C 
ATOM     12  C   LIG    1       33.764  -2.700  19.763  0.00  0.00    +0.023 C 
ENDBRANCH   1   4
BRANCH   1  13
ATOM     13  O   LIG    1       33.162  -2.523  24.002  0.00  0.00    -0.444 OA
BRANCH  13  14
ATOM     14  C   LIG    1       32.047  -1.866  24.384  0.00  0.00    +0.313 C 
ATOM     15  O   LIG    1       31.377  -1.121  23.682  0.00  0.00    -0.250 OA
BRANCH  14  16
ATOM     16  C   LIG    1       31.710  -2.226  25.780  0.00  0.00    +0.111 C 
ATOM     17  C   LIG    1       30.683  -1.533  26.662  0.00  0.00    -0.014 C 
ATOM     18  C   LIG    1       29.938  -2.409  27.646  0.00  0.00    +0.012 C 
ATOM     19  C   LIG    1       29.831  -0.408  26.129  0.00  0.00    +0.012 C 
ATOM     20  C   LIG    1       32.166  -1.339  26.928  0.00  0.00    +0.032 C 
BRANCH  20  21
ATOM     21  C   LIG    1       32.866  -0.077  26.641  0.00  0.00    -0.023 C 
ATOM     22  C   LIG    1       32.941   1.005  27.442  0.00  0.00    -0.079 C 
ATOM     23  C   LIG    1       33.699   2.236  27.024  0.00  0.00    +0.038 C 
ATOM     24  C   LIG    1       32.290   1.098  28.796  0.00  0.00    +0.038 C 
ENDBRANCH  20  21
ENDBRANCH  14  16
ENDBRANCH  13  14
ENDBRANCH   1  13
TORSDOF 5
ENDMDL
MODEL 5
REMARK VINA RESULT:      -8.3      4.768      6.895
REMARK  Name = 
REMARK                            x       y       z     vdW  Elec       q    Type
REMARK                         _______ _______ _______ _____ _____    ______ ____
ROOT
ATOM      1  C   LIG    1       31.588  -2.508  26.079  0.00  0.00    +0.352 C 
ENDROOT
BRANCH   1   4
ATOM      2  O   LIG    1       32.097   0.105  24.926  0.00  0.00    -0.270 OA
ATOM      3  C   LIG    1       32.523  -0.238  26.014  0.00  0.00    +0.252 C 
ATOM      4  N   LIG    1       32.358  -1.425  26.652  0.00  0.00    -0.200 N 
ATOM      5  C   LIG    1       33.000  -1.416  27.851  0.00  0.00    +0.252 C 
ATOM      6  O   LIG    1       33.094  -2.274  28.709  0.00  0.00    -0.270 OA
ATOM      7  C   LIG    1       33.626  -0.097  27.979  0.00  0.00    +0.023 C 
ATOM      8  C   LIG    1       34.425   0.356  29.128  0.00  0.00    +0.041 C 
ATOM      9  C   LIG    1       34.895   1.812  29.026  0.00  0.00    +0.005 C 
ATOM     10  C   LIG    1       34.672   2.588  27.713  0.00  0.00    +0.005 C 
ATOM     11  C   LIG    1       33.770   1.990  26.622  0.00  0.00    +0.041 C 
ATOM     12  C   LIG    1       33.341   0.608  26.890  0.00  0.00    +0.023 C 
ENDBRANCH   1   4
BRANCH   1  13
ATOM     13  O   LIG    1       30.420  -2.732  26.849  0.00  0.00    -0.444 OA
BRANCH  13  14
ATOM     14  C   LIG    1       29.393  -1.894  26.599  0.00  0.00    +0.313 C 
ATOM     15  O   LIG    1       29.243  -1.223  25.588  0.00  0.00    -0.250 OA
BRANCH  14  16
ATOM     16  C   LIG    1       28.422  -1.948  27.718  0.00  0.00    +0.111 C 
ATOM     17  C   LIG    1       27.045  -1.305  27.741  0.00  0.00    -0.014 C 
ATOM     18  C   LIG    1       25.969  -2.043  28.508  0.00  0.00    +0.012 C 
ATOM     19  C   LIG    1       26.502  -0.581  26.534  0.00  0.00    +0.012 C 
ATOM     20  C   LIG    1       28.173  -0.716  28.571  0.00  0.00    +0.032 C 
BRANCH  20  21
ATOM     21  C   LIG    1       28.831   0.555  28.227  0.00  0.00    -0.023 C 
ATOM     22  C   LIG    1       29.946   1.065  28.789  0.00  0.00    -0.079 C 
ATOM     23  C   LIG    1       30.517   2.381  28.336  0.00  0.00    +0.038 C 
ATOM     24  C   LIG    1       30.711   0.397  29.900  0.00  0.00    +0.038 C 
ENDBRANCH  20  21
ENDBRANCH  14  16
ENDBRANCH  13  14
ENDBRANCH   1  13
TORSDOF 5
ENDMDL
MODEL 6
REMARK VINA RESULT:      -8.2      4.767      6.891
REMARK  Name = 
REMARK                            x       y       z     vdW  Elec       q    Type
REMARK                         _______ _______ _______ _____ _____    ______ ____
ROOT
ATOM      1  C   LIG    1       31.623  -2.528  26.087  0.00  0.00    +0.352 C 
ENDROOT
BRANCH   1   4
ATOM      2  O   LIG    1       33.031  -2.317  28.615  0.00  0.00    -0.270 OA
ATOM      3  C   LIG    1       32.982  -1.412  27.802  0.00  0.00    +0.252 C 
ATOM      4  N   LIG    1       32.357  -1.390  26.597  0.00  0.00    -0.200 N 
ATOM      5  C   LIG    1       32.533  -0.186  25.990  0.00  0.00    +0.252 C 
ATOM      6  O   LIG    1       32.137   0.230  24.917  0.00  0.00    -0.270 OA
ATOM      7  C   LIG    1       33.349   0.624  26.900  0.00  0.00    +0.023 C 
ATOM      8  C   LIG    1       33.789   2.005  26.644  0.00  0.00    +0.041 C 
ATOM      9  C   LIG    1       34.696   2.583  27.737  0.00  0.00    +0.005 C 
ATOM     10  C   LIG    1       34.910   1.788  29.039  0.00  0.00    +0.005 C 
ATOM     11  C   LIG    1       34.425   0.332  29.130  0.00  0.00    +0.041 C 
ATOM     12  C   LIG    1       33.622  -0.104  27.976  0.00  0.00    +0.023 C 
ENDBRANCH   1   4
BRANCH   1  13
ATOM     13  O   LIG    1       30.459  -2.742  26.867  0.00  0.00    -0.444 OA
BRANCH  13  14
ATOM     14  C   LIG    1       29.428  -1.910  26.608  0.00  0.00    +0.313 C 
ATOM     15  O   LIG    1       29.283  -1.240  25.596  0.00  0.00    -0.250 OA
BRANCH  14  16
ATOM     16  C   LIG    1       28.449  -1.969  27.719  0.00  0.00    +0.111 C 
ATOM     17  C   LIG    1       27.068  -1.335  27.730  0.00  0.00    -0.014 C 
ATOM     18  C   LIG    1       25.990  -2.078  28.490  0.00  0.00    +0.012 C 
ATOM     19  C   LIG    1       26.530  -0.616  26.518  0.00  0.00    +0.012 C 
ATOM     20  C   LIG    1       28.185  -0.737  28.568  0.00  0.00    +0.032 C 
BRANCH  20  21
ATOM     21  C   LIG    1       28.838   0.537  28.229  0.00  0.00    -0.023 C 
ATOM     22  C   LIG    1       29.952   1.049  28.790  0.00  0.00    -0.079 C 
ATOM     23  C   LIG    1       30.517   2.370  28.341  0.00  0.00    +0.038 C 
ATOM     24  C   LIG    1       30.722   0.380  29.896  0.00  0.00    +0.038 C 
ENDBRANCH  20  21
ENDBRANCH  14  16
ENDBRANCH  13  14
ENDBRANCH   1  13
TORSDOF 5
ENDMDL
MODEL 7
REMARK VINA RESULT:      -8.0      5.152      7.996
REMARK  Name = 
REMARK                            x       y       z     vdW  Elec       q    Type
REMARK                         _______ _______ _______ _____ _____    ______ ____
ROOT
ATOM      1  C   LIG    1       29.018   1.582  28.879  0.00  0.00    +0.352 C 
ENDROOT
BRANCH   1   4
ATOM      2  O   LIG    1       30.664   2.119  26.552  0.00  0.00    -0.270 OA
ATOM      3  C   LIG    1       31.125   1.835  27.643  0.00  0.00    +0.252 C 
ATOM      4  N   LIG    1       30.462   1.560  28.796  0.00  0.00    -0.200 N 
ATOM      5  C   LIG    1       31.340   1.282  29.796  0.00  0.00    +0.252 C 
ATOM      6  O   LIG    1       31.151   0.988  30.962  0.00  0.00    -0.270 OA
ATOM      7  C   LIG    1       32.682   1.395  29.217  0.00  0.00    +0.023 C 
ATOM      8  C   LIG    1       33.942   1.180  29.945  0.00  0.00    +0.041 C 
ATOM      9  C   LIG    1       35.199   1.439  29.106  0.00  0.00    +0.005 C 
ATOM     10  C   LIG    1       35.058   1.704  27.595  0.00  0.00    +0.005 C 
ATOM     11  C   LIG    1       33.665   1.952  26.994  0.00  0.00    +0.041 C 
ATOM     12  C   LIG    1       32.558   1.729  27.937  0.00  0.00    +0.023 C 
ENDBRANCH   1   4
BRANCH   1  13
ATOM     13  O   LIG    1       28.505   0.268  28.731  0.00  0.00    -0.444 OA
BRANCH  13  14
ATOM     14  C   LIG    1       27.835   0.035  27.583  0.00  0.00    +0.313 C 
ATOM     15  O   LIG    1       27.344   0.884  26.853  0.00  0.00    -0.250 OA
BRANCH  14  16
ATOM     16  C   LIG    1       27.830  -1.418  27.296  0.00  0.00    +0.111 C 
ATOM     17  C   LIG    1       28.848  -2.433  27.790  0.00  0.00    -0.014 C 
ATOM     18  C   LIG    1       28.328  -3.825  28.080  0.00  0.00    +0.012 C 
ATOM     19  C   LIG    1       29.965  -2.028  28.719  0.00  0.00    +0.012 C 
ATOM     20  C   LIG    1       28.844  -2.009  26.331  0.00  0.00    +0.032 C 
BRANCH  20  21
ATOM     21  C   LIG    1       29.888  -1.148  25.752  0.00  0.00    -0.023 C 
ATOM     22  C   LIG    1       31.162  -1.495  25.480  0.00  0.00    -0.079 C 
ATOM     23  C   LIG    1       32.129  -0.510  24.880  0.00  0.00    +0.038 C 
ATOM     24  C   LIG    1       31.739  -2.859  25.745  0.00  0.00    +0.038 C 
ENDBRANCH  20  21
ENDBRANCH  14  16
ENDBRANCH  13  14
ENDBRANCH   1  13
TORSDOF 5
ENDMDL
MODEL 8
REMARK VINA RESULT:      -7.8      5.426      7.942
REMARK  Name = 
REMARK                            x       y       z     vdW  Elec       q    Type
REMARK                         _______ _______ _______ _____ _____    ______ ____
ROOT
ATOM      1  C   LIG    1       29.551   1.425  26.276  0.00  0.00    +0.352 C 
ENDROOT
BRANCH   1   4
ATOM      2  O   LIG    1       29.512   1.521  29.175  0.00  0.00    -0.270 OA
ATOM      3  C   LIG    1       30.539   1.462  28.524  0.00  0.00    +0.252 C 
ATOM      4  N   LIG    1       30.685   1.417  27.175  0.00  0.00    -0.200 N 
ATOM      5  C   LIG    1       32.001   1.363  26.838  0.00  0.00    +0.252 C 
ATOM      6  O   LIG    1       32.543   1.314  25.749  0.00  0.00    -0.270 OA
ATOM      7  C   LIG    1       32.754   1.372  28.096  0.00  0.00    +0.023 C 
ATOM      8  C   LIG    1       34.220   1.322  28.208  0.00  0.00    +0.041 C 
ATOM      9  C   LIG    1       34.734   1.270  29.652  0.00  0.00    +0.005 C 
ATOM     10  C   LIG    1       33.740   1.458  30.815  0.00  0.00    +0.005 C 
ATOM     11  C   LIG    1       32.229   1.445  30.532  0.00  0.00    +0.041 C 
ATOM     12  C   LIG    1       31.888   1.426  29.101  0.00  0.00    +0.023 C 
ENDBRANCH   1   4
BRANCH   1  13
ATOM     13  O   LIG    1       29.115   0.098  26.035  0.00  0.00    -0.444 OA
BRANCH  13  14
ATOM     14  C   LIG    1       27.943  -0.240  26.611  0.00  0.00    +0.313 C 
ATOM     15  O   LIG    1       27.172   0.525  27.173  0.00  0.00    -0.250 OA
BRANCH  14  16
ATOM     16  C   LIG    1       27.689  -1.686  26.412  0.00  0.00    +0.111 C 
ATOM     17  C   LIG    1       27.047  -2.630  27.417  0.00  0.00    -0.014 C 
ATOM     18  C   LIG    1       26.197  -3.745  26.847  0.00  0.00    +0.012 C 
ATOM     19  C   LIG    1       26.527  -2.124  28.740  0.00  0.00    +0.012 C 
ATOM     20  C   LIG    1       28.537  -2.717  27.138  0.00  0.00    +0.032 C 
BRANCH  20  21
ATOM     21  C   LIG    1       29.553  -2.274  28.107  0.00  0.00    -0.023 C 
ATOM     22  C   LIG    1       30.885  -2.202  27.905  0.00  0.00    -0.079 C 
ATOM     23  C   LIG    1       31.814  -1.725  28.988  0.00  0.00    +0.038 C 
ATOM     24  C   LIG    1       31.564  -2.588  26.619  0.00  0.00    +0.038 C 
ENDBRANCH  20  21
ENDBRANCH  14  16
ENDBRANCH  13  14
ENDBRANCH   1  13
TORSDOF 5
ENDMDL
MODEL 9
REMARK VINA RESULT:      -7.8      4.448      6.459
REMARK  Name = 
REMARK                            x       y       z     vdW  Elec       q    Type
REMARK                         _______ _______ _______ _____ _____    ______ ____
ROOT
ATOM      1  C   LIG    1       31.610  -1.726  25.255  0.00  0.00    +0.352 C 
ENDROOT
BRANCH   1   4
ATOM      2  O   LIG    1       32.789  -2.422  27.812  0.00  0.00    -0.270 OA
ATOM      3  C   LIG    1       32.895  -1.319  27.308  0.00  0.00    +0.252 C 
ATOM      4  N   LIG    1       32.389  -0.876  26.128  0.00  0.00    -0.200 N 
ATOM      5  C   LIG    1       32.726   0.426  25.923  0.00  0.00    +0.252 C 
ATOM      6  O   LIG    1       32.469   1.179  25.002  0.00  0.00    -0.270 OA
ATOM      7  C   LIG    1       33.521   0.838  27.084  0.00  0.00    +0.023 C 
ATOM      8  C   LIG    1       34.101   2.175  27.284  0.00  0.00    +0.041 C 
ATOM      9  C   LIG    1       34.950   2.303  28.555  0.00  0.00    +0.005 C 
ATOM     10  C   LIG    1       34.972   1.143  29.569  0.00  0.00    +0.005 C 
ATOM     11  C   LIG    1       34.355  -0.211  29.187  0.00  0.00    +0.041 C 
ATOM     12  C   LIG    1       33.628  -0.199  27.907  0.00  0.00    +0.023 C 
ENDBRANCH   1   4
BRANCH   1  13
ATOM     13  O   LIG    1       30.292  -1.218  25.134  0.00  0.00    -0.444 OA
BRANCH  13  14
ATOM     14  C   LIG    1       29.540  -1.289  26.252  0.00  0.00    +0.313 C 
ATOM     15  O   LIG    1       29.180  -2.315  26.811  0.00  0.00    -0.250 OA
BRANCH  14  16
ATOM     16  C   LIG    1       29.256   0.077  26.749  0.00  0.00    +0.111 C 
ATOM     17  C   LIG    1       29.576   0.611  28.136  0.00  0.00    -0.014 C 
ATOM     18  C   LIG    1       29.945   2.076  28.226  0.00  0.00    +0.012 C 
ATOM     19  C   LIG    1       30.313  -0.234  29.146  0.00  0.00    +0.012 C 
ATOM     20  C   LIG    1       28.139   0.306  27.754  0.00  0.00    +0.032 C 
BRANCH  20  21
ATOM     21  C   LIG    1       27.399  -0.844  28.298  0.00  0.00    -0.023 C 
ATOM     22  C   LIG    1       26.270  -1.388  27.800  0.00  0.00    -0.079 C 
ATOM     23  C   LIG    1       25.617  -2.573  28.458  0.00  0.00    +0.038 C 
ATOM     24  C   LIG    1       25.558  -0.878  26.576  0.00  0.00    +0.038 C 
ENDBRANCH  20  21
ENDBRANCH  14  16
ENDBRANCH  13  14
ENDBRANCH   1  13
TORSDOF 5
ENDMDL
