MODEL 1
REMARK VINA RESULT:      -7.9      0.000      0.000
REMARK  Name = 
REMARK                            x       y       z     vdW  Elec       q    Type
REMARK                         _______ _______ _______ _____ _____    ______ ____
ROOT
ATOM      1  C   LIG    1       69.575  49.485  99.086  0.00  0.00    +0.352 C 
ENDROOT
BRANCH   1   4
ATOM      2  O   LIG    1       66.901  49.299 100.196  0.00  0.00    -0.270 OA
ATOM      3  C   LIG    1       67.546  48.327  99.847  0.00  0.00    +0.252 C 
ATOM      4  N   LIG    1       68.798  48.287  99.322  0.00  0.00    -0.200 N 
ATOM      5  C   LIG    1       69.169  47.003  99.070  0.00  0.00    +0.252 C 
ATOM      6  O   LIG    1       70.200  46.548  98.609  0.00  0.00    -0.270 OA
ATOM      7  C   LIG    1       68.042  46.156  99.473  0.00  0.00    +0.023 C 
ATOM      8  C   LIG    1       68.003  44.689  99.373  0.00  0.00    +0.041 C 
ATOM      9  C   LIG    1       66.667  44.070  99.799  0.00  0.00    +0.005 C 
ATOM     10  C   LIG    1       65.591  44.965 100.445  0.00  0.00    +0.005 C 
ATOM     11  C   LIG    1       65.763  46.492 100.429  0.00  0.00    +0.041 C 
ATOM     12  C   LIG    1       67.073  46.941  99.931  0.00  0.00    +0.023 C 
ENDBRANCH   1   4
BRANCH   1  13
ATOM     13  O   LIG    1       69.077  50.168  97.948  0.00  0.00    -0.444 OA
BRANCH  13  14
ATOM     14  C   LIG    1       69.031  49.442  96.812  0.00  0.00    +0.313 C 
ATOM     15  O   LIG    1       69.984  49.165  96.098  0.00  0.00    -0.250 OA
BRANCH  14  16
ATOM     16  C   LIG    1       67.646  48.970  96.577  0.00  0.00    +0.111 C 
ATOM     17  C   LIG    1       67.245  47.622  96.002  0.00  0.00    -0.014 C 
ATOM     18  C   LIG    1       65.958  47.020  96.526  0.00  0.00    +0.012 C 
ATOM     19  C   LIG    1       68.280  46.575  95.672  0.00  0.00    +0.012 C 
ATOM     20  C   LIG    1       67.101  48.879  95.162  0.00  0.00    +0.032 C 
BRANCH  20  21
ATOM     21  C   LIG    1       67.981  49.176  94.020  0.00  0.00    -0.023 C 
ATOM     22  C   LIG    1       67.887  48.669  92.774  0.00  0.00    -0.079 C 
ATOM     23  C   LIG    1       68.857  49.064  91.694  0.00  0.00    +0.038 C 
ATOM     24  C   LIG    1       66.839  47.677  92.345  0.00  0.00    +0.038 C 
ENDBRANCH  20  21
ENDBRANCH  14  16
ENDBRANCH  13  14
ENDBRANCH   1  13
TORSDOF 5
ENDMDL
MODEL 2
REMARK VINA RESULT:      -7.9      1.633      5.408
REMARK  Name = 
REMARK                            x       y       z     vdW  Elec       q    Type
REMARK                         _______ _______ _______ _____ _____    ______ ____
ROOT
ATOM      1  C   LIG    1       68.236  49.789  98.178  0.00  0.00    +0.352 C 
ENDROOT
BRANCH   1   4
ATOM      2  O   LIG    1       70.460  48.451  96.883  0.00  0.00    -0.270 OA
ATOM      3  C   LIG    1       69.476  48.842  96.282  0.00  0.00    +0.252 C 
ATOM      4  N   LIG    1       68.383  49.480  96.772  0.00  0.00    -0.200 N 
ATOM      5  C   LIG    1       67.503  49.758  95.773  0.00  0.00    +0.252 C 
ATOM      6  O   LIG    1       66.420  50.313  95.797  0.00  0.00    -0.270 OA
ATOM      7  C   LIG    1       68.100  49.242  94.537  0.00  0.00    +0.023 C 
ATOM      8  C   LIG    1       67.489  49.321  93.201  0.00  0.00    +0.041 C 
ATOM      9  C   LIG    1       68.304  48.633  92.101  0.00  0.00    +0.005 C 
ATOM     10  C   LIG    1       69.716  48.106  92.423  0.00  0.00    +0.005 C 
ATOM     11  C   LIG    1       70.191  48.051  93.884  0.00  0.00    +0.041 C 
ATOM     12  C   LIG    1       69.272  48.693  94.837  0.00  0.00    +0.023 C 
ENDBRANCH   1   4
BRANCH   1  13
ATOM     13  O   LIG    1       67.184  49.020  98.736  0.00  0.00    -0.444 OA
BRANCH  13  14
ATOM     14  C   LIG    1       67.569  47.924  99.422  0.00  0.00    +0.313 C 
ATOM     15  O   LIG    1       68.656  47.757  99.958  0.00  0.00    -0.250 OA
BRANCH  14  16
ATOM     16  C   LIG    1       66.449  46.956  99.485  0.00  0.00    +0.111 C 
ATOM     17  C   LIG    1       66.528  45.527  99.995  0.00  0.00    -0.014 C 
ATOM     18  C   LIG    1       65.296  44.991 100.694  0.00  0.00    +0.012 C 
ATOM     19  C   LIG    1       67.807  44.975 100.575  0.00  0.00    +0.012 C 
ATOM     20  C   LIG    1       66.389  45.795  98.507  0.00  0.00    +0.032 C 
BRANCH  20  21
ATOM     21  C   LIG    1       67.492  45.583  97.556  0.00  0.00    -0.023 C 
ATOM     22  C   LIG    1       67.431  45.683  96.213  0.00  0.00    -0.079 C 
ATOM     23  C   LIG    1       68.644  45.442  95.355  0.00  0.00    +0.038 C 
ATOM     24  C   LIG    1       66.180  46.026  95.449  0.00  0.00    +0.038 C 
ENDBRANCH  20  21
ENDBRANCH  14  16
ENDBRANCH  13  14
ENDBRANCH   1  13
TORSDOF 5
ENDMDL
MODEL 3
REMARK VINA RESULT:      -7.8      0.051      1.814
REMARK  Name = 
REMARK                            x       y       z     vdW  Elec       q    Type
REMARK                         _______ _______ _______ _____ _____    ______ ____
ROOT
ATOM      1  C   LIG    1       69.634  49.418  99.044  0.00  0.00    +0.352 C 
ENDROOT
BRANCH   1   4
ATOM      2  O   LIG    1       70.193  46.608  98.589  0.00  0.00    -0.270 OA
ATOM      3  C   LIG    1       69.144  47.011  99.058  0.00  0.00    +0.252 C 
ATOM      4  N   LIG    1       68.766  48.291  99.311  0.00  0.00    -0.200 N 
ATOM      5  C   LIG    1       67.510  48.325  99.830  0.00  0.00    +0.252 C 
ATOM      6  O   LIG    1       66.820  49.263 100.184  0.00  0.00    -0.270 OA
ATOM      7  C   LIG    1       67.055  46.933  99.913  0.00  0.00    +0.023 C 
ATOM      8  C   LIG    1       65.746  46.496 100.422  0.00  0.00    +0.041 C 
ATOM      9  C   LIG    1       65.570  44.973 100.462  0.00  0.00    +0.005 C 
ATOM     10  C   LIG    1       66.642  44.071  99.822  0.00  0.00    +0.005 C 
ATOM     11  C   LIG    1       67.981  44.680  99.378  0.00  0.00    +0.041 C 
ATOM     12  C   LIG    1       68.027  46.149  99.458  0.00  0.00    +0.023 C 
ENDBRANCH   1   4
BRANCH   1  13
ATOM     13  O   LIG    1       69.159  50.138  97.920  0.00  0.00    -0.444 OA
BRANCH  13  14
ATOM     14  C   LIG    1       69.086  49.434  96.771  0.00  0.00    +0.313 C 
ATOM     15  O   LIG    1       70.025  49.157  96.038  0.00  0.00    -0.250 OA
BRANCH  14  16
ATOM     16  C   LIG    1       67.692  48.986  96.549  0.00  0.00    +0.111 C 
ATOM     17  C   LIG    1       67.262  47.645  95.977  0.00  0.00    -0.014 C 
ATOM     18  C   LIG    1       65.970  47.065  96.512  0.00  0.00    +0.012 C 
ATOM     19  C   LIG    1       68.277  46.580  95.638  0.00  0.00    +0.012 C 
ATOM     20  C   LIG    1       67.133  48.904  95.138  0.00  0.00    +0.032 C 
BRANCH  20  21
ATOM     21  C   LIG    1       68.008  49.186  93.989  0.00  0.00    -0.023 C 
ATOM     22  C   LIG    1       67.902  48.670  92.747  0.00  0.00    -0.079 C 
ATOM     23  C   LIG    1       68.869  49.050  91.658  0.00  0.00    +0.038 C 
ATOM     24  C   LIG    1       66.845  47.683  92.332  0.00  0.00    +0.038 C 
ENDBRANCH  20  21
ENDBRANCH  14  16
ENDBRANCH  13  14
ENDBRANCH   1  13
TORSDOF 5
ENDMDL
MODEL 4
REMARK VINA RESULT:      -7.6      2.022      5.463
REMARK  Name = 
REMARK                            x       y       z     vdW  Elec       q    Type
REMARK                         _______ _______ _______ _____ _____    ______ ____
ROOT
ATOM      1  C   LIG    1       67.211  45.433  97.462  0.00  0.00    +0.352 C 
ENDROOT
BRANCH   1   4
ATOM      2  O   LIG    1       65.592  46.168  95.170  0.00  0.00    -0.270 OA
ATOM      3  C   LIG    1       66.772  46.450  95.270  0.00  0.00    +0.252 C 
ATOM      4  N   LIG    1       67.629  46.160  96.283  0.00  0.00    -0.200 N 
ATOM      5  C   LIG    1       68.870  46.644  96.012  0.00  0.00    +0.252 C 
ATOM      6  O   LIG    1       69.903  46.593  96.655  0.00  0.00    -0.270 OA
ATOM      7  C   LIG    1       68.784  47.304  94.705  0.00  0.00    +0.023 C 
ATOM      8  C   LIG    1       69.899  47.976  94.018  0.00  0.00    +0.041 C 
ATOM      9  C   LIG    1       69.503  48.645  92.696  0.00  0.00    +0.005 C 
ATOM     10  C   LIG    1       68.092  48.413  92.124  0.00  0.00    +0.005 C 
ATOM     11  C   LIG    1       67.023  47.729  92.992  0.00  0.00    +0.041 C 
ATOM     12  C   LIG    1       67.537  47.194  94.263  0.00  0.00    +0.023 C 
ENDBRANCH   1   4
BRANCH   1  13
ATOM     13  O   LIG    1       68.019  45.799  98.568  0.00  0.00    -0.444 OA
BRANCH  13  14
ATOM     14  C   LIG    1       67.522  46.781  99.348  0.00  0.00    +0.313 C 
ATOM     15  O   LIG    1       66.399  46.815  99.831  0.00  0.00    -0.250 OA
BRANCH  14  16
ATOM     16  C   LIG    1       68.567  47.803  99.590  0.00  0.00    +0.111 C 
ATOM     17  C   LIG    1       68.362  49.155 100.254  0.00  0.00    -0.014 C 
ATOM     18  C   LIG    1       69.514  49.681 101.084  0.00  0.00    +0.012 C 
ATOM     19  C   LIG    1       67.018  49.554 100.811  0.00  0.00    +0.012 C 
ATOM     20  C   LIG    1       68.600  49.073  98.756  0.00  0.00    +0.032 C 
BRANCH  20  21
ATOM     21  C   LIG    1       67.539  49.325  97.768  0.00  0.00    -0.023 C 
ATOM     22  C   LIG    1       67.654  50.018  96.617  0.00  0.00    -0.079 C 
ATOM     23  C   LIG    1       66.481  50.197  95.692  0.00  0.00    +0.038 C 
ATOM     24  C   LIG    1       68.926  50.675  96.153  0.00  0.00    +0.038 C 
ENDBRANCH  20  21
ENDBRANCH  14  16
ENDBRANCH  13  14
ENDBRANCH   1  13
TORSDOF 5
ENDMDL
MODEL 5
REMARK VINA RESULT:      -7.4      1.667      5.144
REMARK  Name = 
REMARK                            x       y       z     vdW  Elec       q    Type
REMARK                         _______ _______ _______ _____ _____    ______ ____
ROOT
ATOM      1  C   LIG    1       67.796  49.800  98.076  0.00  0.00    +0.352 C 
ENDROOT
BRANCH   1   4
ATOM      2  O   LIG    1       66.548  50.586  95.578  0.00  0.00    -0.270 OA
ATOM      3  C   LIG    1       67.535  49.876  95.634  0.00  0.00    +0.252 C 
ATOM      4  N   LIG    1       68.202  49.440  96.734  0.00  0.00    -0.200 N 
ATOM      5  C   LIG    1       69.254  48.656  96.376  0.00  0.00    +0.252 C 
ATOM      6  O   LIG    1       70.084  48.079  97.054  0.00  0.00    -0.270 OA
ATOM      7  C   LIG    1       69.249  48.596  94.911  0.00  0.00    +0.023 C 
ATOM      8  C   LIG    1       70.219  47.857  94.088  0.00  0.00    +0.041 C 
ATOM      9  C   LIG    1       70.017  48.032  92.578  0.00  0.00    +0.005 C 
ATOM     10  C   LIG    1       68.767  48.772  92.064  0.00  0.00    +0.005 C 
ATOM     11  C   LIG    1       67.875  49.536  93.054  0.00  0.00    +0.041 C 
ATOM     12  C   LIG    1       68.231  49.324  94.467  0.00  0.00    +0.023 C 
ENDBRANCH   1   4
BRANCH   1  13
ATOM     13  O   LIG    1       67.064  48.737  98.662  0.00  0.00    -0.444 OA
BRANCH  13  14
ATOM     14  C   LIG    1       67.719  48.041  99.615  0.00  0.00    +0.313 C 
ATOM     15  O   LIG    1       68.707  48.418 100.228  0.00  0.00    -0.250 OA
BRANCH  14  16
ATOM     16  C   LIG    1       67.024  46.756  99.859  0.00  0.00    +0.111 C 
ATOM     17  C   LIG    1       67.474  45.387  99.375  0.00  0.00    -0.014 C 
ATOM     18  C   LIG    1       67.166  44.215 100.282  0.00  0.00    +0.012 C 
ATOM     19  C   LIG    1       68.773  45.213  98.627  0.00  0.00    +0.012 C 
ATOM     20  C   LIG    1       66.279  46.065  98.729  0.00  0.00    +0.032 C 
BRANCH  20  21
ATOM     21  C   LIG    1       66.325  46.631  97.371  0.00  0.00    -0.023 C 
ATOM     22  C   LIG    1       66.362  45.945  96.210  0.00  0.00    -0.079 C 
ATOM     23  C   LIG    1       66.403  46.655  94.884  0.00  0.00    +0.038 C 
ATOM     24  C   LIG    1       66.375  44.443  96.120  0.00  0.00    +0.038 C 
ENDBRANCH  20  21
ENDBRANCH  14  16
ENDBRANCH  13  14
ENDBRANCH   1  13
TORSDOF 5
ENDMDL
MODEL 6
REMARK VINA RESULT:      -7.2      1.062      2.653
REMARK  Name = 
REMARK                            x       y       z     vdW  Elec       q    Type
REMARK                         _______ _______ _______ _____ _____    ______ ____
ROOT
ATOM      1  C   LIG    1       69.442  49.475  98.434  0.00  0.00    +0.352 C 
ENDROOT
BRANCH   1   4
ATOM      2  O   LIG    1       66.815  49.363  99.659  0.00  0.00    -0.270 OA
ATOM      3  C   LIG    1       67.469  48.371  99.395  0.00  0.00    +0.252 C 
ATOM      4  N   LIG    1       68.702  48.296  98.830  0.00  0.00    -0.200 N 
ATOM      5  C   LIG    1       69.094  47.000  98.707  0.00  0.00    +0.252 C 
ATOM      6  O   LIG    1       70.117  46.516  98.260  0.00  0.00    -0.270 OA
ATOM      7  C   LIG    1       68.001  46.182  99.244  0.00  0.00    +0.023 C 
ATOM      8  C   LIG    1       67.993  44.712  99.308  0.00  0.00    +0.041 C 
ATOM      9  C   LIG    1       66.687  44.119  99.850  0.00  0.00    +0.005 C 
ATOM     10  C   LIG    1       65.615  45.059 100.434  0.00  0.00    +0.005 C 
ATOM     11  C   LIG    1       65.751  46.578 100.243  0.00  0.00    +0.041 C 
ATOM     12  C   LIG    1       67.032  46.995  99.649  0.00  0.00    +0.023 C 
ENDBRANCH   1   4
BRANCH   1  13
ATOM     13  O   LIG    1       70.004  49.284  97.147  0.00  0.00    -0.444 OA
BRANCH  13  14
ATOM     14  C   LIG    1       69.137  49.379  96.117  0.00  0.00    +0.313 C 
ATOM     15  O   LIG    1       68.118  50.055  96.096  0.00  0.00    -0.250 OA
BRANCH  14  16
ATOM     16  C   LIG    1       69.632  48.579  94.973  0.00  0.00    +0.111 C 
ATOM     17  C   LIG    1       69.012  48.518  93.587  0.00  0.00    -0.014 C 
ATOM     18  C   LIG    1       69.968  48.342  92.426  0.00  0.00    +0.012 C 
ATOM     19  C   LIG    1       67.817  49.367  93.229  0.00  0.00    +0.012 C 
ATOM     20  C   LIG    1       68.881  47.335  94.530  0.00  0.00    +0.032 C 
BRANCH  20  21
ATOM     21  C   LIG    1       67.613  46.976  95.184  0.00  0.00    -0.023 C 
ATOM     22  C   LIG    1       67.291  45.783  95.723  0.00  0.00    -0.079 C 
ATOM     23  C   LIG    1       65.951  45.553  96.369  0.00  0.00    +0.038 C 
ATOM     24  C   LIG    1       68.204  44.587  95.730  0.00  0.00    +0.038 C 
ENDBRANCH  20  21
ENDBRANCH  14  16
ENDBRANCH  13  14
ENDBRANCH   1  13
TORSDOF 5
ENDMDL
MODEL 7
REMARK VINA RESULT:      -7.2      1.627      3.223
REMARK  Name = 
REMARK                            x       y       z     vdW  Elec       q    Type
REMARK                         _______ _______ _______ _____ _____    ______ ____
ROOT
ATOM      1  C   LIG    1       68.718  50.011  97.615  0.00  0.00    +0.352 C 
ENDROOT
BRANCH   1   4
ATOM      2  O   LIG    1       70.074  48.709  99.824  0.00  0.00    -0.270 OA
ATOM      3  C   LIG    1       69.001  48.334  99.387  0.00  0.00    +0.252 C 
ATOM      4  N   LIG    1       68.276  48.855  98.364  0.00  0.00    -0.200 N 
ATOM      5  C   LIG    1       67.131  48.144  98.179  0.00  0.00    +0.252 C 
ATOM      6  O   LIG    1       66.228  48.284  97.375  0.00  0.00    -0.270 OA
ATOM      7  C   LIG    1       67.137  47.076  99.184  0.00  0.00    +0.023 C 
ATOM      8  C   LIG    1       66.082  46.065  99.355  0.00  0.00    +0.041 C 
ATOM      9  C   LIG    1       66.315  45.115 100.536  0.00  0.00    +0.005 C 
ATOM     10  C   LIG    1       67.655  45.166 101.295  0.00  0.00    +0.005 C 
ATOM     11  C   LIG    1       68.634  46.320 101.029  0.00  0.00    +0.041 C 
ATOM     12  C   LIG    1       68.245  47.190  99.908  0.00  0.00    +0.023 C 
ENDBRANCH   1   4
BRANCH   1  13
ATOM     13  O   LIG    1       69.469  49.599  96.486  0.00  0.00    -0.444 OA
BRANCH  13  14
ATOM     14  C   LIG    1       68.773  49.495  95.335  0.00  0.00    +0.313 C 
ATOM     15  O   LIG    1       67.687  50.007  95.104  0.00  0.00    -0.250 OA
BRANCH  14  16
ATOM     16  C   LIG    1       69.552  48.706  94.352  0.00  0.00    +0.111 C 
ATOM     17  C   LIG    1       69.200  48.500  92.888  0.00  0.00    -0.014 C 
ATOM     18  C   LIG    1       70.362  48.386  91.924  0.00  0.00    +0.012 C 
ATOM     19  C   LIG    1       68.001  49.179  92.271  0.00  0.00    +0.012 C 
ATOM     20  C   LIG    1       69.036  47.359  93.875  0.00  0.00    +0.032 C 
BRANCH  20  21
ATOM     21  C   LIG    1       67.719  46.881  94.325  0.00  0.00    -0.023 C 
ATOM     22  C   LIG    1       67.475  45.996  95.313  0.00  0.00    -0.079 C 
ATOM     23  C   LIG    1       66.069  45.596  95.675  0.00  0.00    +0.038 C 
ATOM     24  C   LIG    1       68.547  45.327  96.130  0.00  0.00    +0.038 C 
ENDBRANCH  20  21
ENDBRANCH  14  16
ENDBRANCH  13  14
ENDBRANCH   1  13
TORSDOF 5
ENDMDL
MODEL 8
REMARK VINA RESULT:      -7.1      2.201      6.387
REMARK  Name = 
REMARK                            x       y       z     vdW  Elec       q    Type
REMARK                         _______ _______ _______ _____ _____    ______ ____
ROOT
ATOM      1  C   LIG    1       66.664  45.724  96.542  0.00  0.00    +0.352 C 
ENDROOT
BRANCH   1   4
ATOM      2  O   LIG    1       65.625  46.685  94.010  0.00  0.00    -0.270 OA
ATOM      3  C   LIG    1       66.754  46.922  94.400  0.00  0.00    +0.252 C 
ATOM      4  N   LIG    1       67.351  46.528  95.554  0.00  0.00    -0.200 N 
ATOM      5  C   LIG    1       68.627  46.994  95.616  0.00  0.00    +0.252 C 
ATOM      6  O   LIG    1       69.483  46.861  96.471  0.00  0.00    -0.270 OA
ATOM      7  C   LIG    1       68.852  47.757  94.384  0.00  0.00    +0.023 C 
ATOM      8  C   LIG    1       70.102  48.447  94.029  0.00  0.00    +0.041 C 
ATOM      9  C   LIG    1       70.030  49.229  92.712  0.00  0.00    +0.005 C 
ATOM     10  C   LIG    1       68.785  49.086  91.815  0.00  0.00    +0.005 C 
ATOM     11  C   LIG    1       67.538  48.369  92.355  0.00  0.00    +0.041 C 
ATOM     12  C   LIG    1       67.739  47.720  93.661  0.00  0.00    +0.023 C 
ENDBRANCH   1   4
BRANCH   1  13
ATOM     13  O   LIG    1       65.928  46.559  97.419  0.00  0.00    -0.444 OA
BRANCH  13  14
ATOM     14  C   LIG    1       66.210  46.413  98.730  0.00  0.00    +0.313 C 
ATOM     15  O   LIG    1       65.460  46.675  99.659  0.00  0.00    -0.250 OA
BRANCH  14  16
ATOM     16  C   LIG    1       67.560  45.823  98.887  0.00  0.00    +0.111 C 
ATOM     17  C   LIG    1       68.132  45.221 100.160  0.00  0.00    -0.014 C 
ATOM     18  C   LIG    1       69.081  44.054  99.987  0.00  0.00    +0.012 C 
ATOM     19  C   LIG    1       67.298  45.107 101.412  0.00  0.00    +0.012 C 
ATOM     20  C   LIG    1       68.631  46.567  99.666  0.00  0.00    +0.032 C 
BRANCH  20  21
ATOM     21  C   LIG    1       68.298  47.833 100.339  0.00  0.00    -0.023 C 
ATOM     22  C   LIG    1       68.830  49.046 100.088  0.00  0.00    -0.079 C 
ATOM     23  C   LIG    1       68.391  50.266 100.853  0.00  0.00    +0.038 C 
ATOM     24  C   LIG    1       69.892  49.303  99.053  0.00  0.00    +0.038 C 
ENDBRANCH  20  21
ENDBRANCH  14  16
ENDBRANCH  13  14
ENDBRANCH   1  13
TORSDOF 5
ENDMDL
MODEL 9
REMARK VINA RESULT:      -6.9      2.208      6.493
REMARK  Name = 
REMARK                            x       y       z     vdW  Elec       q    Type
REMARK                         _______ _______ _______ _____ _____    ______ ____
ROOT
ATOM      1  C   LIG    1       66.734  45.684  96.542  0.00  0.00    +0.352 C 
ENDROOT
BRANCH   1   4
ATOM      2  O   LIG    1       69.406  46.812  96.495  0.00  0.00    -0.270 OA
ATOM      3  C   LIG    1       68.597  46.978  95.600  0.00  0.00    +0.252 C 
ATOM      4  N   LIG    1       67.326  46.509  95.511  0.00  0.00    -0.200 N 
ATOM      5  C   LIG    1       66.744  46.924  94.354  0.00  0.00    +0.252 C 
ATOM      6  O   LIG    1       65.630  46.723  93.907  0.00  0.00    -0.270 OA
ATOM      7  C   LIG    1       67.747  47.727  93.648  0.00  0.00    +0.023 C 
ATOM      8  C   LIG    1       67.549  48.376  92.342  0.00  0.00    +0.041 C 
ATOM      9  C   LIG    1       68.795  49.091  91.806  0.00  0.00    +0.005 C 
ATOM     10  C   LIG    1       70.034  49.232  92.712  0.00  0.00    +0.005 C 
ATOM     11  C   LIG    1       70.102  48.450  94.033  0.00  0.00    +0.041 C 
ATOM     12  C   LIG    1       68.852  47.757  94.384  0.00  0.00    +0.023 C 
ENDBRANCH   1   4
BRANCH   1  13
ATOM     13  O   LIG    1       65.919  46.477  97.388  0.00  0.00    -0.444 OA
BRANCH  13  14
ATOM     14  C   LIG    1       66.209  46.405  98.704  0.00  0.00    +0.313 C 
ATOM     15  O   LIG    1       65.479  46.756  99.620  0.00  0.00    -0.250 OA
BRANCH  14  16
ATOM     16  C   LIG    1       67.537  45.775  98.888  0.00  0.00    +0.111 C 
ATOM     17  C   LIG    1       68.066  45.156 100.171  0.00  0.00    -0.014 C 
ATOM     18  C   LIG    1       68.983  43.961 100.017  0.00  0.00    +0.012 C 
ATOM     19  C   LIG    1       67.204  45.066 101.406  0.00  0.00    +0.012 C 
ATOM     20  C   LIG    1       68.615  46.487  99.689  0.00  0.00    +0.032 C 
BRANCH  20  21
ATOM     21  C   LIG    1       68.306  47.762 100.356  0.00  0.00    -0.023 C 
ATOM     22  C   LIG    1       68.827  48.972 100.068  0.00  0.00    -0.079 C 
ATOM     23  C   LIG    1       68.417  50.202 100.832  0.00  0.00    +0.038 C 
ATOM     24  C   LIG    1       69.850  49.214  98.991  0.00  0.00    +0.038 C 
ENDBRANCH  20  21
ENDBRANCH  14  16
ENDBRANCH  13  14
ENDBRANCH   1  13
TORSDOF 5
ENDMDL
