MODEL 1
REMARK VINA RESULT:      -8.8      0.000      0.000
REMARK  Name = 
REMARK                            x       y       z     vdW  Elec       q    Type
REMARK                         _______ _______ _______ _____ _____    ______ ____
ROOT
ATOM      1  C   LIG    1       39.785  29.402   8.344  0.00  0.00    +0.352 C 
ENDROOT
BRANCH   1   4
ATOM      2  O   LIG    1       37.922  30.816  10.061  0.00  0.00    -0.270 OA
ATOM      3  C   LIG    1       38.403  31.305   9.055  0.00  0.00    +0.252 C 
ATOM      4  N   LIG    1       39.274  30.746   8.176  0.00  0.00    -0.200 N 
ATOM      5  C   LIG    1       39.567  31.617   7.174  0.00  0.00    +0.252 C 
ATOM      6  O   LIG    1       40.294  31.501   6.204  0.00  0.00    -0.270 OA
ATOM      7  C   LIG    1       38.809  32.841   7.451  0.00  0.00    +0.023 C 
ATOM      8  C   LIG    1       38.827  34.057   6.623  0.00  0.00    +0.041 C 
ATOM      9  C   LIG    1       37.995  35.212   7.193  0.00  0.00    +0.005 C 
ATOM     10  C   LIG    1       37.099  34.964   8.422  0.00  0.00    +0.005 C 
ATOM     11  C   LIG    1       37.234  33.650   9.207  0.00  0.00    +0.041 C 
ATOM     12  C   LIG    1       38.119  32.660   8.572  0.00  0.00    +0.023 C 
ENDBRANCH   1   4
BRANCH   1  13
ATOM     13  O   LIG    1       41.147  29.447   8.733  0.00  0.00    -0.444 OA
BRANCH  13  14
ATOM     14  C   LIG    1       41.388  30.013   9.934  0.00  0.00    +0.313 C 
ATOM     15  O   LIG    1       41.864  31.124  10.121  0.00  0.00    -0.250 OA
BRANCH  14  16
ATOM     16  C   LIG    1       40.932  29.107  11.013  0.00  0.00    +0.111 C 
ATOM     17  C   LIG    1       41.685  28.789  12.294  0.00  0.00    -0.014 C 
ATOM     18  C   LIG    1       40.843  28.537  13.527  0.00  0.00    +0.012 C 
ATOM     19  C   LIG    1       42.995  29.464  12.617  0.00  0.00    +0.012 C 
ATOM     20  C   LIG    1       41.587  27.747  11.194  0.00  0.00    +0.032 C 
BRANCH  20  21
ATOM     21  C   LIG    1       42.733  27.371  10.351  0.00  0.00    -0.023 C 
ATOM     22  C   LIG    1       43.548  26.310  10.522  0.00  0.00    -0.079 C 
ATOM     23  C   LIG    1       44.687  26.039   9.577  0.00  0.00    +0.038 C 
ATOM     24  C   LIG    1       43.414  25.317  11.645  0.00  0.00    +0.038 C 
ENDBRANCH  20  21
ENDBRANCH  14  16
ENDBRANCH  13  14
ENDBRANCH   1  13
TORSDOF 5
ENDMDL
MODEL 2
REMARK VINA RESULT:      -8.6      0.082      1.815
REMARK  Name = 
REMARK                            x       y       z     vdW  Elec       q    Type
REMARK                         _______ _______ _______ _____ _____    ______ ____
ROOT
ATOM      1  C   LIG    1       39.844  29.370   8.192  0.00  0.00    +0.352 C 
ENDROOT
BRANCH   1   4
ATOM      2  O   LIG    1       40.286  31.428   6.196  0.00  0.00    -0.270 OA
ATOM      3  C   LIG    1       39.561  31.582   7.162  0.00  0.00    +0.252 C 
ATOM      4  N   LIG    1       39.281  30.703   8.158  0.00  0.00    -0.200 N 
ATOM      5  C   LIG    1       38.429  31.259   9.060  0.00  0.00    +0.252 C 
ATOM      6  O   LIG    1       37.945  30.808  10.082  0.00  0.00    -0.270 OA
ATOM      7  C   LIG    1       38.145  32.617   8.583  0.00  0.00    +0.023 C 
ATOM      8  C   LIG    1       37.261  33.584   9.252  0.00  0.00    +0.041 C 
ATOM      9  C   LIG    1       37.090  34.903   8.489  0.00  0.00    +0.005 C 
ATOM     10  C   LIG    1       37.958  35.175   7.246  0.00  0.00    +0.005 C 
ATOM     11  C   LIG    1       38.797  34.038   6.642  0.00  0.00    +0.041 C 
ATOM     12  C   LIG    1       38.813  32.810   7.452  0.00  0.00    +0.023 C 
ENDBRANCH   1   4
BRANCH   1  13
ATOM     13  O   LIG    1       41.189  29.425   8.637  0.00  0.00    -0.444 OA
BRANCH  13  14
ATOM     14  C   LIG    1       41.377  30.001   9.842  0.00  0.00    +0.313 C 
ATOM     15  O   LIG    1       41.825  31.122  10.040  0.00  0.00    -0.250 OA
BRANCH  14  16
ATOM     16  C   LIG    1       40.902  29.090  10.910  0.00  0.00    +0.111 C 
ATOM     17  C   LIG    1       41.630  28.772  12.205  0.00  0.00    -0.014 C 
ATOM     18  C   LIG    1       40.765  28.515  13.420  0.00  0.00    +0.012 C 
ATOM     19  C   LIG    1       42.932  29.450  12.556  0.00  0.00    +0.012 C 
ATOM     20  C   LIG    1       41.557  27.732  11.100  0.00  0.00    +0.032 C 
BRANCH  20  21
ATOM     21  C   LIG    1       42.721  27.361  10.280  0.00  0.00    -0.023 C 
ATOM     22  C   LIG    1       43.555  26.321  10.485  0.00  0.00    -0.079 C 
ATOM     23  C   LIG    1       44.712  26.054   9.560  0.00  0.00    +0.038 C 
ATOM     24  C   LIG    1       43.428  25.352  11.628  0.00  0.00    +0.038 C 
ENDBRANCH  20  21
ENDBRANCH  14  16
ENDBRANCH  13  14
ENDBRANCH   1  13
TORSDOF 5
ENDMDL
MODEL 3
REMARK VINA RESULT:      -8.6      1.607      2.791
REMARK  Name = 
REMARK                            x       y       z     vdW  Elec       q    Type
REMARK                         _______ _______ _______ _____ _____    ______ ____
ROOT
ATOM      1  C   LIG    1       39.753  29.540   7.414  0.00  0.00    +0.352 C 
ENDROOT
BRANCH   1   4
ATOM      2  O   LIG    1       40.275  31.890   5.795  0.00  0.00    -0.270 OA
ATOM      3  C   LIG    1       39.535  31.898   6.762  0.00  0.00    +0.252 C 
ATOM      4  N   LIG    1       39.218  30.873   7.594  0.00  0.00    -0.200 N 
ATOM      5  C   LIG    1       38.361  31.291   8.563  0.00  0.00    +0.252 C 
ATOM      6  O   LIG    1       37.849  30.688   9.488  0.00  0.00    -0.270 OA
ATOM      7  C   LIG    1       38.114  32.715   8.314  0.00  0.00    +0.023 C 
ATOM      8  C   LIG    1       37.238  33.579   9.121  0.00  0.00    +0.041 C 
ATOM      9  C   LIG    1       37.109  35.010   8.586  0.00  0.00    +0.005 C 
ATOM     10  C   LIG    1       38.006  35.464   7.419  0.00  0.00    +0.005 C 
ATOM     11  C   LIG    1       38.832  34.424   6.646  0.00  0.00    +0.041 C 
ATOM     12  C   LIG    1       38.808  33.078   7.241  0.00  0.00    +0.023 C 
ENDBRANCH   1   4
BRANCH   1  13
ATOM     13  O   LIG    1       40.976  29.411   8.118  0.00  0.00    -0.444 OA
BRANCH  13  14
ATOM     14  C   LIG    1       41.319  28.150   8.457  0.00  0.00    +0.313 C 
ATOM     15  O   LIG    1       42.451  27.689   8.454  0.00  0.00    -0.250 OA
BRANCH  14  16
ATOM     16  C   LIG    1       40.115  27.408   8.896  0.00  0.00    +0.111 C 
ATOM     17  C   LIG    1       39.431  27.530  10.248  0.00  0.00    -0.014 C 
ATOM     18  C   LIG    1       37.926  27.361  10.261  0.00  0.00    +0.012 C 
ATOM     19  C   LIG    1       39.909  28.523  11.278  0.00  0.00    +0.012 C 
ATOM     20  C   LIG    1       40.240  26.288   9.916  0.00  0.00    +0.032 C 
BRANCH  20  21
ATOM     21  C   LIG    1       41.546  26.004  10.532  0.00  0.00    -0.023 C 
ATOM     22  C   LIG    1       41.766  25.452  11.743  0.00  0.00    -0.079 C 
ATOM     23  C   LIG    1       43.162  25.212  12.250  0.00  0.00    +0.038 C 
ATOM     24  C   LIG    1       40.673  25.038  12.691  0.00  0.00    +0.038 C 
ENDBRANCH  20  21
ENDBRANCH  14  16
ENDBRANCH  13  14
ENDBRANCH   1  13
TORSDOF 5
ENDMDL
MODEL 4
REMARK VINA RESULT:      -8.5      1.314      2.714
REMARK  Name = 
REMARK                            x       y       z     vdW  Elec       q    Type
REMARK                         _______ _______ _______ _____ _____    ______ ____
ROOT
ATOM      1  C   LIG    1       40.288  29.427   7.716  0.00  0.00    +0.352 C 
ENDROOT
BRANCH   1   4
ATOM      2  O   LIG    1       40.360  31.677   5.886  0.00  0.00    -0.270 OA
ATOM      3  C   LIG    1       39.712  31.677   6.917  0.00  0.00    +0.252 C 
ATOM      4  N   LIG    1       39.603  30.695   7.848  0.00  0.00    -0.200 N 
ATOM      5  C   LIG    1       38.785  31.086   8.862  0.00  0.00    +0.252 C 
ATOM      6  O   LIG    1       38.437  30.505   9.873  0.00  0.00    -0.270 OA
ATOM      7  C   LIG    1       38.336  32.443   8.535  0.00  0.00    +0.023 C 
ATOM      8  C   LIG    1       37.428  33.258   9.357  0.00  0.00    +0.041 C 
ATOM      9  C   LIG    1       37.069  34.612   8.734  0.00  0.00    +0.005 C 
ATOM     10  C   LIG    1       37.795  35.072   7.455  0.00  0.00    +0.005 C 
ATOM     11  C   LIG    1       38.680  34.079   6.685  0.00  0.00    +0.041 C 
ATOM     12  C   LIG    1       38.881  32.795   7.376  0.00  0.00    +0.023 C 
ENDBRANCH   1   4
BRANCH   1  13
ATOM     13  O   LIG    1       41.356  29.355   8.646  0.00  0.00    -0.444 OA
BRANCH  13  14
ATOM     14  C   LIG    1       41.203  28.448   9.633  0.00  0.00    +0.313 C 
ATOM     15  O   LIG    1       40.747  27.320   9.507  0.00  0.00    -0.250 OA
BRANCH  14  16
ATOM     16  C   LIG    1       41.731  28.999  10.903  0.00  0.00    +0.111 C 
ATOM     17  C   LIG    1       43.030  28.597  11.582  0.00  0.00    -0.014 C 
ATOM     18  C   LIG    1       43.764  29.688  12.334  0.00  0.00    +0.012 C 
ATOM     19  C   LIG    1       43.969  27.602  10.945  0.00  0.00    +0.012 C 
ATOM     20  C   LIG    1       41.699  28.160  12.169  0.00  0.00    +0.032 C 
BRANCH  20  21
ATOM     21  C   LIG    1       41.225  26.768  12.111  0.00  0.00    -0.023 C 
ATOM     22  C   LIG    1       41.378  25.822  13.061  0.00  0.00    -0.079 C 
ATOM     23  C   LIG    1       40.836  24.431  12.872  0.00  0.00    +0.038 C 
ATOM     24  C   LIG    1       42.091  26.046  14.366  0.00  0.00    +0.038 C 
ENDBRANCH  20  21
ENDBRANCH  14  16
ENDBRANCH  13  14
ENDBRANCH   1  13
TORSDOF 5
ENDMDL
MODEL 5
REMARK VINA RESULT:      -8.5      1.606      2.130
REMARK  Name = 
REMARK                            x       y       z     vdW  Elec       q    Type
REMARK                         _______ _______ _______ _____ _____    ______ ____
ROOT
ATOM      1  C   LIG    1       39.809  29.515   7.424  0.00  0.00    +0.352 C 
ENDROOT
BRANCH   1   4
ATOM      2  O   LIG    1       37.948  30.554   9.391  0.00  0.00    -0.270 OA
ATOM      3  C   LIG    1       38.424  31.234   8.500  0.00  0.00    +0.252 C 
ATOM      4  N   LIG    1       39.294  30.863   7.525  0.00  0.00    -0.200 N 
ATOM      5  C   LIG    1       39.580  31.916   6.714  0.00  0.00    +0.252 C 
ATOM      6  O   LIG    1       40.304  31.996   5.739  0.00  0.00    -0.270 OA
ATOM      7  C   LIG    1       38.819  33.058   7.230  0.00  0.00    +0.023 C 
ATOM      8  C   LIG    1       38.830  34.414   6.659  0.00  0.00    +0.041 C 
ATOM      9  C   LIG    1       37.996  35.430   7.448  0.00  0.00    +0.005 C 
ATOM     10  C   LIG    1       37.106  34.940   8.606  0.00  0.00    +0.005 C 
ATOM     11  C   LIG    1       37.248  33.497   9.116  0.00  0.00    +0.041 C 
ATOM     12  C   LIG    1       38.134  32.657   8.295  0.00  0.00    +0.023 C 
ENDBRANCH   1   4
BRANCH   1  13
ATOM     13  O   LIG    1       41.003  29.395   8.179  0.00  0.00    -0.444 OA
BRANCH  13  14
ATOM     14  C   LIG    1       41.355  28.134   8.507  0.00  0.00    +0.313 C 
ATOM     15  O   LIG    1       42.493  27.686   8.514  0.00  0.00    -0.250 OA
BRANCH  14  16
ATOM     16  C   LIG    1       40.155  27.372   8.922  0.00  0.00    +0.111 C 
ATOM     17  C   LIG    1       39.457  27.463  10.269  0.00  0.00    -0.014 C 
ATOM     18  C   LIG    1       37.954  27.280  10.264  0.00  0.00    +0.012 C 
ATOM     19  C   LIG    1       39.916  28.443  11.321  0.00  0.00    +0.012 C 
ATOM     20  C   LIG    1       40.281  26.236   9.923  0.00  0.00    +0.032 C 
BRANCH  20  21
ATOM     21  C   LIG    1       41.584  25.953  10.545  0.00  0.00    -0.023 C 
ATOM     22  C   LIG    1       41.797  25.427  11.769  0.00  0.00    -0.079 C 
ATOM     23  C   LIG    1       43.191  25.185  12.283  0.00  0.00    +0.038 C 
ATOM     24  C   LIG    1       40.700  25.046  12.726  0.00  0.00    +0.038 C 
ENDBRANCH  20  21
ENDBRANCH  14  16
ENDBRANCH  13  14
ENDBRANCH   1  13
TORSDOF 5
ENDMDL
MODEL 6
REMARK VINA RESULT:      -8.5      1.187      2.882
REMARK  Name = 
REMARK                            x       y       z     vdW  Elec       q    Type
REMARK                         _______ _______ _______ _____ _____    ______ ____
ROOT
ATOM      1  C   LIG    1       41.254  29.623   8.033  0.00  0.00    +0.352 C 
ENDROOT
BRANCH   1   4
ATOM      2  O   LIG    1       39.502  30.455  10.190  0.00  0.00    -0.270 OA
ATOM      3  C   LIG    1       39.546  31.020   9.112  0.00  0.00    +0.252 C 
ATOM      4  N   LIG    1       40.315  30.724   8.033  0.00  0.00    -0.200 N 
ATOM      5  C   LIG    1       40.065  31.591   7.016  0.00  0.00    +0.252 C 
ATOM      6  O   LIG    1       40.537  31.663   5.896  0.00  0.00    -0.270 OA
ATOM      7  C   LIG    1       39.043  32.522   7.504  0.00  0.00    +0.023 C 
ATOM      8  C   LIG    1       38.472  33.637   6.733  0.00  0.00    +0.041 C 
ATOM      9  C   LIG    1       37.475  34.495   7.521  0.00  0.00    +0.005 C 
ATOM     10  C   LIG    1       37.026  34.036   8.922  0.00  0.00    +0.005 C 
ATOM     11  C   LIG    1       37.759  32.875   9.612  0.00  0.00    +0.041 C 
ATOM     12  C   LIG    1       38.736  32.188   8.752  0.00  0.00    +0.023 C 
ENDBRANCH   1   4
BRANCH   1  13
ATOM     13  O   LIG    1       40.557  28.392   7.950  0.00  0.00    -0.444 OA
BRANCH  13  14
ATOM     14  C   LIG    1       40.868  27.485   8.899  0.00  0.00    +0.313 C 
ATOM     15  O   LIG    1       40.098  26.677   9.399  0.00  0.00    -0.250 OA
BRANCH  14  16
ATOM     16  C   LIG    1       42.313  27.569   9.215  0.00  0.00    +0.111 C 
ATOM     17  C   LIG    1       43.106  26.580  10.054  0.00  0.00    -0.014 C 
ATOM     18  C   LIG    1       44.550  26.362   9.655  0.00  0.00    +0.012 C 
ATOM     19  C   LIG    1       42.462  25.331  10.602  0.00  0.00    +0.012 C 
ATOM     20  C   LIG    1       42.767  27.951  10.614  0.00  0.00    +0.032 C 
BRANCH  20  21
ATOM     21  C   LIG    1       41.768  28.150  11.676  0.00  0.00    -0.023 C 
ATOM     22  C   LIG    1       41.957  28.777  12.855  0.00  0.00    -0.079 C 
ATOM     23  C   LIG    1       40.841  28.914  13.855  0.00  0.00    +0.038 C 
ATOM     24  C   LIG    1       43.266  29.381  13.288  0.00  0.00    +0.038 C 
ENDBRANCH  20  21
ENDBRANCH  14  16
ENDBRANCH  13  14
ENDBRANCH   1  13
TORSDOF 5
ENDMDL
MODEL 7
REMARK VINA RESULT:      -8.5      1.180      3.381
REMARK  Name = 
REMARK                            x       y       z     vdW  Elec       q    Type
REMARK                         _______ _______ _______ _____ _____    ______ ____
ROOT
ATOM      1  C   LIG    1       41.199  29.564   7.985  0.00  0.00    +0.352 C 
ENDROOT
BRANCH   1   4
ATOM      2  O   LIG    1       40.608  31.567   5.971  0.00  0.00    -0.270 OA
ATOM      3  C   LIG    1       40.072  31.543   7.064  0.00  0.00    +0.252 C 
ATOM      4  N   LIG    1       40.267  30.667   8.083  0.00  0.00    -0.200 N 
ATOM      5  C   LIG    1       39.479  30.986   9.145  0.00  0.00    +0.252 C 
ATOM      6  O   LIG    1       39.361  30.459  10.235  0.00  0.00    -0.270 OA
ATOM      7  C   LIG    1       38.715  32.175   8.754  0.00  0.00    +0.023 C 
ATOM      8  C   LIG    1       37.730  32.866   9.600  0.00  0.00    +0.041 C 
ATOM      9  C   LIG    1       37.026  34.039   8.906  0.00  0.00    +0.005 C 
ATOM     10  C   LIG    1       37.515  34.500   7.519  0.00  0.00    +0.005 C 
ATOM     11  C   LIG    1       38.522  33.636   6.743  0.00  0.00    +0.041 C 
ATOM     12  C   LIG    1       39.062  32.506   7.516  0.00  0.00    +0.023 C 
ENDBRANCH   1   4
BRANCH   1  13
ATOM     13  O   LIG    1       40.493  28.336   7.952  0.00  0.00    -0.444 OA
BRANCH  13  14
ATOM     14  C   LIG    1       40.823  27.453   8.917  0.00  0.00    +0.313 C 
ATOM     15  O   LIG    1       40.066  26.651   9.447  0.00  0.00    -0.250 OA
BRANCH  14  16
ATOM     16  C   LIG    1       42.272  27.552   9.210  0.00  0.00    +0.111 C 
ATOM     17  C   LIG    1       43.085  26.582  10.051  0.00  0.00    -0.014 C 
ATOM     18  C   LIG    1       44.525  26.369   9.634  0.00  0.00    +0.012 C 
ATOM     19  C   LIG    1       42.460  25.336  10.627  0.00  0.00    +0.012 C 
ATOM     20  C   LIG    1       42.744  27.958  10.596  0.00  0.00    +0.032 C 
BRANCH  20  21
ATOM     21  C   LIG    1       41.760  28.165  11.671  0.00  0.00    -0.023 C 
ATOM     22  C   LIG    1       41.968  28.790  12.848  0.00  0.00    -0.079 C 
ATOM     23  C   LIG    1       40.864  28.935  13.861  0.00  0.00    +0.038 C 
ATOM     24  C   LIG    1       43.286  29.383  13.265  0.00  0.00    +0.038 C 
ENDBRANCH  20  21
ENDBRANCH  14  16
ENDBRANCH  13  14
ENDBRANCH   1  13
TORSDOF 5
ENDMDL
MODEL 8
REMARK VINA RESULT:      -8.5      1.302      2.027
REMARK  Name = 
REMARK                            x       y       z     vdW  Elec       q    Type
REMARK                         _______ _______ _______ _____ _____    ______ ____
ROOT
ATOM      1  C   LIG    1       40.022  29.416   7.917  0.00  0.00    +0.352 C 
ENDROOT
BRANCH   1   4
ATOM      2  O   LIG    1       38.224  30.577   9.875  0.00  0.00    -0.270 OA
ATOM      3  C   LIG    1       38.606  31.174   8.885  0.00  0.00    +0.252 C 
ATOM      4  N   LIG    1       39.437  30.739   7.903  0.00  0.00    -0.200 N 
ATOM      5  C   LIG    1       39.613  31.707   6.964  0.00  0.00    +0.252 C 
ATOM      6  O   LIG    1       40.271  31.712   5.940  0.00  0.00    -0.270 OA
ATOM      7  C   LIG    1       38.819  32.860   7.399  0.00  0.00    +0.023 C 
ATOM      8  C   LIG    1       38.718  34.141   6.682  0.00  0.00    +0.041 C 
ATOM      9  C   LIG    1       37.876  35.197   7.407  0.00  0.00    +0.005 C 
ATOM     10  C   LIG    1       37.085  34.797   8.668  0.00  0.00    +0.005 C 
ATOM     11  C   LIG    1       37.340  33.431   9.324  0.00  0.00    +0.041 C 
ATOM     12  C   LIG    1       38.223  32.548   8.544  0.00  0.00    +0.023 C 
ENDBRANCH   1   4
BRANCH   1  13
ATOM     13  O   LIG    1       41.115  29.380   8.819  0.00  0.00    -0.444 OA
BRANCH  13  14
ATOM     14  C   LIG    1       41.033  28.447   9.790  0.00  0.00    +0.313 C 
ATOM     15  O   LIG    1       40.587  27.315   9.662  0.00  0.00    -0.250 OA
BRANCH  14  16
ATOM     16  C   LIG    1       41.625  28.976  11.041  0.00  0.00    +0.111 C 
ATOM     17  C   LIG    1       42.969  28.582  11.633  0.00  0.00    -0.014 C 
ATOM     18  C   LIG    1       43.726  29.667  12.368  0.00  0.00    +0.012 C 
ATOM     19  C   LIG    1       43.885  27.621  10.917  0.00  0.00    +0.012 C 
ATOM     20  C   LIG    1       41.683  28.105  12.285  0.00  0.00    +0.032 C 
BRANCH  20  21
ATOM     21  C   LIG    1       41.230  26.707  12.218  0.00  0.00    -0.023 C 
ATOM     22  C   LIG    1       41.411  25.753  13.155  0.00  0.00    -0.079 C 
ATOM     23  C   LIG    1       40.889  24.356  12.959  0.00  0.00    +0.038 C 
ATOM     24  C   LIG    1       42.140  25.975  14.453  0.00  0.00    +0.038 C 
ENDBRANCH  20  21
ENDBRANCH  14  16
ENDBRANCH  13  14
ENDBRANCH   1  13
TORSDOF 5
ENDMDL
MODEL 9
REMARK VINA RESULT:      -8.3      2.068      7.317
REMARK  Name = 
REMARK                            x       y       z     vdW  Elec       q    Type
REMARK                         _______ _______ _______ _____ _____    ______ ____
ROOT
ATOM      1  C   LIG    1       41.917  28.366   8.668  0.00  0.00    +0.352 C 
ENDROOT
BRANCH   1   4
ATOM      2  O   LIG    1       42.374  29.556  11.274  0.00  0.00    -0.270 OA
ATOM      3  C   LIG    1       42.033  28.397  11.121  0.00  0.00    +0.252 C 
ATOM      4  N   LIG    1       41.795  27.731   9.962  0.00  0.00    -0.200 N 
ATOM      5  C   LIG    1       41.442  26.442  10.215  0.00  0.00    +0.252 C 
ATOM      6  O   LIG    1       41.154  25.532   9.460  0.00  0.00    -0.270 OA
ATOM      7  C   LIG    1       41.457  26.285  11.673  0.00  0.00    +0.023 C 
ATOM      8  C   LIG    1       41.132  25.046  12.397  0.00  0.00    +0.041 C 
ATOM      9  C   LIG    1       41.157  25.191  13.923  0.00  0.00    +0.005 C 
ATOM     10  C   LIG    1       41.678  26.499  14.550  0.00  0.00    +0.005 C 
ATOM     11  C   LIG    1       41.929  27.723  13.655  0.00  0.00    +0.041 C 
ATOM     12  C   LIG    1       41.803  27.447  12.215  0.00  0.00    +0.023 C 
ENDBRANCH   1   4
BRANCH   1  13
ATOM     13  O   LIG    1       40.637  28.748   8.193  0.00  0.00    -0.444 OA
BRANCH  13  14
ATOM     14  C   LIG    1       40.279  30.022   8.455  0.00  0.00    +0.313 C 
ATOM     15  O   LIG    1       40.691  31.017   7.875  0.00  0.00    -0.250 OA
BRANCH  14  16
ATOM     16  C   LIG    1       39.254  30.042   9.525  0.00  0.00    +0.111 C 
ATOM     17  C   LIG    1       37.797  29.639   9.377  0.00  0.00    -0.014 C 
ATOM     18  C   LIG    1       37.148  28.994  10.584  0.00  0.00    +0.012 C 
ATOM     19  C   LIG    1       37.268  29.089   8.075  0.00  0.00    +0.012 C 
ATOM     20  C   LIG    1       38.168  31.104   9.520  0.00  0.00    +0.032 C 
BRANCH  20  21
ATOM     21  C   LIG    1       38.084  32.057   8.402  0.00  0.00    -0.023 C 
ATOM     22  C   LIG    1       37.604  33.317   8.448  0.00  0.00    -0.079 C 
ATOM     23  C   LIG    1       37.581  34.190   7.222  0.00  0.00    +0.038 C 
ATOM     24  C   LIG    1       37.050  33.963   9.689  0.00  0.00    +0.038 C 
ENDBRANCH  20  21
ENDBRANCH  14  16
ENDBRANCH  13  14
ENDBRANCH   1  13
TORSDOF 5
ENDMDL
