MODEL 1
REMARK VINA RESULT:      -8.4      0.000      0.000
REMARK  Name = 
REMARK                            x       y       z     vdW  Elec       q    Type
REMARK                         _______ _______ _______ _____ _____    ______ ____
ROOT
ATOM      1  C   LIG    1        3.422  -0.960  20.474  0.00  0.00    +0.352 C 
ENDROOT
BRANCH   1   4
ATOM      2  O   LIG    1        2.272   0.133  22.903  0.00  0.00    -0.270 OA
ATOM      3  C   LIG    1        2.675   0.826  21.986  0.00  0.00    +0.252 C 
ATOM      4  N   LIG    1        3.224   0.434  20.808  0.00  0.00    -0.200 N 
ATOM      5  C   LIG    1        3.539   1.515  20.045  0.00  0.00    +0.252 C 
ATOM      6  O   LIG    1        4.038   1.590  18.937  0.00  0.00    -0.270 OA
ATOM      7  C   LIG    1        3.152   2.699  20.819  0.00  0.00    +0.023 C 
ATOM      8  C   LIG    1        3.316   4.093  20.378  0.00  0.00    +0.041 C 
ATOM      9  C   LIG    1        2.893   5.131  21.424  0.00  0.00    +0.005 C 
ATOM     10  C   LIG    1        2.189   4.663  22.712  0.00  0.00    +0.005 C 
ATOM     11  C   LIG    1        2.141   3.165  23.050  0.00  0.00    +0.041 C 
ATOM     12  C   LIG    1        2.643   2.292  21.976  0.00  0.00    +0.023 C 
ENDBRANCH   1   4
BRANCH   1  13
ATOM     13  O   LIG    1        4.756  -1.342  20.762  0.00  0.00    -0.444 OA
BRANCH  13  14
ATOM     14  C   LIG    1        5.558  -1.497  19.688  0.00  0.00    +0.313 C 
ATOM     15  O   LIG    1        5.205  -1.864  18.576  0.00  0.00    -0.250 OA
BRANCH  14  16
ATOM     16  C   LIG    1        6.941  -1.097  20.036  0.00  0.00    +0.111 C 
ATOM     17  C   LIG    1        8.216  -1.666  19.436  0.00  0.00    -0.014 C 
ATOM     18  C   LIG    1        9.380  -0.708  19.292  0.00  0.00    +0.012 C 
ATOM     19  C   LIG    1        8.168  -2.687  18.327  0.00  0.00    +0.012 C 
ATOM     20  C   LIG    1        7.820  -2.027  20.857  0.00  0.00    +0.032 C 
BRANCH  20  21
ATOM     21  C   LIG    1        7.324  -3.362  21.227  0.00  0.00    -0.023 C 
ATOM     22  C   LIG    1        8.068  -4.444  21.535  0.00  0.00    -0.079 C 
ATOM     23  C   LIG    1        7.426  -5.755  21.902  0.00  0.00    +0.038 C 
ATOM     24  C   LIG    1        9.573  -4.459  21.535  0.00  0.00    +0.038 C 
ENDBRANCH  20  21
ENDBRANCH  14  16
ENDBRANCH  13  14
ENDBRANCH   1  13
TORSDOF 5
ENDMDL
MODEL 2
REMARK VINA RESULT:      -8.3      0.075      1.814
REMARK  Name = 
REMARK                            x       y       z     vdW  Elec       q    Type
REMARK                         _______ _______ _______ _____ _____    ______ ____
ROOT
ATOM      1  C   LIG    1        3.452  -0.917  20.460  0.00  0.00    +0.352 C 
ENDROOT
BRANCH   1   4
ATOM      2  O   LIG    1        4.112   1.497  18.992  0.00  0.00    -0.270 OA
ATOM      3  C   LIG    1        3.587   1.508  20.091  0.00  0.00    +0.252 C 
ATOM      4  N   LIG    1        3.237   0.453  20.872  0.00  0.00    -0.200 N 
ATOM      5  C   LIG    1        2.680   0.885  22.035  0.00  0.00    +0.252 C 
ATOM      6  O   LIG    1        2.244   0.264  22.987  0.00  0.00    -0.270 OA
ATOM      7  C   LIG    1        2.678   2.350  21.978  0.00  0.00    +0.023 C 
ATOM      8  C   LIG    1        2.161   3.240  23.029  0.00  0.00    +0.041 C 
ATOM      9  C   LIG    1        2.219   4.729  22.670  0.00  0.00    +0.005 C 
ATOM     10  C   LIG    1        2.950   5.169  21.386  0.00  0.00    +0.005 C 
ATOM     11  C   LIG    1        3.391   4.110  20.363  0.00  0.00    +0.041 C 
ATOM     12  C   LIG    1        3.213   2.723  20.821  0.00  0.00    +0.023 C 
ENDBRANCH   1   4
BRANCH   1  13
ATOM     13  O   LIG    1        4.782  -1.308  20.757  0.00  0.00    -0.444 OA
BRANCH  13  14
ATOM     14  C   LIG    1        5.579  -1.507  19.687  0.00  0.00    +0.313 C 
ATOM     15  O   LIG    1        5.221  -1.912  18.590  0.00  0.00    -0.250 OA
BRANCH  14  16
ATOM     16  C   LIG    1        6.965  -1.102  20.016  0.00  0.00    +0.111 C 
ATOM     17  C   LIG    1        8.234  -1.663  19.395  0.00  0.00    -0.014 C 
ATOM     18  C   LIG    1        9.392  -0.700  19.238  0.00  0.00    +0.012 C 
ATOM     19  C   LIG    1        8.174  -2.682  18.284  0.00  0.00    +0.012 C 
ATOM     20  C   LIG    1        7.860  -2.031  20.820  0.00  0.00    +0.032 C 
BRANCH  20  21
ATOM     21  C   LIG    1        7.375  -3.369  21.194  0.00  0.00    -0.023 C 
ATOM     22  C   LIG    1        8.128  -4.448  21.490  0.00  0.00    -0.079 C 
ATOM     23  C   LIG    1        7.498  -5.763  21.862  0.00  0.00    +0.038 C 
ATOM     24  C   LIG    1        9.633  -4.456  21.474  0.00  0.00    +0.038 C 
ENDBRANCH  20  21
ENDBRANCH  14  16
ENDBRANCH  13  14
ENDBRANCH   1  13
TORSDOF 5
ENDMDL
MODEL 3
REMARK VINA RESULT:      -8.1      0.962      2.967
REMARK  Name = 
REMARK                            x       y       z     vdW  Elec       q    Type
REMARK                         _______ _______ _______ _____ _____    ______ ____
ROOT
ATOM      1  C   LIG    1        3.337  -0.790  20.617  0.00  0.00    +0.352 C 
ENDROOT
BRANCH   1   4
ATOM      2  O   LIG    1        3.882   1.607  19.076  0.00  0.00    -0.270 OA
ATOM      3  C   LIG    1        3.421   1.630  20.203  0.00  0.00    +0.252 C 
ATOM      4  N   LIG    1        3.129   0.584  21.019  0.00  0.00    -0.200 N 
ATOM      5  C   LIG    1        2.634   1.029  22.206  0.00  0.00    +0.252 C 
ATOM      6  O   LIG    1        2.261   0.419  23.191  0.00  0.00    -0.270 OA
ATOM      7  C   LIG    1        2.611   2.492  22.126  0.00  0.00    +0.023 C 
ATOM      8  C   LIG    1        2.144   3.394  23.191  0.00  0.00    +0.041 C 
ATOM      9  C   LIG    1        2.163   4.877  22.805  0.00  0.00    +0.005 C 
ATOM     10  C   LIG    1        2.813   5.304  21.474  0.00  0.00    +0.005 C 
ATOM     11  C   LIG    1        3.208   4.234  20.444  0.00  0.00    +0.041 C 
ATOM     12  C   LIG    1        3.074   2.853  20.934  0.00  0.00    +0.023 C 
ENDBRANCH   1   4
BRANCH   1  13
ATOM     13  O   LIG    1        4.603  -1.239  21.068  0.00  0.00    -0.444 OA
BRANCH  13  14
ATOM     14  C   LIG    1        5.502  -1.505  20.098  0.00  0.00    +0.313 C 
ATOM     15  O   LIG    1        5.902  -0.715  19.254  0.00  0.00    -0.250 OA
BRANCH  14  16
ATOM     16  C   LIG    1        5.991  -2.896  20.238  0.00  0.00    +0.111 C 
ATOM     17  C   LIG    1        7.078  -3.373  21.187  0.00  0.00    -0.014 C 
ATOM     18  C   LIG    1        6.917  -4.769  21.751  0.00  0.00    +0.012 C 
ATOM     19  C   LIG    1        7.732  -2.427  22.163  0.00  0.00    +0.012 C 
ATOM     20  C   LIG    1        7.357  -3.283  19.697  0.00  0.00    +0.032 C 
BRANCH  20  21
ATOM     21  C   LIG    1        8.230  -2.252  19.113  0.00  0.00    -0.023 C 
ATOM     22  C   LIG    1        9.524  -2.392  18.763  0.00  0.00    -0.079 C 
ATOM     23  C   LIG    1       10.302  -1.249  18.169  0.00  0.00    +0.038 C 
ATOM     24  C   LIG    1       10.309  -3.665  18.931  0.00  0.00    +0.038 C 
ENDBRANCH  20  21
ENDBRANCH  14  16
ENDBRANCH  13  14
ENDBRANCH   1  13
TORSDOF 5
ENDMDL
MODEL 4
REMARK VINA RESULT:      -7.8      4.985      8.302
REMARK  Name = 
REMARK                            x       y       z     vdW  Elec       q    Type
REMARK                         _______ _______ _______ _____ _____    ______ ____
ROOT
ATOM      1  C   LIG    1        9.257  -4.007  23.736  0.00  0.00    +0.352 C 
ENDROOT
BRANCH   1   4
ATOM      2  O   LIG    1       11.451  -3.133  25.421  0.00  0.00    -0.270 OA
ATOM      3  C   LIG    1       10.419  -3.605  25.862  0.00  0.00    +0.252 C 
ATOM      4  N   LIG    1        9.332  -4.050  25.180  0.00  0.00    -0.200 N 
ATOM      5  C   LIG    1        8.385  -4.513  26.040  0.00  0.00    +0.252 C 
ATOM      6  O   LIG    1        7.285  -4.990  25.831  0.00  0.00    -0.270 OA
ATOM      7  C   LIG    1        8.928  -4.339  27.391  0.00  0.00    +0.023 C 
ATOM      8  C   LIG    1        8.236  -4.703  28.637  0.00  0.00    +0.041 C 
ATOM      9  C   LIG    1        9.011  -4.340  29.909  0.00  0.00    +0.005 C 
ATOM     10  C   LIG    1       10.459  -3.826  29.791  0.00  0.00    +0.005 C 
ATOM     11  C   LIG    1       11.021  -3.448  28.412  0.00  0.00    +0.041 C 
ATOM     12  C   LIG    1       10.135  -3.795  27.289  0.00  0.00    +0.023 C 
ENDBRANCH   1   4
BRANCH   1  13
ATOM     13  O   LIG    1        8.265  -3.078  23.331  0.00  0.00    -0.444 OA
BRANCH  13  14
ATOM     14  C   LIG    1        7.746  -3.285  22.103  0.00  0.00    +0.313 C 
ATOM     15  O   LIG    1        7.677  -4.360  21.525  0.00  0.00    -0.250 OA
BRANCH  14  16
ATOM     16  C   LIG    1        7.206  -2.013  21.569  0.00  0.00    +0.111 C 
ATOM     17  C   LIG    1        6.077  -1.871  20.562  0.00  0.00    -0.014 C 
ATOM     18  C   LIG    1        5.183  -0.659  20.716  0.00  0.00    +0.012 C 
ATOM     19  C   LIG    1        5.329  -3.079  20.053  0.00  0.00    +0.012 C 
ATOM     20  C   LIG    1        7.509  -1.597  20.140  0.00  0.00    +0.032 C 
BRANCH  20  21
ATOM     21  C   LIG    1        8.265  -2.503  19.260  0.00  0.00    -0.023 C 
ATOM     22  C   LIG    1        9.365  -2.199  18.541  0.00  0.00    -0.079 C 
ATOM     23  C   LIG    1       10.045  -3.230  17.681  0.00  0.00    +0.038 C 
ATOM     24  C   LIG    1       10.005  -0.838  18.514  0.00  0.00    +0.038 C 
ENDBRANCH  20  21
ENDBRANCH  14  16
ENDBRANCH  13  14
ENDBRANCH   1  13
TORSDOF 5
ENDMDL
MODEL 5
REMARK VINA RESULT:      -7.8      6.339      9.202
REMARK  Name = 
REMARK                            x       y       z     vdW  Elec       q    Type
REMARK                         _______ _______ _______ _____ _____    ______ ____
ROOT
ATOM      1  C   LIG    1        7.944  -4.456  26.136  0.00  0.00    +0.352 C 
ENDROOT
BRANCH   1   4
ATOM      2  O   LIG    1        6.444  -4.488  28.619  0.00  0.00    -0.270 OA
ATOM      3  C   LIG    1        7.654  -4.360  28.573  0.00  0.00    +0.252 C 
ATOM      4  N   LIG    1        8.460  -4.326  27.481  0.00  0.00    -0.200 N 
ATOM      5  C   LIG    1        9.759  -4.162  27.851  0.00  0.00    +0.252 C 
ATOM      6  O   LIG    1       10.773  -4.081  27.183  0.00  0.00    -0.270 OA
ATOM      7  C   LIG    1        9.768  -4.089  29.316  0.00  0.00    +0.023 C 
ATOM      8  C   LIG    1       10.968  -3.917  30.149  0.00  0.00    +0.041 C 
ATOM      9  C   LIG    1       10.690  -3.949  31.657  0.00  0.00    +0.005 C 
ATOM     10  C   LIG    1        9.232  -3.965  32.156  0.00  0.00    +0.005 C 
ATOM     11  C   LIG    1        8.089  -4.200  31.156  0.00  0.00    +0.041 C 
ATOM     12  C   LIG    1        8.519  -4.211  29.748  0.00  0.00    +0.023 C 
ENDBRANCH   1   4
BRANCH   1  13
ATOM     13  O   LIG    1        8.527  -3.474  25.297  0.00  0.00    -0.444 OA
BRANCH  13  14
ATOM     14  C   LIG    1        8.937  -3.914  24.089  0.00  0.00    +0.313 C 
ATOM     15  O   LIG    1       10.080  -3.865  23.657  0.00  0.00    -0.250 OA
BRANCH  14  16
ATOM     16  C   LIG    1        7.797  -4.530  23.370  0.00  0.00    +0.111 C 
ATOM     17  C   LIG    1        7.859  -5.222  22.018  0.00  0.00    -0.014 C 
ATOM     18  C   LIG    1        6.914  -6.386  21.812  0.00  0.00    +0.012 C 
ATOM     19  C   LIG    1        9.171  -5.408  21.297  0.00  0.00    +0.012 C 
ATOM     20  C   LIG    1        7.216  -3.852  22.140  0.00  0.00    +0.032 C 
BRANCH  20  21
ATOM     21  C   LIG    1        7.845  -2.630  21.614  0.00  0.00    -0.023 C 
ATOM     22  C   LIG    1        7.541  -1.995  20.464  0.00  0.00    -0.079 C 
ATOM     23  C   LIG    1        8.265  -0.744  20.046  0.00  0.00    +0.038 C 
ATOM     24  C   LIG    1        6.484  -2.460  19.499  0.00  0.00    +0.038 C 
ENDBRANCH  20  21
ENDBRANCH  14  16
ENDBRANCH  13  14
ENDBRANCH   1  13
TORSDOF 5
ENDMDL
MODEL 6
REMARK VINA RESULT:      -7.5     10.124     12.434
REMARK  Name = 
REMARK                            x       y       z     vdW  Elec       q    Type
REMARK                         _______ _______ _______ _____ _____    ______ ____
ROOT
ATOM      1  C   LIG    1        9.297  -4.049  32.439  0.00  0.00    +0.352 C 
ENDROOT
BRANCH   1   4
ATOM      2  O   LIG    1        6.776  -4.228  31.015  0.00  0.00    -0.270 OA
ATOM      3  C   LIG    1        7.858  -4.215  30.455  0.00  0.00    +0.252 C 
ATOM      4  N   LIG    1        9.096  -4.140  31.009  0.00  0.00    -0.200 N 
ATOM      5  C   LIG    1       10.053  -4.160  30.043  0.00  0.00    +0.252 C 
ATOM      6  O   LIG    1       11.266  -4.115  30.123  0.00  0.00    -0.270 OA
ATOM      7  C   LIG    1        9.348  -4.255  28.760  0.00  0.00    +0.023 C 
ATOM      8  C   LIG    1        9.993  -4.302  27.439  0.00  0.00    +0.041 C 
ATOM      9  C   LIG    1        9.008  -4.326  26.265  0.00  0.00    +0.005 C 
ATOM     10  C   LIG    1        7.501  -4.484  26.545  0.00  0.00    +0.005 C 
ATOM     11  C   LIG    1        6.980  -4.366  27.987  0.00  0.00    +0.041 C 
ATOM     12  C   LIG    1        8.043  -4.283  29.002  0.00  0.00    +0.023 C 
ENDBRANCH   1   4
BRANCH   1  13
ATOM     13  O   LIG    1        9.928  -2.821  32.761  0.00  0.00    -0.444 OA
BRANCH  13  14
ATOM     14  C   LIG    1        9.094  -1.809  33.082  0.00  0.00    +0.313 C 
ATOM     15  O   LIG    1        7.877  -1.884  33.176  0.00  0.00    -0.250 OA
BRANCH  14  16
ATOM     16  C   LIG    1        9.881  -0.587  33.366  0.00  0.00    +0.111 C 
ATOM     17  C   LIG    1        9.537   0.824  32.918  0.00  0.00    -0.014 C 
ATOM     18  C   LIG    1        9.925   1.945  33.860  0.00  0.00    +0.012 C 
ATOM     19  C   LIG    1        8.261   1.115  32.169  0.00  0.00    +0.012 C 
ATOM     20  C   LIG    1       10.684   0.077  32.260  0.00  0.00    +0.032 C 
BRANCH  20  21
ATOM     21  C   LIG    1       10.607  -0.445  30.887  0.00  0.00    -0.023 C 
ATOM     22  C   LIG    1       11.599  -0.468  29.974  0.00  0.00    -0.079 C 
ATOM     23  C   LIG    1       11.382  -1.040  28.598  0.00  0.00    +0.038 C 
ATOM     24  C   LIG    1       12.984   0.067  30.220  0.00  0.00    +0.038 C 
ENDBRANCH  20  21
ENDBRANCH  14  16
ENDBRANCH  13  14
ENDBRANCH   1  13
TORSDOF 5
ENDMDL
MODEL 7
REMARK VINA RESULT:      -7.5      9.855     12.281
REMARK  Name = 
REMARK                            x       y       z     vdW  Elec       q    Type
REMARK                         _______ _______ _______ _____ _____    ______ ____
ROOT
ATOM      1  C   LIG    1        9.297  -4.531  31.940  0.00  0.00    +0.352 C 
ENDROOT
BRANCH   1   4
ATOM      2  O   LIG    1       11.293  -4.395  29.839  0.00  0.00    -0.270 OA
ATOM      3  C   LIG    1       10.095  -4.374  29.622  0.00  0.00    +0.252 C 
ATOM      4  N   LIG    1        9.073  -4.426  30.514  0.00  0.00    -0.200 N 
ATOM      5  C   LIG    1        7.875  -4.369  29.872  0.00  0.00    +0.252 C 
ATOM      6  O   LIG    1        6.738  -4.386  30.305  0.00  0.00    -0.270 OA
ATOM      7  C   LIG    1        8.174  -4.275  28.440  0.00  0.00    +0.023 C 
ATOM      8  C   LIG    1        7.172  -4.194  27.366  0.00  0.00    +0.041 C 
ATOM      9  C   LIG    1        7.770  -4.180  25.954  0.00  0.00    +0.005 C 
ATOM     10  C   LIG    1        9.296  -4.063  25.781  0.00  0.00    +0.005 C 
ATOM     11  C   LIG    1       10.213  -4.212  27.005  0.00  0.00    +0.041 C 
ATOM     12  C   LIG    1        9.494  -4.282  28.288  0.00  0.00    +0.023 C 
ENDBRANCH   1   4
BRANCH   1  13
ATOM     13  O   LIG    1        9.898  -3.342  32.424  0.00  0.00    -0.444 OA
BRANCH  13  14
ATOM     14  C   LIG    1        9.039  -2.378  32.816  0.00  0.00    +0.313 C 
ATOM     15  O   LIG    1        7.822  -2.483  32.879  0.00  0.00    -0.250 OA
BRANCH  14  16
ATOM     16  C   LIG    1        9.796  -1.171  33.223  0.00  0.00    +0.111 C 
ATOM     17  C   LIG    1        9.474   0.262  32.834  0.00  0.00    -0.014 C 
ATOM     18  C   LIG    1        9.789   1.328  33.862  0.00  0.00    +0.012 C 
ATOM     19  C   LIG    1        8.250   0.592  32.016  0.00  0.00    +0.012 C 
ATOM     20  C   LIG    1       10.668  -0.442  32.214  0.00  0.00    +0.032 C 
BRANCH  20  21
ATOM     21  C   LIG    1       10.688  -0.886  30.811  0.00  0.00    -0.023 C 
ATOM     22  C   LIG    1       11.660  -0.657  29.905  0.00  0.00    -0.079 C 
ATOM     23  C   LIG    1       11.554  -1.175  28.496  0.00  0.00    +0.038 C 
ATOM     24  C   LIG    1       12.914   0.125  30.193  0.00  0.00    +0.038 C 
ENDBRANCH  20  21
ENDBRANCH  14  16
ENDBRANCH  13  14
ENDBRANCH   1  13
TORSDOF 5
ENDMDL
MODEL 8
REMARK VINA RESULT:      -7.4      2.092      3.510
REMARK  Name = 
REMARK                            x       y       z     vdW  Elec       q    Type
REMARK                         _______ _______ _______ _____ _____    ______ ____
ROOT
ATOM      1  C   LIG    1        4.736  -2.706  20.026  0.00  0.00    +0.352 C 
ENDROOT
BRANCH   1   4
ATOM      2  O   LIG    1        5.154   0.121  19.527  0.00  0.00    -0.270 OA
ATOM      3  C   LIG    1        4.302  -0.303  20.287  0.00  0.00    +0.252 C 
ATOM      4  N   LIG    1        4.016  -1.592  20.604  0.00  0.00    -0.200 N 
ATOM      5  C   LIG    1        2.995  -1.648  21.501  0.00  0.00    +0.252 C 
ATOM      6  O   LIG    1        2.451  -2.600  22.029  0.00  0.00    -0.270 OA
ATOM      7  C   LIG    1        2.602  -0.261  21.772  0.00  0.00    +0.023 C 
ATOM      8  C   LIG    1        1.526   0.153  22.686  0.00  0.00    +0.041 C 
ATOM      9  C   LIG    1        1.284   1.666  22.718  0.00  0.00    +0.005 C 
ATOM     10  C   LIG    1        2.257   2.604  21.977  0.00  0.00    +0.005 C 
ATOM     11  C   LIG    1        3.301   2.010  21.019  0.00  0.00    +0.041 C 
ATOM     12  C   LIG    1        3.374   0.540  21.048  0.00  0.00    +0.023 C 
ENDBRANCH   1   4
BRANCH   1  13
ATOM     13  O   LIG    1        6.120  -2.586  20.307  0.00  0.00    -0.444 OA
BRANCH  13  14
ATOM     14  C   LIG    1        6.601  -3.451  21.224  0.00  0.00    +0.313 C 
ATOM     15  O   LIG    1        5.934  -4.178  21.945  0.00  0.00    -0.250 OA
BRANCH  14  16
ATOM     16  C   LIG    1        8.082  -3.437  21.192  0.00  0.00    +0.111 C 
ATOM     17  C   LIG    1        8.994  -4.640  21.375  0.00  0.00    -0.014 C 
ATOM     18  C   LIG    1       10.288  -4.632  20.590  0.00  0.00    +0.012 C 
ATOM     19  C   LIG    1        8.428  -6.029  21.542  0.00  0.00    +0.012 C 
ATOM     20  C   LIG    1        8.874  -3.603  22.478  0.00  0.00    +0.032 C 
BRANCH  20  21
ATOM     21  C   LIG    1        8.167  -3.867  23.742  0.00  0.00    -0.023 C 
ATOM     22  C   LIG    1        8.705  -3.891  24.979  0.00  0.00    -0.079 C 
ATOM     23  C   LIG    1        7.860  -4.171  26.193  0.00  0.00    +0.038 C 
ATOM     24  C   LIG    1       10.163  -3.658  25.269  0.00  0.00    +0.038 C 
ENDBRANCH  20  21
ENDBRANCH  14  16
ENDBRANCH  13  14
ENDBRANCH   1  13
TORSDOF 5
ENDMDL
MODEL 9
REMARK VINA RESULT:      -7.2      9.809     12.101
REMARK  Name = 
REMARK                            x       y       z     vdW  Elec       q    Type
REMARK                         _______ _______ _______ _____ _____    ______ ____
ROOT
ATOM      1  C   LIG    1       10.544  -3.596  32.297  0.00  0.00    +0.352 C 
ENDROOT
BRANCH   1   4
ATOM      2  O   LIG    1        7.679  -3.410  31.879  0.00  0.00    -0.270 OA
ATOM      3  C   LIG    1        8.461  -3.733  31.003  0.00  0.00    +0.252 C 
ATOM      4  N   LIG    1        9.811  -3.859  31.077  0.00  0.00    -0.200 N 
ATOM      5  C   LIG    1       10.321  -4.248  29.878  0.00  0.00    +0.252 C 
ATOM      6  O   LIG    1       11.468  -4.471  29.535  0.00  0.00    -0.270 OA
ATOM      7  C   LIG    1        9.183  -4.377  28.963  0.00  0.00    +0.023 C 
ATOM      8  C   LIG    1        9.271  -4.776  27.549  0.00  0.00    +0.041 C 
ATOM      9  C   LIG    1        7.927  -4.754  26.811  0.00  0.00    +0.005 C 
ATOM     10  C   LIG    1        6.630  -4.516  27.608  0.00  0.00    +0.005 C 
ATOM     11  C   LIG    1        6.712  -4.060  29.073  0.00  0.00    +0.041 C 
ATOM     12  C   LIG    1        8.076  -4.067  29.627  0.00  0.00    +0.023 C 
ENDBRANCH   1   4
BRANCH   1  13
ATOM     13  O   LIG    1       11.597  -2.682  32.040  0.00  0.00    -0.444 OA
BRANCH  13  14
ATOM     14  C   LIG    1       11.253  -1.378  32.075  0.00  0.00    +0.313 C 
ATOM     15  O   LIG    1       10.149  -0.934  32.357  0.00  0.00    -0.250 OA
BRANCH  14  16
ATOM     16  C   LIG    1       12.438  -0.542  31.774  0.00  0.00    +0.111 C 
ATOM     17  C   LIG    1       12.419   0.860  31.186  0.00  0.00    -0.014 C 
ATOM     18  C   LIG    1       13.512   1.800  31.648  0.00  0.00    +0.012 C 
ATOM     19  C   LIG    1       11.119   1.575  30.914  0.00  0.00    +0.012 C 
ATOM     20  C   LIG    1       12.865  -0.315  30.333  0.00  0.00    +0.032 C 
BRANCH  20  21
ATOM     21  C   LIG    1       12.046  -0.855  29.235  0.00  0.00    -0.023 C 
ATOM     22  C   LIG    1       12.488  -1.529  28.154  0.00  0.00    -0.079 C 
ATOM     23  C   LIG    1       11.535  -2.032  27.103  0.00  0.00    +0.038 C 
ATOM     24  C   LIG    1       13.937  -1.836  27.886  0.00  0.00    +0.038 C 
ENDBRANCH  20  21
ENDBRANCH  14  16
ENDBRANCH  13  14
ENDBRANCH   1  13
TORSDOF 5
ENDMDL
