MODEL 1
REMARK VINA RESULT:      -9.2      0.000      0.000
REMARK  Name = 
REMARK                            x       y       z     vdW  Elec       q    Type
REMARK                         _______ _______ _______ _____ _____    ______ ____
ROOT
ATOM      1  C   LIG    1       11.440   3.330  30.841  0.00  0.00    +0.352 C 
ENDROOT
BRANCH   1   4
ATOM      2  O   LIG    1       13.312   3.886  32.986  0.00  0.00    -0.270 OA
ATOM      3  C   LIG    1       12.292   3.240  33.143  0.00  0.00    +0.252 C 
ATOM      4  N   LIG    1       11.348   2.912  32.224  0.00  0.00    -0.200 N 
ATOM      5  C   LIG    1       10.361   2.172  32.796  0.00  0.00    +0.252 C 
ATOM      6  O   LIG    1        9.351   1.687  32.319  0.00  0.00    -0.270 OA
ATOM      7  C   LIG    1       10.719   2.022  34.210  0.00  0.00    +0.023 C 
ATOM      8  C   LIG    1        9.928   1.293  35.213  0.00  0.00    +0.041 C 
ATOM      9  C   LIG    1       10.504   1.363  36.632  0.00  0.00    +0.005 C 
ATOM     10  C   LIG    1       11.891   1.995  36.855  0.00  0.00    +0.005 C 
ATOM     11  C   LIG    1       12.568   2.763  35.709  0.00  0.00    +0.041 C 
ATOM     12  C   LIG    1       11.864   2.660  34.420  0.00  0.00    +0.023 C 
ENDBRANCH   1   4
BRANCH   1  13
ATOM     13  O   LIG    1       11.616   2.199  30.005  0.00  0.00    -0.444 OA
BRANCH  13  14
ATOM     14  C   LIG    1       10.840   2.168  28.902  0.00  0.00    +0.313 C 
ATOM     15  O   LIG    1       11.069   2.744  27.847  0.00  0.00    -0.250 OA
BRANCH  14  16
ATOM     16  C   LIG    1        9.681   1.275  29.133  0.00  0.00    +0.111 C 
ATOM     17  C   LIG    1        9.034   0.362  28.104  0.00  0.00    -0.014 C 
ATOM     18  C   LIG    1        8.467  -0.943  28.621  0.00  0.00    +0.012 C 
ATOM     19  C   LIG    1        9.598   0.235  26.710  0.00  0.00    +0.012 C 
ATOM     20  C   LIG    1        8.321   1.626  28.552  0.00  0.00    +0.032 C 
BRANCH  20  21
ATOM     21  C   LIG    1        8.180   2.807  27.687  0.00  0.00    -0.023 C 
ATOM     22  C   LIG    1        7.142   3.094  26.874  0.00  0.00    -0.079 C 
ATOM     23  C   LIG    1        7.125   4.348  26.042  0.00  0.00    +0.038 C 
ATOM     24  C   LIG    1        5.932   2.215  26.710  0.00  0.00    +0.038 C 
ENDBRANCH  20  21
ENDBRANCH  14  16
ENDBRANCH  13  14
ENDBRANCH   1  13
TORSDOF 5
ENDMDL
MODEL 2
REMARK VINA RESULT:      -9.2      0.174      1.820
REMARK  Name = 
REMARK                            x       y       z     vdW  Elec       q    Type
REMARK                         _______ _______ _______ _____ _____    ______ ____
ROOT
ATOM      1  C   LIG    1       11.235   3.237  30.851  0.00  0.00    +0.352 C 
ENDROOT
BRANCH   1   4
ATOM      2  O   LIG    1        9.242   1.797  32.390  0.00  0.00    -0.270 OA
ATOM      3  C   LIG    1       10.286   2.202  32.866  0.00  0.00    +0.252 C 
ATOM      4  N   LIG    1       11.287   2.887  32.254  0.00  0.00    -0.200 N 
ATOM      5  C   LIG    1       12.284   3.165  33.135  0.00  0.00    +0.252 C 
ATOM      6  O   LIG    1       13.338   3.755  32.984  0.00  0.00    -0.270 OA
ATOM      7  C   LIG    1       11.872   2.600  34.423  0.00  0.00    +0.023 C 
ATOM      8  C   LIG    1       12.655   2.663  35.668  0.00  0.00    +0.041 C 
ATOM      9  C   LIG    1       12.013   1.921  36.846  0.00  0.00    +0.005 C 
ATOM     10  C   LIG    1       10.586   1.359  36.698  0.00  0.00    +0.005 C 
ATOM     11  C   LIG    1        9.922   1.326  35.313  0.00  0.00    +0.041 C 
ATOM     12  C   LIG    1       10.687   2.022  34.265  0.00  0.00    +0.023 C 
ENDBRANCH   1   4
BRANCH   1  13
ATOM     13  O   LIG    1       11.643   2.133  30.061  0.00  0.00    -0.444 OA
BRANCH  13  14
ATOM     14  C   LIG    1       10.944   1.946  28.923  0.00  0.00    +0.313 C 
ATOM     15  O   LIG    1       11.260   2.348  27.812  0.00  0.00    -0.250 OA
BRANCH  14  16
ATOM     16  C   LIG    1        9.748   1.118  29.203  0.00  0.00    +0.111 C 
ATOM     17  C   LIG    1        9.005   0.249  28.201  0.00  0.00    -0.014 C 
ATOM     18  C   LIG    1        8.389  -1.025  28.740  0.00  0.00    +0.012 C 
ATOM     19  C   LIG    1        9.497   0.098  26.783  0.00  0.00    +0.012 C 
ATOM     20  C   LIG    1        8.385   1.548  28.686  0.00  0.00    +0.032 C 
BRANCH  20  21
ATOM     21  C   LIG    1        8.272   2.740  27.831  0.00  0.00    -0.023 C 
ATOM     22  C   LIG    1        7.266   3.032  26.981  0.00  0.00    -0.079 C 
ATOM     23  C   LIG    1        7.275   4.297  26.165  0.00  0.00    +0.038 C 
ATOM     24  C   LIG    1        6.069   2.149  26.756  0.00  0.00    +0.038 C 
ENDBRANCH  20  21
ENDBRANCH  14  16
ENDBRANCH  13  14
ENDBRANCH   1  13
TORSDOF 5
ENDMDL
MODEL 3
REMARK VINA RESULT:      -9.0      3.660      7.367
REMARK  Name = 
REMARK                            x       y       z     vdW  Elec       q    Type
REMARK                         _______ _______ _______ _____ _____    ______ ____
ROOT
ATOM      1  C   LIG    1        6.555   3.055  26.008  0.00  0.00    +0.352 C 
ENDROOT
BRANCH   1   4
ATOM      2  O   LIG    1        8.092   5.485  25.620  0.00  0.00    -0.270 OA
ATOM      3  C   LIG    1        7.118   5.422  26.348  0.00  0.00    +0.252 C 
ATOM      4  N   LIG    1        6.327   4.350  26.612  0.00  0.00    -0.200 N 
ATOM      5  C   LIG    1        5.342   4.687  27.487  0.00  0.00    +0.252 C 
ATOM      6  O   LIG    1        4.444   4.022  27.970  0.00  0.00    -0.270 OA
ATOM      7  C   LIG    1        5.531   6.107  27.800  0.00  0.00    +0.023 C 
ATOM      8  C   LIG    1        4.685   6.896  28.709  0.00  0.00    +0.041 C 
ATOM      9  C   LIG    1        5.071   8.378  28.791  0.00  0.00    +0.005 C 
ATOM     10  C   LIG    1        6.362   8.862  28.103  0.00  0.00    +0.005 C 
ATOM     11  C   LIG    1        7.109   7.922  27.144  0.00  0.00    +0.041 C 
ATOM     12  C   LIG    1        6.583   6.548  27.121  0.00  0.00    +0.023 C 
ENDBRANCH   1   4
BRANCH   1  13
ATOM     13  O   LIG    1        6.324   2.030  26.959  0.00  0.00    -0.444 OA
BRANCH  13  14
ATOM     14  C   LIG    1        7.369   1.735  27.759  0.00  0.00    +0.313 C 
ATOM     15  O   LIG    1        7.402   1.864  28.974  0.00  0.00    -0.250 OA
BRANCH  14  16
ATOM     16  C   LIG    1        8.472   1.168  26.949  0.00  0.00    +0.111 C 
ATOM     17  C   LIG    1        9.082  -0.215  27.108  0.00  0.00    -0.014 C 
ATOM     18  C   LIG    1        9.566  -0.889  25.842  0.00  0.00    +0.012 C 
ATOM     19  C   LIG    1        8.534  -1.198  28.113  0.00  0.00    +0.012 C 
ATOM     20  C   LIG    1        9.859   1.013  27.551  0.00  0.00    +0.032 C 
BRANCH  20  21
ATOM     21  C   LIG    1       10.081   1.344  28.967  0.00  0.00    -0.023 C 
ATOM     22  C   LIG    1       11.236   1.754  29.530  0.00  0.00    -0.079 C 
ATOM     23  C   LIG    1       11.322   2.064  31.000  0.00  0.00    +0.038 C 
ATOM     24  C   LIG    1       12.524   1.932  28.774  0.00  0.00    +0.038 C 
ENDBRANCH  20  21
ENDBRANCH  14  16
ENDBRANCH  13  14
ENDBRANCH   1  13
TORSDOF 5
ENDMDL
MODEL 4
REMARK VINA RESULT:      -8.8      8.738     10.357
REMARK  Name = 
REMARK                            x       y       z     vdW  Elec       q    Type
REMARK                         _______ _______ _______ _____ _____    ______ ____
ROOT
ATOM      1  C   LIG    1       19.387   4.551  26.025  0.00  0.00    +0.352 C 
ENDROOT
BRANCH   1   4
ATOM      2  O   LIG    1       20.426   6.959  27.266  0.00  0.00    -0.270 OA
ATOM      3  C   LIG    1       19.509   6.310  27.736  0.00  0.00    +0.252 C 
ATOM      4  N   LIG    1       18.943   5.173  27.254  0.00  0.00    -0.200 N 
ATOM      5  C   LIG    1       17.946   4.750  28.077  0.00  0.00    +0.252 C 
ATOM      6  O   LIG    1       17.207   3.786  28.002  0.00  0.00    -0.270 OA
ATOM      7  C   LIG    1       17.878   5.715  29.179  0.00  0.00    +0.023 C 
ATOM      8  C   LIG    1       16.934   5.652  30.306  0.00  0.00    +0.041 C 
ATOM      9  C   LIG    1       17.039   6.836  31.274  0.00  0.00    +0.005 C 
ATOM     10  C   LIG    1       18.190   7.847  31.110  0.00  0.00    +0.005 C 
ATOM     11  C   LIG    1       19.063   7.805  29.846  0.00  0.00    +0.041 C 
ATOM     12  C   LIG    1       18.803   6.646  28.976  0.00  0.00    +0.023 C 
ENDBRANCH   1   4
BRANCH   1  13
ATOM     13  O   LIG    1       18.631   5.044  24.933  0.00  0.00    -0.444 OA
BRANCH  13  14
ATOM     14  C   LIG    1       18.947   4.526  23.728  0.00  0.00    +0.313 C 
ATOM     15  O   LIG    1       20.071   4.230  23.347  0.00  0.00    -0.250 OA
BRANCH  14  16
ATOM     16  C   LIG    1       17.713   4.305  22.940  0.00  0.00    +0.111 C 
ATOM     17  C   LIG    1       16.442   3.634  23.435  0.00  0.00    -0.014 C 
ATOM     18  C   LIG    1       15.138   4.154  22.867  0.00  0.00    +0.012 C 
ATOM     19  C   LIG    1       16.306   3.180  24.868  0.00  0.00    +0.012 C 
ATOM     20  C   LIG    1       17.353   2.908  22.462  0.00  0.00    +0.032 C 
BRANCH  20  21
ATOM     21  C   LIG    1       18.188   1.763  22.859  0.00  0.00    -0.023 C 
ATOM     22  C   LIG    1       18.931   0.984  22.047  0.00  0.00    -0.079 C 
ATOM     23  C   LIG    1       19.746  -0.158  22.590  0.00  0.00    +0.038 C 
ATOM     24  C   LIG    1       19.017   1.163  20.555  0.00  0.00    +0.038 C 
ENDBRANCH  20  21
ENDBRANCH  14  16
ENDBRANCH  13  14
ENDBRANCH   1  13
TORSDOF 5
ENDMDL
MODEL 5
REMARK VINA RESULT:      -8.7      1.491      2.732
REMARK  Name = 
REMARK                            x       y       z     vdW  Elec       q    Type
REMARK                         _______ _______ _______ _____ _____    ______ ____
ROOT
ATOM      1  C   LIG    1       11.353   1.959  30.448  0.00  0.00    +0.352 C 
ENDROOT
BRANCH   1   4
ATOM      2  O   LIG    1        9.574   0.618  32.305  0.00  0.00    -0.270 OA
ATOM      3  C   LIG    1       10.435   1.403  32.657  0.00  0.00    +0.252 C 
ATOM      4  N   LIG    1       11.318   2.091  31.888  0.00  0.00    -0.200 N 
ATOM      5  C   LIG    1       12.115   2.876  32.662  0.00  0.00    +0.252 C 
ATOM      6  O   LIG    1       13.018   3.635  32.361  0.00  0.00    -0.270 OA
ATOM      7  C   LIG    1       11.695   2.657  34.049  0.00  0.00    +0.023 C 
ATOM      8  C   LIG    1       12.291   3.303  35.229  0.00  0.00    +0.041 C 
ATOM      9  C   LIG    1       11.702   2.830  36.563  0.00  0.00    +0.005 C 
ATOM     10  C   LIG    1       10.467   1.908  36.560  0.00  0.00    +0.005 C 
ATOM     11  C   LIG    1        9.995   1.276  35.241  0.00  0.00    +0.041 C 
ATOM     12  C   LIG    1       10.699   1.778  34.050  0.00  0.00    +0.023 C 
ENDBRANCH   1   4
BRANCH   1  13
ATOM     13  O   LIG    1       10.150   2.456  29.887  0.00  0.00    -0.444 OA
BRANCH  13  14
ATOM     14  C   LIG    1        9.526   1.625  29.027  0.00  0.00    +0.313 C 
ATOM     15  O   LIG    1        9.917   0.517  28.687  0.00  0.00    -0.250 OA
BRANCH  14  16
ATOM     16  C   LIG    1        8.246   2.230  28.590  0.00  0.00    +0.111 C 
ATOM     17  C   LIG    1        7.673   2.195  27.183  0.00  0.00    -0.014 C 
ATOM     18  C   LIG    1        6.164   2.132  27.070  0.00  0.00    +0.012 C 
ATOM     19  C   LIG    1        8.367   1.439  26.076  0.00  0.00    +0.012 C 
ATOM     20  C   LIG    1        8.249   3.486  27.735  0.00  0.00    +0.032 C 
BRANCH  20  21
ATOM     21  C   LIG    1        9.526   4.049  27.270  0.00  0.00    -0.023 C 
ATOM     22  C   LIG    1        9.702   4.927  26.261  0.00  0.00    -0.079 C 
ATOM     23  C   LIG    1       11.073   5.427  25.891  0.00  0.00    +0.038 C 
ATOM     24  C   LIG    1        8.584   5.477  25.417  0.00  0.00    +0.038 C 
ENDBRANCH  20  21
ENDBRANCH  14  16
ENDBRANCH  13  14
ENDBRANCH   1  13
TORSDOF 5
ENDMDL
MODEL 6
REMARK VINA RESULT:      -8.7      3.962      7.680
REMARK  Name = 
REMARK                            x       y       z     vdW  Elec       q    Type
REMARK                         _______ _______ _______ _____ _____    ______ ____
ROOT
ATOM      1  C   LIG    1        7.140   3.757  25.780  0.00  0.00    +0.352 C 
ENDROOT
BRANCH   1   4
ATOM      2  O   LIG    1        5.499   4.311  28.107  0.00  0.00    -0.270 OA
ATOM      3  C   LIG    1        6.012   5.184  27.430  0.00  0.00    +0.252 C 
ATOM      4  N   LIG    1        6.790   5.050  26.325  0.00  0.00    -0.200 N 
ATOM      5  C   LIG    1        7.162   6.270  25.853  0.00  0.00    +0.252 C 
ATOM      6  O   LIG    1        7.847   6.578  24.895  0.00  0.00    -0.270 OA
ATOM      7  C   LIG    1        6.563   7.265  26.749  0.00  0.00    +0.023 C 
ATOM      8  C   LIG    1        6.707   8.723  26.617  0.00  0.00    +0.041 C 
ATOM      9  C   LIG    1        6.033   9.520  27.740  0.00  0.00    +0.005 C 
ATOM     10  C   LIG    1        5.142   8.784  28.759  0.00  0.00    +0.005 C 
ATOM     11  C   LIG    1        5.136   7.248  28.794  0.00  0.00    +0.041 C 
ATOM     12  C   LIG    1        5.882   6.621  27.690  0.00  0.00    +0.023 C 
ENDBRANCH   1   4
BRANCH   1  13
ATOM     13  O   LIG    1        7.909   3.027  26.720  0.00  0.00    -0.444 OA
BRANCH  13  14
ATOM     14  C   LIG    1        7.608   1.715  26.820  0.00  0.00    +0.313 C 
ATOM     15  O   LIG    1        6.547   1.250  27.212  0.00  0.00    -0.250 OA
BRANCH  14  16
ATOM     16  C   LIG    1        8.743   0.904  26.323  0.00  0.00    +0.111 C 
ATOM     17  C   LIG    1        8.997  -0.564  26.627  0.00  0.00    -0.014 C 
ATOM     18  C   LIG    1        9.644  -1.379  25.527  0.00  0.00    +0.012 C 
ATOM     19  C   LIG    1        8.020  -1.371  27.445  0.00  0.00    +0.012 C 
ATOM     20  C   LIG    1        9.866   0.505  27.266  0.00  0.00    +0.032 C 
BRANCH  20  21
ATOM     21  C   LIG    1        9.777   0.851  28.694  0.00  0.00    -0.023 C 
ATOM     22  C   LIG    1       10.724   1.457  29.439  0.00  0.00    -0.079 C 
ATOM     23  C   LIG    1       10.498   1.757  30.896  0.00  0.00    +0.038 C 
ATOM     24  C   LIG    1       12.069   1.878  28.912  0.00  0.00    +0.038 C 
ENDBRANCH  20  21
ENDBRANCH  14  16
ENDBRANCH  13  14
ENDBRANCH   1  13
TORSDOF 5
ENDMDL
MODEL 7
REMARK VINA RESULT:      -8.7      8.606      9.997
REMARK  Name = 
REMARK                            x       y       z     vdW  Elec       q    Type
REMARK                         _______ _______ _______ _____ _____    ______ ____
ROOT
ATOM      1  C   LIG    1       19.335   4.014  26.014  0.00  0.00    +0.352 C 
ENDROOT
BRANCH   1   4
ATOM      2  O   LIG    1       20.383   6.540  26.982  0.00  0.00    -0.270 OA
ATOM      3  C   LIG    1       19.476   5.941  27.531  0.00  0.00    +0.252 C 
ATOM      4  N   LIG    1       18.907   4.759  27.178  0.00  0.00    -0.200 N 
ATOM      5  C   LIG    1       17.924   4.422  28.055  0.00  0.00    +0.252 C 
ATOM      6  O   LIG    1       17.188   3.453  28.092  0.00  0.00    -0.270 OA
ATOM      7  C   LIG    1       17.869   5.495  29.052  0.00  0.00    +0.023 C 
ATOM      8  C   LIG    1       16.941   5.547  30.194  0.00  0.00    +0.041 C 
ATOM      9  C   LIG    1       17.056   6.825  31.032  0.00  0.00    +0.005 C 
ATOM     10  C   LIG    1       18.200   7.817  30.746  0.00  0.00    +0.005 C 
ATOM     11  C   LIG    1       19.055   7.646  29.481  0.00  0.00    +0.041 C 
ATOM     12  C   LIG    1       18.787   6.403  28.740  0.00  0.00    +0.023 C 
ENDBRANCH   1   4
BRANCH   1  13
ATOM     13  O   LIG    1       18.861   4.644  24.836  0.00  0.00    -0.444 OA
BRANCH  13  14
ATOM     14  C   LIG    1       19.267   4.083  23.677  0.00  0.00    +0.313 C 
ATOM     15  O   LIG    1       19.790   4.670  22.740  0.00  0.00    -0.250 OA
BRANCH  14  16
ATOM     16  C   LIG    1       19.038   2.620  23.725  0.00  0.00    +0.111 C 
ATOM     17  C   LIG    1       18.885   1.698  22.526  0.00  0.00    -0.014 C 
ATOM     18  C   LIG    1       19.423   0.291  22.684  0.00  0.00    +0.012 C 
ATOM     19  C   LIG    1       19.034   2.218  21.118  0.00  0.00    +0.012 C 
ATOM     20  C   LIG    1       17.674   2.050  23.372  0.00  0.00    +0.032 C 
BRANCH  20  21
ATOM     21  C   LIG    1       16.608   2.947  22.897  0.00  0.00    -0.023 C 
ATOM     22  C   LIG    1       15.711   3.608  23.657  0.00  0.00    -0.079 C 
ATOM     23  C   LIG    1       14.671   4.502  23.037  0.00  0.00    +0.038 C 
ATOM     24  C   LIG    1       15.650   3.520  25.158  0.00  0.00    +0.038 C 
ENDBRANCH  20  21
ENDBRANCH  14  16
ENDBRANCH  13  14
ENDBRANCH   1  13
TORSDOF 5
ENDMDL
MODEL 8
REMARK VINA RESULT:      -8.6      1.467      3.459
REMARK  Name = 
REMARK                            x       y       z     vdW  Elec       q    Type
REMARK                         _______ _______ _______ _____ _____    ______ ____
ROOT
ATOM      1  C   LIG    1       10.899   1.621  29.900  0.00  0.00    +0.352 C 
ENDROOT
BRANCH   1   4
ATOM      2  O   LIG    1        9.380   0.422  32.061  0.00  0.00    -0.270 OA
ATOM      3  C   LIG    1       10.268   1.234  32.242  0.00  0.00    +0.252 C 
ATOM      4  N   LIG    1       11.041   1.863  31.320  0.00  0.00    -0.200 N 
ATOM      5  C   LIG    1       11.919   2.706  31.927  0.00  0.00    +0.252 C 
ATOM      6  O   LIG    1       12.768   3.442  31.460  0.00  0.00    -0.270 OA
ATOM      7  C   LIG    1       11.676   2.594  33.368  0.00  0.00    +0.023 C 
ATOM      8  C   LIG    1       12.405   3.330  34.412  0.00  0.00    +0.041 C 
ATOM      9  C   LIG    1       11.991   2.959  35.842  0.00  0.00    +0.005 C 
ATOM     10  C   LIG    1       10.776   2.037  36.061  0.00  0.00    +0.005 C 
ATOM     11  C   LIG    1       10.152   1.304  34.863  0.00  0.00    +0.041 C 
ATOM     12  C   LIG    1       10.698   1.715  33.559  0.00  0.00    +0.023 C 
ENDBRANCH   1   4
BRANCH   1  13
ATOM     13  O   LIG    1       10.005   2.564  29.335  0.00  0.00    -0.444 OA
BRANCH  13  14
ATOM     14  C   LIG    1        8.866   2.049  28.827  0.00  0.00    +0.313 C 
ATOM     15  O   LIG    1        8.031   1.404  29.446  0.00  0.00    -0.250 OA
BRANCH  14  16
ATOM     16  C   LIG    1        8.738   2.431  27.402  0.00  0.00    +0.111 C 
ATOM     17  C   LIG    1        7.530   2.185  26.513  0.00  0.00    -0.014 C 
ATOM     18  C   LIG    1        7.245   3.232  25.457  0.00  0.00    +0.012 C 
ATOM     19  C   LIG    1        6.271   1.560  27.063  0.00  0.00    +0.012 C 
ATOM     20  C   LIG    1        8.795   1.367  26.319  0.00  0.00    +0.032 C 
BRANCH  20  21
ATOM     21  C   LIG    1        8.888  -0.053  26.695  0.00  0.00    -0.023 C 
ATOM     22  C   LIG    1        9.196  -1.085  25.883  0.00  0.00    -0.079 C 
ATOM     23  C   LIG    1        9.260  -2.496  26.403  0.00  0.00    +0.038 C 
ATOM     24  C   LIG    1        9.492  -0.943  24.415  0.00  0.00    +0.038 C 
ENDBRANCH  20  21
ENDBRANCH  14  16
ENDBRANCH  13  14
ENDBRANCH   1  13
TORSDOF 5
ENDMDL
MODEL 9
REMARK VINA RESULT:      -8.6      4.273      7.527
REMARK  Name = 
REMARK                            x       y       z     vdW  Elec       q    Type
REMARK                         _______ _______ _______ _____ _____    ______ ____
ROOT
ATOM      1  C   LIG    1        6.477   3.489  26.284  0.00  0.00    +0.352 C 
ENDROOT
BRANCH   1   4
ATOM      2  O   LIG    1        4.965   4.513  28.539  0.00  0.00    -0.270 OA
ATOM      3  C   LIG    1        5.590   5.227  27.776  0.00  0.00    +0.252 C 
ATOM      4  N   LIG    1        6.326   4.869  26.693  0.00  0.00    -0.200 N 
ATOM      5  C   LIG    1        6.864   5.967  26.097  0.00  0.00    +0.252 C 
ATOM      6  O   LIG    1        7.574   6.072  25.114  0.00  0.00    -0.270 OA
ATOM      7  C   LIG    1        6.427   7.125  26.884  0.00  0.00    +0.023 C 
ATOM      8  C   LIG    1        6.779   8.525  26.602  0.00  0.00    +0.041 C 
ATOM      9  C   LIG    1        6.242   9.523  27.635  0.00  0.00    +0.005 C 
ATOM     10  C   LIG    1        5.268   9.033  28.723  0.00  0.00    +0.005 C 
ATOM     11  C   LIG    1        5.040   7.526  28.917  0.00  0.00    +0.041 C 
ATOM     12  C   LIG    1        5.673   6.687  27.886  0.00  0.00    +0.023 C 
ENDBRANCH   1   4
BRANCH   1  13
ATOM     13  O   LIG    1        7.852   3.163  26.182  0.00  0.00    -0.444 OA
BRANCH  13  14
ATOM     14  C   LIG    1        8.541   3.190  27.342  0.00  0.00    +0.313 C 
ATOM     15  O   LIG    1        9.417   3.990  27.639  0.00  0.00    -0.250 OA
BRANCH  14  16
ATOM     16  C   LIG    1        8.036   2.130  28.246  0.00  0.00    +0.111 C 
ATOM     17  C   LIG    1        8.884   1.137  29.024  0.00  0.00    -0.014 C 
ATOM     18  C   LIG    1        8.354   0.710  30.376  0.00  0.00    +0.012 C 
ATOM     19  C   LIG    1       10.391   1.202  28.989  0.00  0.00    +0.012 C 
ATOM     20  C   LIG    1        8.088   0.673  27.817  0.00  0.00    +0.032 C 
BRANCH  20  21
ATOM     21  C   LIG    1        8.722   0.311  26.539  0.00  0.00    -0.023 C 
ATOM     22  C   LIG    1        9.178  -0.906  26.180  0.00  0.00    -0.079 C 
ATOM     23  C   LIG    1        9.805  -1.139  24.831  0.00  0.00    +0.038 C 
ATOM     24  C   LIG    1        9.119  -2.123  27.063  0.00  0.00    +0.038 C 
ENDBRANCH  20  21
ENDBRANCH  14  16
ENDBRANCH  13  14
ENDBRANCH   1  13
TORSDOF 5
ENDMDL
