MODEL 1
REMARK VINA RESULT:      -2.4      0.000      0.000
REMARK  Name = 
REMARK                            x       y       z     vdW  Elec       q    Type
REMARK                         _______ _______ _______ _____ _____    ______ ____
ROOT
ATOM      1  C   LIG    1       18.906   1.656  55.405  0.00  0.00    +0.352 C 
ENDROOT
BRANCH   1   4
ATOM      2  O   LIG    1       20.907   0.577  53.603  0.00  0.00    -0.270 OA
ATOM      3  C   LIG    1       20.685   1.769  53.716  0.00  0.00    +0.252 C 
ATOM      4  N   LIG    1       19.785   2.390  54.521  0.00  0.00    -0.200 N 
ATOM      5  C   LIG    1       19.850   3.738  54.359  0.00  0.00    +0.252 C 
ATOM      6  O   LIG    1       19.221   4.635  54.889  0.00  0.00    -0.270 OA
ATOM      7  C   LIG    1       20.888   3.988  53.354  0.00  0.00    +0.023 C 
ATOM      8  C   LIG    1       21.294   5.314  52.863  0.00  0.00    +0.041 C 
ATOM      9  C   LIG    1       22.354   5.272  51.756  0.00  0.00    +0.005 C 
ATOM     10  C   LIG    1       23.016   3.929  51.394  0.00  0.00    +0.005 C 
ATOM     11  C   LIG    1       22.441   2.621  51.961  0.00  0.00    +0.041 C 
ATOM     12  C   LIG    1       21.383   2.818  52.966  0.00  0.00    +0.023 C 
ENDBRANCH   1   4
BRANCH   1  13
ATOM     13  O   LIG    1       17.562   2.052  55.189  0.00  0.00    -0.444 OA
BRANCH  13  14
ATOM     14  C   LIG    1       16.951   1.477  54.133  0.00  0.00    +0.313 C 
ATOM     15  O   LIG    1       17.177   0.357  53.695  0.00  0.00    -0.250 OA
BRANCH  14  16
ATOM     16  C   LIG    1       15.908   2.386  53.604  0.00  0.00    +0.111 C 
ATOM     17  C   LIG    1       15.031   2.133  52.389  0.00  0.00    -0.014 C 
ATOM     18  C   LIG    1       13.623   2.687  52.445  0.00  0.00    +0.012 C 
ATOM     19  C   LIG    1       15.110   0.832  51.627  0.00  0.00    +0.012 C 
ATOM     20  C   LIG    1       16.150   3.156  52.316  0.00  0.00    +0.032 C 
BRANCH  20  21
ATOM     21  C   LIG    1       17.386   2.929  51.550  0.00  0.00    -0.023 C 
ATOM     22  C   LIG    1       18.118   3.858  50.902  0.00  0.00    -0.079 C 
ATOM     23  C   LIG    1       19.371   3.486  50.157  0.00  0.00    +0.038 C 
ATOM     24  C   LIG    1       17.767   5.320  50.850  0.00  0.00    +0.038 C 
ENDBRANCH  20  21
ENDBRANCH  14  16
ENDBRANCH  13  14
ENDBRANCH   1  13
TORSDOF 5
ENDMDL
MODEL 2
REMARK VINA RESULT:      -2.2      1.902      6.071
REMARK  Name = 
REMARK                            x       y       z     vdW  Elec       q    Type
REMARK                         _______ _______ _______ _____ _____    ______ ____
ROOT
ATOM      1  C   LIG    1       16.626   2.596  54.724  0.00  0.00    +0.352 C 
ENDROOT
BRANCH   1   4
ATOM      2  O   LIG    1       14.564   3.504  52.897  0.00  0.00    -0.270 OA
ATOM      3  C   LIG    1       15.044   2.386  52.857  0.00  0.00    +0.252 C 
ATOM      4  N   LIG    1       16.002   1.847  53.654  0.00  0.00    -0.200 N 
ATOM      5  C   LIG    1       16.259   0.562  53.290  0.00  0.00    +0.252 C 
ATOM      6  O   LIG    1       17.037  -0.254  53.748  0.00  0.00    -0.270 OA
ATOM      7  C   LIG    1       15.380   0.267  52.155  0.00  0.00    +0.023 C 
ATOM      8  C   LIG    1       15.324  -1.016  51.436  0.00  0.00    +0.041 C 
ATOM      9  C   LIG    1       14.364  -1.018  50.240  0.00  0.00    +0.005 C 
ATOM     10  C   LIG    1       13.439   0.193  50.010  0.00  0.00    +0.005 C 
ATOM     11  C   LIG    1       13.659   1.480  50.820  0.00  0.00    +0.041 C 
ATOM     12  C   LIG    1       14.659   1.351  51.892  0.00  0.00    +0.023 C 
ENDBRANCH   1   4
BRANCH   1  13
ATOM     13  O   LIG    1       17.319   3.712  54.194  0.00  0.00    -0.444 OA
BRANCH  13  14
ATOM     14  C   LIG    1       18.546   3.930  54.710  0.00  0.00    +0.313 C 
ATOM     15  O   LIG    1       18.893   4.914  55.348  0.00  0.00    -0.250 OA
BRANCH  14  16
ATOM     16  C   LIG    1       19.415   2.760  54.441  0.00  0.00    +0.111 C 
ATOM     17  C   LIG    1       20.934   2.762  54.405  0.00  0.00    -0.014 C 
ATOM     18  C   LIG    1       21.622   1.502  54.885  0.00  0.00    +0.012 C 
ATOM     19  C   LIG    1       21.721   4.009  54.728  0.00  0.00    +0.012 C 
ATOM     20  C   LIG    1       20.145   2.642  53.113  0.00  0.00    +0.032 C 
BRANCH  20  21
ATOM     21  C   LIG    1       20.057   3.735  52.132  0.00  0.00    -0.023 C 
ATOM     22  C   LIG    1       19.176   3.841  51.117  0.00  0.00    -0.079 C 
ATOM     23  C   LIG    1       19.195   5.022  50.184  0.00  0.00    +0.038 C 
ATOM     24  C   LIG    1       18.116   2.816  50.811  0.00  0.00    +0.038 C 
ENDBRANCH  20  21
ENDBRANCH  14  16
ENDBRANCH  13  14
ENDBRANCH   1  13
TORSDOF 5
ENDMDL
MODEL 3
REMARK VINA RESULT:      -2.2      2.004      5.629
REMARK  Name = 
REMARK                            x       y       z     vdW  Elec       q    Type
REMARK                         _______ _______ _______ _____ _____    ______ ____
ROOT
ATOM      1  C   LIG    1       16.694   2.704  54.940  0.00  0.00    +0.352 C 
ENDROOT
BRANCH   1   4
ATOM      2  O   LIG    1       17.011  -0.069  54.150  0.00  0.00    -0.270 OA
ATOM      3  C   LIG    1       16.244   0.698  53.596  0.00  0.00    +0.252 C 
ATOM      4  N   LIG    1       16.013   2.007  53.870  0.00  0.00    -0.200 N 
ATOM      5  C   LIG    1       15.084   2.517  53.017  0.00  0.00    +0.252 C 
ATOM      6  O   LIG    1       14.610   3.635  52.931  0.00  0.00    -0.270 OA
ATOM      7  C   LIG    1       14.693   1.422  52.124  0.00  0.00    +0.023 C 
ATOM      8  C   LIG    1       13.703   1.522  51.040  0.00  0.00    +0.041 C 
ATOM      9  C   LIG    1       13.438   0.198  50.314  0.00  0.00    +0.005 C 
ATOM     10  C   LIG    1       14.318  -1.027  50.629  0.00  0.00    +0.005 C 
ATOM     11  C   LIG    1       15.276  -0.985  51.830  0.00  0.00    +0.041 C 
ATOM     12  C   LIG    1       15.378   0.337  52.469  0.00  0.00    +0.023 C 
ENDBRANCH   1   4
BRANCH   1  13
ATOM     13  O   LIG    1       17.443   3.785  54.413  0.00  0.00    -0.444 OA
BRANCH  13  14
ATOM     14  C   LIG    1       18.585   3.444  53.780  0.00  0.00    +0.313 C 
ATOM     15  O   LIG    1       19.630   3.105  54.317  0.00  0.00    -0.250 OA
BRANCH  14  16
ATOM     16  C   LIG    1       18.373   3.483  52.314  0.00  0.00    +0.111 C 
ATOM     17  C   LIG    1       19.294   4.128  51.292  0.00  0.00    -0.014 C 
ATOM     18  C   LIG    1       19.375   3.457  49.938  0.00  0.00    +0.012 C 
ATOM     19  C   LIG    1       20.604   4.752  51.707  0.00  0.00    +0.012 C 
ATOM     20  C   LIG    1       17.967   4.781  51.637  0.00  0.00    +0.032 C 
BRANCH  20  21
ATOM     21  C   LIG    1       17.873   6.019  52.427  0.00  0.00    -0.023 C 
ATOM     22  C   LIG    1       17.286   7.174  52.053  0.00  0.00    -0.079 C 
ATOM     23  C   LIG    1       17.258   8.368  52.968  0.00  0.00    +0.038 C 
ATOM     24  C   LIG    1       16.623   7.389  50.719  0.00  0.00    +0.038 C 
ENDBRANCH  20  21
ENDBRANCH  14  16
ENDBRANCH  13  14
ENDBRANCH   1  13
TORSDOF 5
ENDMDL
MODEL 4
REMARK VINA RESULT:      -2.1      1.842      3.685
REMARK  Name = 
REMARK                            x       y       z     vdW  Elec       q    Type
REMARK                         _______ _______ _______ _____ _____    ______ ____
ROOT
ATOM      1  C   LIG    1       18.600   3.248  53.224  0.00  0.00    +0.352 C 
ENDROOT
BRANCH   1   4
ATOM      2  O   LIG    1       19.290   5.381  51.384  0.00  0.00    -0.270 OA
ATOM      3  C   LIG    1       20.069   4.503  51.707  0.00  0.00    +0.252 C 
ATOM      4  N   LIG    1       19.863   3.457  52.549  0.00  0.00    -0.200 N 
ATOM      5  C   LIG    1       20.983   2.692  52.643  0.00  0.00    +0.252 C 
ATOM      6  O   LIG    1       21.204   1.680  53.282  0.00  0.00    -0.270 OA
ATOM      7  C   LIG    1       21.989   3.318  51.779  0.00  0.00    +0.023 C 
ATOM      8  C   LIG    1       23.361   2.825  51.578  0.00  0.00    +0.041 C 
ATOM      9  C   LIG    1       24.219   3.721  50.678  0.00  0.00    +0.005 C 
ATOM     10  C   LIG    1       23.561   4.901  49.938  0.00  0.00    +0.005 C 
ATOM     11  C   LIG    1       22.126   5.318  50.297  0.00  0.00    +0.041 C 
ATOM     12  C   LIG    1       21.450   4.398  51.225  0.00  0.00    +0.023 C 
ENDBRANCH   1   4
BRANCH   1  13
ATOM     13  O   LIG    1       17.821   2.304  52.510  0.00  0.00    -0.444 OA
BRANCH  13  14
ATOM     14  C   LIG    1       16.591   2.725  52.147  0.00  0.00    +0.313 C 
ATOM     15  O   LIG    1       16.169   3.869  52.237  0.00  0.00    -0.250 OA
BRANCH  14  16
ATOM     16  C   LIG    1       15.832   1.598  51.558  0.00  0.00    +0.111 C 
ATOM     17  C   LIG    1       14.329   1.385  51.649  0.00  0.00    -0.014 C 
ATOM     18  C   LIG    1       13.667   0.732  50.454  0.00  0.00    +0.012 C 
ATOM     19  C   LIG    1       13.438   2.398  52.323  0.00  0.00    +0.012 C 
ATOM     20  C   LIG    1       15.271   0.506  52.454  0.00  0.00    +0.032 C 
BRANCH  20  21
ATOM     21  C   LIG    1       15.407   0.618  53.915  0.00  0.00    -0.023 C 
ATOM     22  C   LIG    1       16.349   0.037  54.685  0.00  0.00    -0.079 C 
ATOM     23  C   LIG    1       16.375   0.241  56.176  0.00  0.00    +0.038 C 
ATOM     24  C   LIG    1       17.437  -0.858  54.155  0.00  0.00    +0.038 C 
ENDBRANCH  20  21
ENDBRANCH  14  16
ENDBRANCH  13  14
ENDBRANCH   1  13
TORSDOF 5
ENDMDL
MODEL 5
REMARK VINA RESULT:      -2.1      2.160      3.648
REMARK  Name = 
REMARK                            x       y       z     vdW  Elec       q    Type
REMARK                         _______ _______ _______ _____ _____    ______ ____
ROOT
ATOM      1  C   LIG    1       17.898   6.168  52.281  0.00  0.00    +0.352 C 
ENDROOT
BRANCH   1   4
ATOM      2  O   LIG    1       19.655   5.850  54.567  0.00  0.00    -0.270 OA
ATOM      3  C   LIG    1       19.866   5.329  53.487  0.00  0.00    +0.252 C 
ATOM      4  N   LIG    1       19.126   5.406  52.351  0.00  0.00    -0.200 N 
ATOM      5  C   LIG    1       19.705   4.685  51.354  0.00  0.00    +0.252 C 
ATOM      6  O   LIG    1       19.362   4.504  50.200  0.00  0.00    -0.270 OA
ATOM      7  C   LIG    1       20.923   4.096  51.918  0.00  0.00    +0.023 C 
ATOM      8  C   LIG    1       21.864   3.230  51.190  0.00  0.00    +0.041 C 
ATOM      9  C   LIG    1       23.014   2.696  52.052  0.00  0.00    +0.005 C 
ATOM     10  C   LIG    1       23.195   3.230  53.486  0.00  0.00    +0.005 C 
ATOM     11  C   LIG    1       22.093   4.093  54.120  0.00  0.00    +0.041 C 
ATOM     12  C   LIG    1       21.019   4.473  53.188  0.00  0.00    +0.023 C 
ENDBRANCH   1   4
BRANCH   1  13
ATOM     13  O   LIG    1       16.855   5.359  51.764  0.00  0.00    -0.444 OA
BRANCH  13  14
ATOM     14  C   LIG    1       16.320   4.479  52.636  0.00  0.00    +0.313 C 
ATOM     15  O   LIG    1       15.804   4.755  53.710  0.00  0.00    -0.250 OA
BRANCH  14  16
ATOM     16  C   LIG    1       16.395   3.111  52.072  0.00  0.00    +0.111 C 
ATOM     17  C   LIG    1       15.696   1.877  52.619  0.00  0.00    -0.014 C 
ATOM     18  C   LIG    1       15.243   0.851  51.601  0.00  0.00    +0.012 C 
ATOM     19  C   LIG    1       14.764   1.968  53.802  0.00  0.00    +0.012 C 
ATOM     20  C   LIG    1       17.197   2.035  52.786  0.00  0.00    +0.032 C 
BRANCH  20  21
ATOM     21  C   LIG    1       17.825   2.332  54.083  0.00  0.00    -0.023 C 
ATOM     22  C   LIG    1       19.004   1.861  54.537  0.00  0.00    -0.079 C 
ATOM     23  C   LIG    1       19.533   2.252  55.890  0.00  0.00    +0.038 C 
ATOM     24  C   LIG    1       19.886   0.915  53.767  0.00  0.00    +0.038 C 
ENDBRANCH  20  21
ENDBRANCH  14  16
ENDBRANCH  13  14
ENDBRANCH   1  13
TORSDOF 5
ENDMDL
MODEL 6
REMARK VINA RESULT:      -2.1      1.507      5.515
REMARK  Name = 
REMARK                            x       y       z     vdW  Elec       q    Type
REMARK                         _______ _______ _______ _____ _____    ______ ____
ROOT
ATOM      1  C   LIG    1       19.927   3.477  54.819  0.00  0.00    +0.352 C 
ENDROOT
BRANCH   1   4
ATOM      2  O   LIG    1       19.026   1.009  53.588  0.00  0.00    -0.270 OA
ATOM      3  C   LIG    1       18.332   2.006  53.667  0.00  0.00    +0.252 C 
ATOM      4  N   LIG    1       18.640   3.212  54.212  0.00  0.00    -0.200 N 
ATOM      5  C   LIG    1       17.592   4.070  54.096  0.00  0.00    +0.252 C 
ATOM      6  O   LIG    1       17.469   5.228  54.450  0.00  0.00    -0.270 OA
ATOM      7  C   LIG    1       16.523   3.333  53.416  0.00  0.00    +0.023 C 
ATOM      8  C   LIG    1       15.196   3.876  53.084  0.00  0.00    +0.041 C 
ATOM      9  C   LIG    1       14.249   2.857  52.440  0.00  0.00    +0.005 C 
ATOM     10  C   LIG    1       14.791   1.472  52.035  0.00  0.00    +0.005 C 
ATOM     11  C   LIG    1       16.189   1.038  52.501  0.00  0.00    +0.041 C 
ATOM     12  C   LIG    1       16.958   2.104  53.164  0.00  0.00    +0.023 C 
ENDBRANCH   1   4
BRANCH   1  13
ATOM     13  O   LIG    1       20.660   4.390  54.020  0.00  0.00    -0.444 OA
BRANCH  13  14
ATOM     14  C   LIG    1       21.966   4.096  53.855  0.00  0.00    +0.313 C 
ATOM     15  O   LIG    1       22.896   4.581  54.484  0.00  0.00    -0.250 OA
BRANCH  14  16
ATOM     16  C   LIG    1       22.114   3.039  52.827  0.00  0.00    +0.111 C 
ATOM     17  C   LIG    1       22.811   3.187  51.485  0.00  0.00    -0.014 C 
ATOM     18  C   LIG    1       23.526   1.961  50.957  0.00  0.00    +0.012 C 
ATOM     19  C   LIG    1       23.507   4.470  51.104  0.00  0.00    +0.012 C 
ATOM     20  C   LIG    1       21.296   3.101  51.548  0.00  0.00    +0.032 C 
BRANCH  20  21
ATOM     21  C   LIG    1       20.425   4.260  51.294  0.00  0.00    -0.023 C 
ATOM     22  C   LIG    1       19.251   4.258  50.628  0.00  0.00    -0.079 C 
ATOM     23  C   LIG    1       18.455   5.521  50.444  0.00  0.00    +0.038 C 
ATOM     24  C   LIG    1       18.635   3.031  50.011  0.00  0.00    +0.038 C 
ENDBRANCH  20  21
ENDBRANCH  14  16
ENDBRANCH  13  14
ENDBRANCH   1  13
TORSDOF 5
ENDMDL
MODEL 7
REMARK VINA RESULT:      -2.0      2.561      6.166
REMARK  Name = 
REMARK                            x       y       z     vdW  Elec       q    Type
REMARK                         _______ _______ _______ _____ _____    ______ ____
ROOT
ATOM      1  C   LIG    1       18.907   3.194  50.345  0.00  0.00    +0.352 C 
ENDROOT
BRANCH   1   4
ATOM      2  O   LIG    1       17.751   2.077  52.760  0.00  0.00    -0.270 OA
ATOM      3  C   LIG    1       17.525   3.210  52.376  0.00  0.00    +0.252 C 
ATOM      4  N   LIG    1       17.999   3.839  51.269  0.00  0.00    -0.200 N 
ATOM      5  C   LIG    1       17.503   5.103  51.189  0.00  0.00    +0.252 C 
ATOM      6  O   LIG    1       17.680   5.976  50.360  0.00  0.00    -0.270 OA
ATOM      7  C   LIG    1       16.638   5.286  52.359  0.00  0.00    +0.023 C 
ATOM      8  C   LIG    1       15.893   6.513  52.680  0.00  0.00    +0.041 C 
ATOM      9  C   LIG    1       15.126   6.448  54.006  0.00  0.00    +0.005 C 
ATOM     10  C   LIG    1       15.042   5.110  54.766  0.00  0.00    +0.005 C 
ATOM     11  C   LIG    1       15.923   3.930  54.325  0.00  0.00    +0.041 C 
ATOM     12  C   LIG    1       16.653   4.164  53.069  0.00  0.00    +0.023 C 
ENDBRANCH   1   4
BRANCH   1  13
ATOM     13  O   LIG    1       19.913   4.106  49.940  0.00  0.00    -0.444 OA
BRANCH  13  14
ATOM     14  C   LIG    1       20.963   4.219  50.779  0.00  0.00    +0.313 C 
ATOM     15  O   LIG    1       21.667   3.302  51.176  0.00  0.00    -0.250 OA
BRANCH  14  16
ATOM     16  C   LIG    1       21.184   5.646  51.112  0.00  0.00    +0.111 C 
ATOM     17  C   LIG    1       22.309   6.202  51.970  0.00  0.00    -0.014 C 
ATOM     18  C   LIG    1       22.833   7.571  51.590  0.00  0.00    +0.012 C 
ATOM     19  C   LIG    1       23.387   5.303  52.521  0.00  0.00    +0.012 C 
ATOM     20  C   LIG    1       20.892   6.157  52.513  0.00  0.00    +0.032 C 
BRANCH  20  21
ATOM     21  C   LIG    1       20.473   5.212  53.561  0.00  0.00    -0.023 C 
ATOM     22  C   LIG    1       19.642   5.466  54.592  0.00  0.00    -0.079 C 
ATOM     23  C   LIG    1       19.293   4.400  55.596  0.00  0.00    +0.038 C 
ATOM     24  C   LIG    1       19.000   6.803  54.847  0.00  0.00    +0.038 C 
ENDBRANCH  20  21
ENDBRANCH  14  16
ENDBRANCH  13  14
ENDBRANCH   1  13
TORSDOF 5
ENDMDL
MODEL 8
REMARK VINA RESULT:      -2.0      2.011      3.325
REMARK  Name = 
REMARK                            x       y       z     vdW  Elec       q    Type
REMARK                         _______ _______ _______ _____ _____    ______ ____
ROOT
ATOM      1  C   LIG    1       16.815   4.605  52.184  0.00  0.00    +0.352 C 
ENDROOT
BRANCH   1   4
ATOM      2  O   LIG    1       18.648   3.058  50.552  0.00  0.00    -0.270 OA
ATOM      3  C   LIG    1       18.993   3.663  51.551  0.00  0.00    +0.252 C 
ATOM      4  N   LIG    1       18.234   4.411  52.392  0.00  0.00    -0.200 N 
ATOM      5  C   LIG    1       18.994   4.918  53.399  0.00  0.00    +0.252 C 
ATOM      6  O   LIG    1       18.696   5.625  54.344  0.00  0.00    -0.270 OA
ATOM      7  C   LIG    1       20.362   4.444  53.167  0.00  0.00    +0.023 C 
ATOM      8  C   LIG    1       21.524   4.754  54.015  0.00  0.00    +0.041 C 
ATOM      9  C   LIG    1       22.848   4.185  53.492  0.00  0.00    +0.005 C 
ATOM     10  C   LIG    1       22.834   3.224  52.288  0.00  0.00    +0.005 C 
ATOM     11  C   LIG    1       21.542   3.042  51.476  0.00  0.00    +0.041 C 
ATOM     12  C   LIG    1       20.366   3.701  52.066  0.00  0.00    +0.023 C 
ENDBRANCH   1   4
BRANCH   1  13
ATOM     13  O   LIG    1       16.080   3.876  53.152  0.00  0.00    -0.444 OA
BRANCH  13  14
ATOM     14  C   LIG    1       15.015   3.196  52.679  0.00  0.00    +0.313 C 
ATOM     15  O   LIG    1       13.841   3.476  52.873  0.00  0.00    -0.250 OA
BRANCH  14  16
ATOM     16  C   LIG    1       15.478   2.075  51.828  0.00  0.00    +0.111 C 
ATOM     17  C   LIG    1       14.801   0.723  51.681  0.00  0.00    -0.014 C 
ATOM     18  C   LIG    1       14.899   0.062  50.322  0.00  0.00    +0.012 C 
ATOM     19  C   LIG    1       13.494   0.425  52.375  0.00  0.00    +0.012 C 
ATOM     20  C   LIG    1       16.097   0.841  52.462  0.00  0.00    +0.032 C 
BRANCH  20  21
ATOM     21  C   LIG    1       16.155   0.725  53.928  0.00  0.00    -0.023 C 
ATOM     22  C   LIG    1       17.250   0.846  54.705  0.00  0.00    -0.079 C 
ATOM     23  C   LIG    1       17.166   0.707  56.202  0.00  0.00    +0.038 C 
ATOM     24  C   LIG    1       18.633   1.118  54.177  0.00  0.00    +0.038 C 
ENDBRANCH  20  21
ENDBRANCH  14  16
ENDBRANCH  13  14
ENDBRANCH   1  13
TORSDOF 5
ENDMDL
MODEL 9
REMARK VINA RESULT:      -2.0      1.960      3.049
REMARK  Name = 
REMARK                            x       y       z     vdW  Elec       q    Type
REMARK                         _______ _______ _______ _____ _____    ______ ____
ROOT
ATOM      1  C   LIG    1       18.701   3.159  55.083  0.00  0.00    +0.352 C 
ENDROOT
BRANCH   1   4
ATOM      2  O   LIG    1       17.116   5.580  55.283  0.00  0.00    -0.270 OA
ATOM      3  C   LIG    1       18.200   5.537  54.730  0.00  0.00    +0.252 C 
ATOM      4  N   LIG    1       19.027   4.472  54.569  0.00  0.00    -0.200 N 
ATOM      5  C   LIG    1       20.146   4.834  53.887  0.00  0.00    +0.252 C 
ATOM      6  O   LIG    1       21.114   4.182  53.543  0.00  0.00    -0.270 OA
ATOM      7  C   LIG    1       20.010   6.264  53.593  0.00  0.00    +0.023 C 
ATOM      8  C   LIG    1       20.997   7.080  52.868  0.00  0.00    +0.041 C 
ATOM      9  C   LIG    1       20.627   8.565  52.770  0.00  0.00    +0.005 C 
ATOM     10  C   LIG    1       19.237   9.030  53.243  0.00  0.00    +0.005 C 
ATOM     11  C   LIG    1       18.339   8.062  54.029  0.00  0.00    +0.041 C 
ATOM     12  C   LIG    1       18.856   6.686  54.097  0.00  0.00    +0.023 C 
ENDBRANCH   1   4
BRANCH   1  13
ATOM     13  O   LIG    1       18.417   2.277  54.010  0.00  0.00    -0.444 OA
BRANCH  13  14
ATOM     14  C   LIG    1       17.237   1.628  54.091  0.00  0.00    +0.313 C 
ATOM     15  O   LIG    1       17.068   0.496  54.522  0.00  0.00    -0.250 OA
BRANCH  14  16
ATOM     16  C   LIG    1       16.146   2.518  53.632  0.00  0.00    +0.111 C 
ATOM     17  C   LIG    1       15.249   2.288  52.426  0.00  0.00    -0.014 C 
ATOM     18  C   LIG    1       13.822   2.781  52.543  0.00  0.00    +0.012 C 
ATOM     19  C   LIG    1       15.360   1.030  51.601  0.00  0.00    +0.012 C 
ATOM     20  C   LIG    1       16.325   3.359  52.378  0.00  0.00    +0.032 C 
BRANCH  20  21
ATOM     21  C   LIG    1       17.549   3.219  51.574  0.00  0.00    -0.023 C 
ATOM     22  C   LIG    1       18.170   4.188  50.871  0.00  0.00    -0.079 C 
ATOM     23  C   LIG    1       19.425   3.906  50.091  0.00  0.00    +0.038 C 
ATOM     24  C   LIG    1       17.685   5.610  50.788  0.00  0.00    +0.038 C 
ENDBRANCH  20  21
ENDBRANCH  14  16
ENDBRANCH  13  14
ENDBRANCH   1  13
TORSDOF 5
ENDMDL
