MODEL 1
REMARK VINA RESULT:      -8.4      0.000      0.000
REMARK  Name = 
REMARK                            x       y       z     vdW  Elec       q    Type
REMARK                         _______ _______ _______ _____ _____    ______ ____
ROOT
ATOM      1  C   LIG    1       28.463   2.908  19.913  0.00  0.00    +0.352 C 
ENDROOT
BRANCH   1   4
ATOM      2  O   LIG    1       31.223   2.269  20.536  0.00  0.00    -0.270 OA
ATOM      3  C   LIG    1       30.278   1.651  20.991  0.00  0.00    +0.252 C 
ATOM      4  N   LIG    1       28.952   1.851  20.772  0.00  0.00    -0.200 N 
ATOM      5  C   LIG    1       28.212   0.941  21.460  0.00  0.00    +0.252 C 
ATOM      6  O   LIG    1       27.007   0.783  21.529  0.00  0.00    -0.270 OA
ATOM      7  C   LIG    1       29.164   0.091  22.183  0.00  0.00    +0.023 C 
ATOM      8  C   LIG    1       28.801  -1.031  23.063  0.00  0.00    +0.041 C 
ATOM      9  C   LIG    1       30.000  -1.698  23.748  0.00  0.00    +0.005 C 
ATOM     10  C   LIG    1       31.428  -1.291  23.337  0.00  0.00    +0.005 C 
ATOM     11  C   LIG    1       31.639  -0.062  22.440  0.00  0.00    +0.041 C 
ATOM     12  C   LIG    1       30.392   0.514  21.909  0.00  0.00    +0.023 C 
ENDBRANCH   1   4
BRANCH   1  13
ATOM     13  O   LIG    1       27.053   2.823  19.797  0.00  0.00    -0.444 OA
BRANCH  13  14
ATOM     14  C   LIG    1       26.475   3.786  19.050  0.00  0.00    +0.313 C 
ATOM     15  O   LIG    1       25.980   4.822  19.472  0.00  0.00    -0.250 OA
BRANCH  14  16
ATOM     16  C   LIG    1       26.578   3.433  17.615  0.00  0.00    +0.111 C 
ATOM     17  C   LIG    1       25.425   3.049  16.702  0.00  0.00    -0.014 C 
ATOM     18  C   LIG    1       25.542   3.472  15.253  0.00  0.00    +0.012 C 
ATOM     19  C   LIG    1       23.999   3.066  17.196  0.00  0.00    +0.012 C 
ATOM     20  C   LIG    1       26.408   1.990  17.171  0.00  0.00    +0.032 C 
BRANCH  20  21
ATOM     21  C   LIG    1       26.052   0.959  18.159  0.00  0.00    -0.023 C 
ATOM     22  C   LIG    1       26.354  -0.354  18.101  0.00  0.00    -0.079 C 
ATOM     23  C   LIG    1       25.930  -1.303  19.189  0.00  0.00    +0.038 C 
ATOM     24  C   LIG    1       27.117  -0.994  16.972  0.00  0.00    +0.038 C 
ENDBRANCH  20  21
ENDBRANCH  14  16
ENDBRANCH  13  14
ENDBRANCH   1  13
TORSDOF 5
ENDMDL
MODEL 2
REMARK VINA RESULT:      -8.1      0.808      2.769
REMARK  Name = 
REMARK                            x       y       z     vdW  Elec       q    Type
REMARK                         _______ _______ _______ _____ _____    ______ ____
ROOT
ATOM      1  C   LIG    1       28.571   2.841  19.941  0.00  0.00    +0.352 C 
ENDROOT
BRANCH   1   4
ATOM      2  O   LIG    1       31.319   2.284  20.687  0.00  0.00    -0.270 OA
ATOM      3  C   LIG    1       30.375   1.622  21.079  0.00  0.00    +0.252 C 
ATOM      4  N   LIG    1       29.055   1.781  20.798  0.00  0.00    -0.200 N 
ATOM      5  C   LIG    1       28.315   0.829  21.428  0.00  0.00    +0.252 C 
ATOM      6  O   LIG    1       27.115   0.628  21.431  0.00  0.00    -0.270 OA
ATOM      7  C   LIG    1       29.260  -0.005  22.177  0.00  0.00    +0.023 C 
ATOM      8  C   LIG    1       28.895  -1.160  23.013  0.00  0.00    +0.041 C 
ATOM      9  C   LIG    1       30.082  -1.802  23.741  0.00  0.00    +0.005 C 
ATOM     10  C   LIG    1       31.513  -1.335  23.412  0.00  0.00    +0.005 C 
ATOM     11  C   LIG    1       31.723  -0.077  22.555  0.00  0.00    +0.041 C 
ATOM     12  C   LIG    1       30.485   0.467  21.976  0.00  0.00    +0.023 C 
ENDBRANCH   1   4
BRANCH   1  13
ATOM     13  O   LIG    1       27.158   2.920  20.020  0.00  0.00    -0.444 OA
BRANCH  13  14
ATOM     14  C   LIG    1       26.520   3.067  18.840  0.00  0.00    +0.313 C 
ATOM     15  O   LIG    1       26.551   4.059  18.126  0.00  0.00    -0.250 OA
BRANCH  14  16
ATOM     16  C   LIG    1       25.812   1.812  18.497  0.00  0.00    +0.111 C 
ATOM     17  C   LIG    1       26.416   0.603  17.803  0.00  0.00    -0.014 C 
ATOM     18  C   LIG    1       25.874  -0.751  18.211  0.00  0.00    +0.012 C 
ATOM     19  C   LIG    1       27.883   0.556  17.453  0.00  0.00    +0.012 C 
ATOM     20  C   LIG    1       25.456   1.508  17.051  0.00  0.00    +0.032 C 
BRANCH  20  21
ATOM     21  C   LIG    1       25.896   2.421  15.984  0.00  0.00    -0.023 C 
ATOM     22  C   LIG    1       25.148   3.352  15.357  0.00  0.00    -0.079 C 
ATOM     23  C   LIG    1       25.730   4.226  14.279  0.00  0.00    +0.038 C 
ATOM     24  C   LIG    1       23.695   3.604  15.653  0.00  0.00    +0.038 C 
ENDBRANCH  20  21
ENDBRANCH  14  16
ENDBRANCH  13  14
ENDBRANCH   1  13
TORSDOF 5
ENDMDL
MODEL 3
REMARK VINA RESULT:      -7.8      0.854      3.313
REMARK  Name = 
REMARK                            x       y       z     vdW  Elec       q    Type
REMARK                         _______ _______ _______ _____ _____    ______ ____
ROOT
ATOM      1  C   LIG    1       28.096   2.944  20.646  0.00  0.00    +0.352 C 
ENDROOT
BRANCH   1   4
ATOM      2  O   LIG    1       26.965   0.473  21.660  0.00  0.00    -0.270 OA
ATOM      3  C   LIG    1       28.160   0.708  21.660  0.00  0.00    +0.252 C 
ATOM      4  N   LIG    1       28.803   1.820  21.220  0.00  0.00    -0.200 N 
ATOM      5  C   LIG    1       30.145   1.699  21.401  0.00  0.00    +0.252 C 
ATOM      6  O   LIG    1       31.056   2.465  21.145  0.00  0.00    -0.270 OA
ATOM      7  C   LIG    1       30.366   0.383  22.010  0.00  0.00    +0.023 C 
ATOM      8  C   LIG    1       31.678  -0.173  22.378  0.00  0.00    +0.041 C 
ATOM      9  C   LIG    1       31.617  -1.602  22.929  0.00  0.00    +0.005 C 
ATOM     10  C   LIG    1       30.246  -2.242  23.220  0.00  0.00    +0.005 C 
ATOM     11  C   LIG    1       28.965  -1.550  22.728  0.00  0.00    +0.041 C 
ATOM     12  C   LIG    1       29.188  -0.210  22.161  0.00  0.00    +0.023 C 
ENDBRANCH   1   4
BRANCH   1  13
ATOM     13  O   LIG    1       27.940   2.755  19.250  0.00  0.00    -0.444 OA
BRANCH  13  14
ATOM     14  C   LIG    1       26.718   3.049  18.758  0.00  0.00    +0.313 C 
ATOM     15  O   LIG    1       26.303   4.167  18.487  0.00  0.00    -0.250 OA
BRANCH  14  16
ATOM     16  C   LIG    1       25.957   1.798  18.535  0.00  0.00    +0.111 C 
ATOM     17  C   LIG    1       26.487   0.531  17.884  0.00  0.00    -0.014 C 
ATOM     18  C   LIG    1       25.934  -0.779  18.406  0.00  0.00    +0.012 C 
ATOM     19  C   LIG    1       27.929   0.419  17.454  0.00  0.00    +0.012 C 
ATOM     20  C   LIG    1       25.508   1.418  17.134  0.00  0.00    +0.032 C 
BRANCH  20  21
ATOM     21  C   LIG    1       25.909   2.250  15.989  0.00  0.00    -0.023 C 
ATOM     22  C   LIG    1       25.190   3.238  15.417  0.00  0.00    -0.079 C 
ATOM     23  C   LIG    1       25.725   4.017  14.246  0.00  0.00    +0.038 C 
ATOM     24  C   LIG    1       23.815   3.649  15.869  0.00  0.00    +0.038 C 
ENDBRANCH  20  21
ENDBRANCH  14  16
ENDBRANCH  13  14
ENDBRANCH   1  13
TORSDOF 5
ENDMDL
MODEL 4
REMARK VINA RESULT:      -7.5      1.973      6.912
REMARK  Name = 
REMARK                            x       y       z     vdW  Elec       q    Type
REMARK                         _______ _______ _______ _____ _____    ______ ____
ROOT
ATOM      1  C   LIG    1       27.701  -1.498  19.930  0.00  0.00    +0.352 C 
ENDROOT
BRANCH   1   4
ATOM      2  O   LIG    1       27.132  -1.133  17.109  0.00  0.00    -0.270 OA
ATOM      3  C   LIG    1       26.901  -0.283  17.950  0.00  0.00    +0.252 C 
ATOM      4  N   LIG    1       27.125  -0.336  19.289  0.00  0.00    -0.200 N 
ATOM      5  C   LIG    1       26.735   0.823  19.884  0.00  0.00    +0.252 C 
ATOM      6  O   LIG    1       26.770   1.171  21.050  0.00  0.00    -0.270 OA
ATOM      7  C   LIG    1       26.214   1.685  18.817  0.00  0.00    +0.023 C 
ATOM      8  C   LIG    1       25.676   3.041  19.008  0.00  0.00    +0.041 C 
ATOM      9  C   LIG    1       25.132   3.681  17.726  0.00  0.00    +0.005 C 
ATOM     10  C   LIG    1       25.351   2.973  16.375  0.00  0.00    +0.005 C 
ATOM     11  C   LIG    1       25.885   1.532  16.350  0.00  0.00    +0.041 C 
ATOM     12  C   LIG    1       26.307   1.027  17.667  0.00  0.00    +0.023 C 
ENDBRANCH   1   4
BRANCH   1  13
ATOM     13  O   LIG    1       28.683  -1.096  20.869  0.00  0.00    -0.444 OA
BRANCH  13  14
ATOM     14  C   LIG    1       29.811  -1.836  20.879  0.00  0.00    +0.313 C 
ATOM     15  O   LIG    1       30.124  -2.679  20.050  0.00  0.00    -0.250 OA
BRANCH  14  16
ATOM     16  C   LIG    1       30.661  -1.434  22.024  0.00  0.00    +0.111 C 
ATOM     17  C   LIG    1       30.169  -0.964  23.383  0.00  0.00    -0.014 C 
ATOM     18  C   LIG    1       31.024  -1.337  24.576  0.00  0.00    +0.012 C 
ATOM     19  C   LIG    1       28.697  -0.937  23.713  0.00  0.00    +0.012 C 
ATOM     20  C   LIG    1       30.776   0.031  22.411  0.00  0.00    +0.032 C 
BRANCH  20  21
ATOM     21  C   LIG    1       29.972   1.039  21.701  0.00  0.00    -0.023 C 
ATOM     22  C   LIG    1       30.399   1.880  20.737  0.00  0.00    -0.079 C 
ATOM     23  C   LIG    1       29.463   2.864  20.088  0.00  0.00    +0.038 C 
ATOM     24  C   LIG    1       31.814   1.929  20.227  0.00  0.00    +0.038 C 
ENDBRANCH  20  21
ENDBRANCH  14  16
ENDBRANCH  13  14
ENDBRANCH   1  13
TORSDOF 5
ENDMDL
MODEL 5
REMARK VINA RESULT:      -7.4      2.258      3.889
REMARK  Name = 
REMARK                            x       y       z     vdW  Elec       q    Type
REMARK                         _______ _______ _______ _____ _____    ______ ____
ROOT
ATOM      1  C   LIG    1       26.704  -0.852  20.121  0.00  0.00    +0.352 C 
ENDROOT
BRANCH   1   4
ATOM      2  O   LIG    1       26.945  -0.166  22.929  0.00  0.00    -0.270 OA
ATOM      3  C   LIG    1       27.840  -0.692  22.292  0.00  0.00    +0.252 C 
ATOM      4  N   LIG    1       27.848  -1.054  20.984  0.00  0.00    -0.200 N 
ATOM      5  C   LIG    1       29.044  -1.608  20.649  0.00  0.00    +0.252 C 
ATOM      6  O   LIG    1       29.446  -2.052  19.589  0.00  0.00    -0.270 OA
ATOM      7  C   LIG    1       29.864  -1.595  21.864  0.00  0.00    +0.023 C 
ATOM      8  C   LIG    1       31.241  -2.104  21.964  0.00  0.00    +0.041 C 
ATOM      9  C   LIG    1       31.831  -2.031  23.377  0.00  0.00    +0.005 C 
ATOM     10  C   LIG    1       31.052  -1.294  24.484  0.00  0.00    +0.005 C 
ATOM     11  C   LIG    1       29.599  -0.862  24.232  0.00  0.00    +0.041 C 
ATOM     12  C   LIG    1       29.149  -1.055  22.844  0.00  0.00    +0.023 C 
ENDBRANCH   1   4
BRANCH   1  13
ATOM     13  O   LIG    1       27.110  -0.216  18.921  0.00  0.00    -0.444 OA
BRANCH  13  14
ATOM     14  C   LIG    1       26.542   0.984  18.681  0.00  0.00    +0.313 C 
ATOM     15  O   LIG    1       26.168   1.397  17.593  0.00  0.00    -0.250 OA
BRANCH  14  16
ATOM     16  C   LIG    1       26.379   1.721  19.956  0.00  0.00    +0.111 C 
ATOM     17  C   LIG    1       26.344   3.232  20.119  0.00  0.00    -0.014 C 
ATOM     18  C   LIG    1       25.452   3.772  21.216  0.00  0.00    +0.012 C 
ATOM     19  C   LIG    1       26.406   4.147  18.921  0.00  0.00    +0.012 C 
ATOM     20  C   LIG    1       27.562   2.447  20.573  0.00  0.00    +0.032 C 
BRANCH  20  21
ATOM     21  C   LIG    1       28.847   2.490  19.857  0.00  0.00    -0.023 C 
ATOM     22  C   LIG    1       30.073   2.297  20.384  0.00  0.00    -0.079 C 
ATOM     23  C   LIG    1       31.311   2.365  19.530  0.00  0.00    +0.038 C 
ATOM     24  C   LIG    1       30.329   2.010  21.839  0.00  0.00    +0.038 C 
ENDBRANCH  20  21
ENDBRANCH  14  16
ENDBRANCH  13  14
ENDBRANCH   1  13
TORSDOF 5
ENDMDL
MODEL 6
REMARK VINA RESULT:      -7.4      1.737      6.888
REMARK  Name = 
REMARK                            x       y       z     vdW  Elec       q    Type
REMARK                         _______ _______ _______ _____ _____    ______ ____
ROOT
ATOM      1  C   LIG    1       26.783  -0.552  21.385  0.00  0.00    +0.352 C 
ENDROOT
BRANCH   1   4
ATOM      2  O   LIG    1       26.781  -1.291  18.579  0.00  0.00    -0.270 OA
ATOM      3  C   LIG    1       26.549  -0.161  18.971  0.00  0.00    +0.252 C 
ATOM      4  N   LIG    1       26.526   0.304  20.247  0.00  0.00    -0.200 N 
ATOM      5  C   LIG    1       26.233   1.632  20.265  0.00  0.00    +0.252 C 
ATOM      6  O   LIG    1       26.121   2.409  21.195  0.00  0.00    -0.270 OA
ATOM      7  C   LIG    1       26.053   2.039  18.868  0.00  0.00    +0.023 C 
ATOM      8  C   LIG    1       25.719   3.398  18.416  0.00  0.00    +0.041 C 
ATOM      9  C   LIG    1       25.519   3.520  16.901  0.00  0.00    +0.005 C 
ATOM     10  C   LIG    1       25.851   2.318  15.996  0.00  0.00    +0.005 C 
ATOM     11  C   LIG    1       26.138   0.947  16.628  0.00  0.00    +0.041 C 
ATOM     12  C   LIG    1       26.236   0.973  18.096  0.00  0.00    +0.023 C 
ENDBRANCH   1   4
BRANCH   1  13
ATOM     13  O   LIG    1       27.672   0.091  22.282  0.00  0.00    -0.444 OA
BRANCH  13  14
ATOM     14  C   LIG    1       28.396  -0.733  23.068  0.00  0.00    +0.313 C 
ATOM     15  O   LIG    1       28.288  -0.847  24.281  0.00  0.00    -0.250 OA
BRANCH  14  16
ATOM     16  C   LIG    1       29.318  -1.537  22.232  0.00  0.00    +0.111 C 
ATOM     17  C   LIG    1       30.723  -1.972  22.612  0.00  0.00    -0.014 C 
ATOM     18  C   LIG    1       31.180  -3.316  22.084  0.00  0.00    +0.012 C 
ATOM     19  C   LIG    1       31.295  -1.661  23.973  0.00  0.00    +0.012 C 
ATOM     20  C   LIG    1       30.521  -0.881  21.576  0.00  0.00    +0.032 C 
BRANCH  20  21
ATOM     21  C   LIG    1       30.817   0.535  21.845  0.00  0.00    -0.023 C 
ATOM     22  C   LIG    1       30.446   1.595  21.098  0.00  0.00    -0.079 C 
ATOM     23  C   LIG    1       30.816   2.999  21.495  0.00  0.00    +0.038 C 
ATOM     24  C   LIG    1       29.655   1.491  19.823  0.00  0.00    +0.038 C 
ENDBRANCH  20  21
ENDBRANCH  14  16
ENDBRANCH  13  14
ENDBRANCH   1  13
TORSDOF 5
ENDMDL
MODEL 7
REMARK VINA RESULT:      -7.3      1.341      2.450
REMARK  Name = 
REMARK                            x       y       z     vdW  Elec       q    Type
REMARK                         _______ _______ _______ _____ _____    ______ ____
ROOT
ATOM      1  C   LIG    1       28.647   2.274  19.709  0.00  0.00    +0.352 C 
ENDROOT
BRANCH   1   4
ATOM      2  O   LIG    1       31.351   2.042  20.734  0.00  0.00    -0.270 OA
ATOM      3  C   LIG    1       30.433   1.339  21.114  0.00  0.00    +0.252 C 
ATOM      4  N   LIG    1       29.136   1.350  20.710  0.00  0.00    -0.200 N 
ATOM      5  C   LIG    1       28.422   0.401  21.372  0.00  0.00    +0.252 C 
ATOM      6  O   LIG    1       27.247   0.092  21.298  0.00  0.00    -0.270 OA
ATOM      7  C   LIG    1       29.359  -0.268  22.280  0.00  0.00    +0.023 C 
ATOM      8  C   LIG    1       29.015  -1.365  23.198  0.00  0.00    +0.041 C 
ATOM      9  C   LIG    1       30.179  -1.823  24.086  0.00  0.00    +0.005 C 
ATOM     10  C   LIG    1       31.591  -1.263  23.829  0.00  0.00    +0.005 C 
ATOM     11  C   LIG    1       31.776  -0.080  22.866  0.00  0.00    +0.041 C 
ATOM     12  C   LIG    1       30.554   0.291  22.132  0.00  0.00    +0.023 C 
ENDBRANCH   1   4
BRANCH   1  13
ATOM     13  O   LIG    1       27.933   3.328  20.332  0.00  0.00    -0.444 OA
BRANCH  13  14
ATOM     14  C   LIG    1       27.593   4.353  19.523  0.00  0.00    +0.313 C 
ATOM     15  O   LIG    1       28.342   4.943  18.757  0.00  0.00    -0.250 OA
BRANCH  14  16
ATOM     16  C   LIG    1       26.143   4.629  19.652  0.00  0.00    +0.111 C 
ATOM     17  C   LIG    1       25.169   3.897  20.561  0.00  0.00    -0.014 C 
ATOM     18  C   LIG    1       24.037   4.720  21.139  0.00  0.00    +0.012 C 
ATOM     19  C   LIG    1       25.643   2.821  21.507  0.00  0.00    +0.012 C 
ATOM     20  C   LIG    1       25.128   3.664  19.061  0.00  0.00    +0.032 C 
BRANCH  20  21
ATOM     21  C   LIG    1       25.587   2.412  18.439  0.00  0.00    -0.023 C 
ATOM     22  C   LIG    1       25.718   2.166  17.119  0.00  0.00    -0.079 C 
ATOM     23  C   LIG    1       26.205   0.834  16.618  0.00  0.00    +0.038 C 
ATOM     24  C   LIG    1       25.393   3.163  16.040  0.00  0.00    +0.038 C 
ENDBRANCH  20  21
ENDBRANCH  14  16
ENDBRANCH  13  14
ENDBRANCH   1  13
TORSDOF 5
ENDMDL
MODEL 8
REMARK VINA RESULT:      -7.3      1.658      3.480
REMARK  Name = 
REMARK                            x       y       z     vdW  Elec       q    Type
REMARK                         _______ _______ _______ _____ _____    ______ ____
ROOT
ATOM      1  C   LIG    1       26.631   1.186  20.318  0.00  0.00    +0.352 C 
ENDROOT
BRANCH   1   4
ATOM      2  O   LIG    1       26.822  -0.834  22.391  0.00  0.00    -0.270 OA
ATOM      3  C   LIG    1       27.782  -0.207  21.981  0.00  0.00    +0.252 C 
ATOM      4  N   LIG    1       27.818   0.758  21.026  0.00  0.00    -0.200 N 
ATOM      5  C   LIG    1       29.086   1.219  20.861  0.00  0.00    +0.252 C 
ATOM      6  O   LIG    1       29.532   2.073  20.116  0.00  0.00    -0.270 OA
ATOM      7  C   LIG    1       29.928   0.471  21.800  0.00  0.00    +0.023 C 
ATOM      8  C   LIG    1       31.380   0.642  21.960  0.00  0.00    +0.041 C 
ATOM      9  C   LIG    1       32.015  -0.327  22.964  0.00  0.00    +0.005 C 
ATOM     10  C   LIG    1       31.107  -1.228  23.823  0.00  0.00    +0.005 C 
ATOM     11  C   LIG    1       29.609  -1.328  23.496  0.00  0.00    +0.041 C 
ATOM     12  C   LIG    1       29.156  -0.381  22.464  0.00  0.00    +0.023 C 
ENDBRANCH   1   4
BRANCH   1  13
ATOM     13  O   LIG    1       26.512   0.476  19.098  0.00  0.00    -0.444 OA
BRANCH  13  14
ATOM     14  C   LIG    1       26.100   1.206  18.041  0.00  0.00    +0.313 C 
ATOM     15  O   LIG    1       25.292   0.851  17.194  0.00  0.00    -0.250 OA
BRANCH  14  16
ATOM     16  C   LIG    1       26.732   2.545  18.083  0.00  0.00    +0.111 C 
ATOM     17  C   LIG    1       26.229   3.749  18.862  0.00  0.00    -0.014 C 
ATOM     18  C   LIG    1       27.283   4.685  19.415  0.00  0.00    +0.012 C 
ATOM     19  C   LIG    1       25.018   3.649  19.757  0.00  0.00    +0.012 C 
ATOM     20  C   LIG    1       26.094   3.713  17.350  0.00  0.00    +0.032 C 
BRANCH  20  21
ATOM     21  C   LIG    1       24.801   3.530  16.671  0.00  0.00    -0.023 C 
ATOM     22  C   LIG    1       24.539   3.731  15.364  0.00  0.00    -0.079 C 
ATOM     23  C   LIG    1       23.163   3.500  14.798  0.00  0.00    +0.038 C 
ATOM     24  C   LIG    1       25.559   4.200  14.362  0.00  0.00    +0.038 C 
ENDBRANCH  20  21
ENDBRANCH  14  16
ENDBRANCH  13  14
ENDBRANCH   1  13
TORSDOF 5
ENDMDL
MODEL 9
REMARK VINA RESULT:      -7.2      1.746      6.892
REMARK  Name = 
REMARK                            x       y       z     vdW  Elec       q    Type
REMARK                         _______ _______ _______ _____ _____    ______ ____
ROOT
ATOM      1  C   LIG    1       26.741  -0.562  21.377  0.00  0.00    +0.352 C 
ENDROOT
BRANCH   1   4
ATOM      2  O   LIG    1       26.087   2.260  21.220  0.00  0.00    -0.270 OA
ATOM      3  C   LIG    1       26.205   1.548  20.239  0.00  0.00    +0.252 C 
ATOM      4  N   LIG    1       26.502   0.223  20.185  0.00  0.00    -0.200 N 
ATOM      5  C   LIG    1       26.535  -0.207  18.896  0.00  0.00    +0.252 C 
ATOM      6  O   LIG    1       26.759  -1.308  18.430  0.00  0.00    -0.270 OA
ATOM      7  C   LIG    1       26.234   0.960  18.060  0.00  0.00    +0.023 C 
ATOM      8  C   LIG    1       26.167   0.956  16.590  0.00  0.00    +0.041 C 
ATOM      9  C   LIG    1       25.905   2.336  15.974  0.00  0.00    +0.005 C 
ATOM     10  C   LIG    1       25.560   3.521  16.896  0.00  0.00    +0.005 C 
ATOM     11  C   LIG    1       25.724   3.374  18.417  0.00  0.00    +0.041 C 
ATOM     12  C   LIG    1       26.042   2.005  18.855  0.00  0.00    +0.023 C 
ENDBRANCH   1   4
BRANCH   1  13
ATOM     13  O   LIG    1       27.692   0.087  22.202  0.00  0.00    -0.444 OA
BRANCH  13  14
ATOM     14  C   LIG    1       28.413  -0.724  23.004  0.00  0.00    +0.313 C 
ATOM     15  O   LIG    1       28.297  -0.823  24.217  0.00  0.00    -0.250 OA
BRANCH  14  16
ATOM     16  C   LIG    1       29.342  -1.536  22.184  0.00  0.00    +0.111 C 
ATOM     17  C   LIG    1       30.740  -1.978  22.587  0.00  0.00    -0.014 C 
ATOM     18  C   LIG    1       31.196  -3.326  22.070  0.00  0.00    +0.012 C 
ATOM     19  C   LIG    1       31.292  -1.666  23.956  0.00  0.00    +0.012 C 
ATOM     20  C   LIG    1       30.559  -0.889  21.544  0.00  0.00    +0.032 C 
BRANCH  20  21
ATOM     21  C   LIG    1       30.860   0.526  21.814  0.00  0.00    -0.023 C 
ATOM     22  C   LIG    1       30.466   1.589  21.083  0.00  0.00    -0.079 C 
ATOM     23  C   LIG    1       30.844   2.992  21.478  0.00  0.00    +0.038 C 
ATOM     24  C   LIG    1       29.641   1.491  19.829  0.00  0.00    +0.038 C 
ENDBRANCH  20  21
ENDBRANCH  14  16
ENDBRANCH  13  14
ENDBRANCH   1  13
TORSDOF 5
ENDMDL
