MODEL 1
REMARK VINA RESULT:      -9.3      0.000      0.000
REMARK  Name = 
REMARK                            x       y       z     vdW  Elec       q    Type
REMARK                         _______ _______ _______ _____ _____    ______ ____
ROOT
ATOM      1  C   LIG    1        2.743  20.032  28.522  0.00  0.00    +0.352 C 
ENDROOT
BRANCH   1   4
ATOM      2  O   LIG    1        1.301  20.761  30.931  0.00  0.00    -0.270 OA
ATOM      3  C   LIG    1        1.826  19.674  30.773  0.00  0.00    +0.252 C 
ATOM      4  N   LIG    1        2.526  19.221  29.701  0.00  0.00    -0.200 N 
ATOM      5  C   LIG    1        2.958  17.949  29.915  0.00  0.00    +0.252 C 
ATOM      6  O   LIG    1        3.609  17.201  29.211  0.00  0.00    -0.270 OA
ATOM      7  C   LIG    1        2.481  17.567  31.248  0.00  0.00    +0.023 C 
ATOM      8  C   LIG    1        2.716  16.265  31.892  0.00  0.00    +0.041 C 
ATOM      9  C   LIG    1        2.037  16.114  33.259  0.00  0.00    +0.005 C 
ATOM     10  C   LIG    1        1.358  17.338  33.904  0.00  0.00    +0.005 C 
ATOM     11  C   LIG    1        1.150  18.616  33.077  0.00  0.00    +0.041 C 
ATOM     12  C   LIG    1        1.804  18.589  31.758  0.00  0.00    +0.023 C 
ENDBRANCH   1   4
BRANCH   1  13
ATOM     13  O   LIG    1        4.059  20.559  28.533  0.00  0.00    -0.444 OA
BRANCH  13  14
ATOM     14  C   LIG    1        4.895  20.046  27.607  0.00  0.00    +0.313 C 
ATOM     15  O   LIG    1        4.730  20.074  26.395  0.00  0.00    -0.250 OA
BRANCH  14  16
ATOM     16  C   LIG    1        6.093  19.484  28.274  0.00  0.00    +0.111 C 
ATOM     17  C   LIG    1        6.762  20.032  29.524  0.00  0.00    -0.014 C 
ATOM     18  C   LIG    1        7.389  19.015  30.454  0.00  0.00    +0.012 C 
ATOM     19  C   LIG    1        6.184  21.213  30.264  0.00  0.00    +0.012 C 
ATOM     20  C   LIG    1        7.429  20.200  28.170  0.00  0.00    +0.032 C 
BRANCH  20  21
ATOM     21  C   LIG    1        7.510  21.498  27.481  0.00  0.00    -0.023 C 
ATOM     22  C   LIG    1        7.945  21.720  26.224  0.00  0.00    -0.079 C 
ATOM     23  C   LIG    1        7.971  23.106  25.639  0.00  0.00    +0.038 C 
ATOM     24  C   LIG    1        8.442  20.639  25.301  0.00  0.00    +0.038 C 
ENDBRANCH  20  21
ENDBRANCH  14  16
ENDBRANCH  13  14
ENDBRANCH   1  13
TORSDOF 5
ENDMDL
MODEL 2
REMARK VINA RESULT:      -9.3      0.732      2.804
REMARK  Name = 
REMARK                            x       y       z     vdW  Elec       q    Type
REMARK                         _______ _______ _______ _____ _____    ______ ____
ROOT
ATOM      1  C   LIG    1        3.134  20.234  28.271  0.00  0.00    +0.352 C 
ENDROOT
BRANCH   1   4
ATOM      2  O   LIG    1        1.542  20.853  30.616  0.00  0.00    -0.270 OA
ATOM      3  C   LIG    1        2.098  19.782  30.452  0.00  0.00    +0.252 C 
ATOM      4  N   LIG    1        2.867  19.379  29.408  0.00  0.00    -0.200 N 
ATOM      5  C   LIG    1        3.313  18.110  29.604  0.00  0.00    +0.252 C 
ATOM      6  O   LIG    1        4.019  17.398  28.914  0.00  0.00    -0.270 OA
ATOM      7  C   LIG    1        2.769  17.672  30.894  0.00  0.00    +0.023 C 
ATOM      8  C   LIG    1        2.994  16.354  31.507  0.00  0.00    +0.041 C 
ATOM      9  C   LIG    1        2.241  16.143  32.826  0.00  0.00    +0.005 C 
ATOM     10  C   LIG    1        1.501  17.330  33.472  0.00  0.00    +0.005 C 
ATOM     11  C   LIG    1        1.314  18.632  32.677  0.00  0.00    +0.041 C 
ATOM     12  C   LIG    1        2.042  18.663  31.398  0.00  0.00    +0.023 C 
ENDBRANCH   1   4
BRANCH   1  13
ATOM     13  O   LIG    1        4.466  20.714  28.329  0.00  0.00    -0.444 OA
BRANCH  13  14
ATOM     14  C   LIG    1        5.198  20.526  27.211  0.00  0.00    +0.313 C 
ATOM     15  O   LIG    1        4.894  19.812  26.265  0.00  0.00    -0.250 OA
BRANCH  14  16
ATOM     16  C   LIG    1        6.416  21.368  27.265  0.00  0.00    +0.111 C 
ATOM     17  C   LIG    1        7.763  21.036  26.644  0.00  0.00    -0.014 C 
ATOM     18  C   LIG    1        8.573  22.204  26.124  0.00  0.00    +0.012 C 
ATOM     19  C   LIG    1        7.955  19.787  25.819  0.00  0.00    +0.012 C 
ATOM     20  C   LIG    1        7.583  20.964  28.150  0.00  0.00    +0.032 C 
BRANCH  20  21
ATOM     21  C   LIG    1        7.536  19.689  28.884  0.00  0.00    -0.023 C 
ATOM     22  C   LIG    1        7.075  19.495  30.137  0.00  0.00    -0.079 C 
ATOM     23  C   LIG    1        7.081  18.129  30.768  0.00  0.00    +0.038 C 
ATOM     24  C   LIG    1        6.529  20.590  31.013  0.00  0.00    +0.038 C 
ENDBRANCH  20  21
ENDBRANCH  14  16
ENDBRANCH  13  14
ENDBRANCH   1  13
TORSDOF 5
ENDMDL
MODEL 3
REMARK VINA RESULT:      -9.3      0.733      3.339
REMARK  Name = 
REMARK                            x       y       z     vdW  Elec       q    Type
REMARK                         _______ _______ _______ _____ _____    ______ ____
ROOT
ATOM      1  C   LIG    1        3.139  20.252  28.277  0.00  0.00    +0.352 C 
ENDROOT
BRANCH   1   4
ATOM      2  O   LIG    1        3.970  17.535  28.860  0.00  0.00    -0.270 OA
ATOM      3  C   LIG    1        3.256  18.187  29.601  0.00  0.00    +0.252 C 
ATOM      4  N   LIG    1        2.800  19.456  29.436  0.00  0.00    -0.200 N 
ATOM      5  C   LIG    1        2.021  19.823  30.488  0.00  0.00    +0.252 C 
ATOM      6  O   LIG    1        1.431  20.863  30.717  0.00  0.00    -0.270 OA
ATOM      7  C   LIG    1        1.986  18.677  31.402  0.00  0.00    +0.023 C 
ATOM      8  C   LIG    1        1.260  18.632  32.681  0.00  0.00    +0.041 C 
ATOM      9  C   LIG    1        1.461  17.331  33.467  0.00  0.00    +0.005 C 
ATOM     10  C   LIG    1        2.212  16.158  32.808  0.00  0.00    +0.005 C 
ATOM     11  C   LIG    1        2.961  16.383  31.484  0.00  0.00    +0.041 C 
ATOM     12  C   LIG    1        2.724  17.704  30.880  0.00  0.00    +0.023 C 
ENDBRANCH   1   4
BRANCH   1  13
ATOM     13  O   LIG    1        4.494  20.660  28.349  0.00  0.00    -0.444 OA
BRANCH  13  14
ATOM     14  C   LIG    1        5.196  20.541  27.203  0.00  0.00    +0.313 C 
ATOM     15  O   LIG    1        4.868  19.883  26.225  0.00  0.00    -0.250 OA
BRANCH  14  16
ATOM     16  C   LIG    1        6.414  21.381  27.275  0.00  0.00    +0.111 C 
ATOM     17  C   LIG    1        7.765  21.055  26.658  0.00  0.00    -0.014 C 
ATOM     18  C   LIG    1        8.579  22.229  26.158  0.00  0.00    +0.012 C 
ATOM     19  C   LIG    1        7.961  19.816  25.820  0.00  0.00    +0.012 C 
ATOM     20  C   LIG    1        7.575  20.966  28.163  0.00  0.00    +0.032 C 
BRANCH  20  21
ATOM     21  C   LIG    1        7.522  19.683  28.881  0.00  0.00    -0.023 C 
ATOM     22  C   LIG    1        7.125  19.486  30.155  0.00  0.00    -0.079 C 
ATOM     23  C   LIG    1        7.116  18.112  30.768  0.00  0.00    +0.038 C 
ATOM     24  C   LIG    1        6.670  20.587  31.075  0.00  0.00    +0.038 C 
ENDBRANCH  20  21
ENDBRANCH  14  16
ENDBRANCH  13  14
ENDBRANCH   1  13
TORSDOF 5
ENDMDL
MODEL 4
REMARK VINA RESULT:      -9.3      0.060      1.815
REMARK  Name = 
REMARK                            x       y       z     vdW  Elec       q    Type
REMARK                         _______ _______ _______ _____ _____    ______ ____
ROOT
ATOM      1  C   LIG    1        2.754  19.940  28.429  0.00  0.00    +0.352 C 
ENDROOT
BRANCH   1   4
ATOM      2  O   LIG    1        3.545  17.235  29.119  0.00  0.00    -0.270 OA
ATOM      3  C   LIG    1        2.916  17.957  29.870  0.00  0.00    +0.252 C 
ATOM      4  N   LIG    1        2.488  19.229  29.661  0.00  0.00    -0.200 N 
ATOM      5  C   LIG    1        1.811  19.690  30.746  0.00  0.00    +0.252 C 
ATOM      6  O   LIG    1        1.274  20.763  30.954  0.00  0.00    -0.270 OA
ATOM      7  C   LIG    1        1.816  18.605  31.732  0.00  0.00    +0.023 C 
ATOM      8  C   LIG    1        1.196  18.666  33.066  0.00  0.00    +0.041 C 
ATOM      9  C   LIG    1        1.421  17.410  33.916  0.00  0.00    +0.005 C 
ATOM     10  C   LIG    1        2.077  16.171  33.275  0.00  0.00    +0.005 C 
ATOM     11  C   LIG    1        2.720  16.286  31.884  0.00  0.00    +0.041 C 
ATOM     12  C   LIG    1        2.477  17.575  31.216  0.00  0.00    +0.023 C 
ENDBRANCH   1   4
BRANCH   1  13
ATOM     13  O   LIG    1        4.052  20.509  28.469  0.00  0.00    -0.444 OA
BRANCH  13  14
ATOM     14  C   LIG    1        4.921  20.032  27.554  0.00  0.00    +0.313 C 
ATOM     15  O   LIG    1        4.785  20.082  26.340  0.00  0.00    -0.250 OA
BRANCH  14  16
ATOM     16  C   LIG    1        6.114  19.481  28.239  0.00  0.00    +0.111 C 
ATOM     17  C   LIG    1        6.757  20.033  29.501  0.00  0.00    -0.014 C 
ATOM     18  C   LIG    1        7.379  19.021  30.440  0.00  0.00    +0.012 C 
ATOM     19  C   LIG    1        6.155  21.207  30.234  0.00  0.00    +0.012 C 
ATOM     20  C   LIG    1        7.444  20.211  28.159  0.00  0.00    +0.032 C 
BRANCH  20  21
ATOM     21  C   LIG    1        7.523  21.511  27.474  0.00  0.00    -0.023 C 
ATOM     22  C   LIG    1        7.958  21.737  26.217  0.00  0.00    -0.079 C 
ATOM     23  C   LIG    1        7.983  23.125  25.637  0.00  0.00    +0.038 C 
ATOM     24  C   LIG    1        8.459  20.661  25.292  0.00  0.00    +0.038 C 
ENDBRANCH  20  21
ENDBRANCH  14  16
ENDBRANCH  13  14
ENDBRANCH   1  13
TORSDOF 5
ENDMDL
MODEL 5
REMARK VINA RESULT:      -8.6      1.526      6.284
REMARK  Name = 
REMARK                            x       y       z     vdW  Elec       q    Type
REMARK                         _______ _______ _______ _____ _____    ______ ____
ROOT
ATOM      1  C   LIG    1        2.915  20.535  29.805  0.00  0.00    +0.352 C 
ENDROOT
BRANCH   1   4
ATOM      2  O   LIG    1        5.584  21.516  30.381  0.00  0.00    -0.270 OA
ATOM      3  C   LIG    1        5.284  20.977  29.331  0.00  0.00    +0.252 C 
ATOM      4  N   LIG    1        4.079  20.485  28.946  0.00  0.00    -0.200 N 
ATOM      5  C   LIG    1        4.153  19.966  27.692  0.00  0.00    +0.252 C 
ATOM      6  O   LIG    1        3.305  19.439  26.996  0.00  0.00    -0.270 OA
ATOM      7  C   LIG    1        5.539  20.147  27.247  0.00  0.00    +0.023 C 
ATOM      8  C   LIG    1        6.074  19.727  25.943  0.00  0.00    +0.041 C 
ATOM      9  C   LIG    1        7.578  19.976  25.776  0.00  0.00    +0.005 C 
ATOM     10  C   LIG    1        8.335  20.778  26.852  0.00  0.00    +0.005 C 
ATOM     11  C   LIG    1        7.642  21.102  28.186  0.00  0.00    +0.041 C 
ATOM     12  C   LIG    1        6.215  20.744  28.222  0.00  0.00    +0.023 C 
ENDBRANCH   1   4
BRANCH   1  13
ATOM     13  O   LIG    1        2.442  19.223  30.056  0.00  0.00    -0.444 OA
BRANCH  13  14
ATOM     14  C   LIG    1        1.942  19.014  31.292  0.00  0.00    +0.313 C 
ATOM     15  O   LIG    1        1.579  19.881  32.075  0.00  0.00    -0.250 OA
BRANCH  14  16
ATOM     16  C   LIG    1        1.839  17.559  31.549  0.00  0.00    +0.111 C 
ATOM     17  C   LIG    1        2.089  16.863  32.877  0.00  0.00    -0.014 C 
ATOM     18  C   LIG    1        1.246  15.640  33.167  0.00  0.00    +0.012 C 
ATOM     19  C   LIG    1        2.411  17.652  34.122  0.00  0.00    +0.012 C 
ATOM     20  C   LIG    1        3.096  16.729  31.748  0.00  0.00    +0.032 C 
BRANCH  20  21
ATOM     21  C   LIG    1        4.411  17.390  31.774  0.00  0.00    -0.023 C 
ATOM     22  C   LIG    1        5.262  17.536  30.738  0.00  0.00    -0.079 C 
ATOM     23  C   LIG    1        6.581  18.242  30.905  0.00  0.00    +0.038 C 
ATOM     24  C   LIG    1        4.997  17.019  29.350  0.00  0.00    +0.038 C 
ENDBRANCH  20  21
ENDBRANCH  14  16
ENDBRANCH  13  14
ENDBRANCH   1  13
TORSDOF 5
ENDMDL
MODEL 6
REMARK VINA RESULT:      -8.4      1.513      6.361
REMARK  Name = 
REMARK                            x       y       z     vdW  Elec       q    Type
REMARK                         _______ _______ _______ _____ _____    ______ ____
ROOT
ATOM      1  C   LIG    1        2.672  18.415  28.262  0.00  0.00    +0.352 C 
ENDROOT
BRANCH   1   4
ATOM      2  O   LIG    1        4.555  17.665  26.186  0.00  0.00    -0.270 OA
ATOM      3  C   LIG    1        4.701  18.643  26.897  0.00  0.00    +0.252 C 
ATOM      4  N   LIG    1        3.898  19.091  27.896  0.00  0.00    -0.200 N 
ATOM      5  C   LIG    1        4.415  20.218  28.456  0.00  0.00    +0.252 C 
ATOM      6  O   LIG    1        4.006  20.914  29.366  0.00  0.00    -0.270 OA
ATOM      7  C   LIG    1        5.660  20.506  27.737  0.00  0.00    +0.023 C 
ATOM      8  C   LIG    1        6.553  21.644  28.009  0.00  0.00    +0.041 C 
ATOM      9  C   LIG    1        7.747  21.741  27.052  0.00  0.00    +0.005 C 
ATOM     10  C   LIG    1        8.013  20.596  26.056  0.00  0.00    +0.005 C 
ATOM     11  C   LIG    1        6.953  19.501  25.858  0.00  0.00    +0.041 C 
ATOM     12  C   LIG    1        5.830  19.575  26.806  0.00  0.00    +0.023 C 
ENDBRANCH   1   4
BRANCH   1  13
ATOM     13  O   LIG    1        2.865  17.677  29.457  0.00  0.00    -0.444 OA
BRANCH  13  14
ATOM     14  C   LIG    1        2.149  18.100  30.520  0.00  0.00    +0.313 C 
ATOM     15  O   LIG    1        1.406  19.071  30.544  0.00  0.00    -0.250 OA
BRANCH  14  16
ATOM     16  C   LIG    1        2.349  17.172  31.657  0.00  0.00    +0.111 C 
ATOM     17  C   LIG    1        2.275  17.532  33.132  0.00  0.00    -0.014 C 
ATOM     18  C   LIG    1        1.741  16.463  34.061  0.00  0.00    +0.012 C 
ATOM     19  C   LIG    1        1.902  18.925  33.576  0.00  0.00    +0.012 C 
ATOM     20  C   LIG    1        3.620  17.246  32.487  0.00  0.00    +0.032 C 
BRANCH  20  21
ATOM     21  C   LIG    1        4.610  18.300  32.214  0.00  0.00    -0.023 C 
ATOM     22  C   LIG    1        5.651  18.229  31.359  0.00  0.00    -0.079 C 
ATOM     23  C   LIG    1        6.589  19.391  31.172  0.00  0.00    +0.038 C 
ATOM     24  C   LIG    1        5.981  17.016  30.532  0.00  0.00    +0.038 C 
ENDBRANCH  20  21
ENDBRANCH  14  16
ENDBRANCH  13  14
ENDBRANCH   1  13
TORSDOF 5
ENDMDL
MODEL 7
REMARK VINA RESULT:      -7.8      1.539      7.050
REMARK  Name = 
REMARK                            x       y       z     vdW  Elec       q    Type
REMARK                         _______ _______ _______ _____ _____    ______ ____
ROOT
ATOM      1  C   LIG    1        2.888  20.564  29.088  0.00  0.00    +0.352 C 
ENDROOT
BRANCH   1   4
ATOM      2  O   LIG    1        3.586  19.636  26.430  0.00  0.00    -0.270 OA
ATOM      3  C   LIG    1        4.396  20.117  27.201  0.00  0.00    +0.252 C 
ATOM      4  N   LIG    1        4.192  20.579  28.462  0.00  0.00    -0.200 N 
ATOM      5  C   LIG    1        5.357  21.033  28.998  0.00  0.00    +0.252 C 
ATOM      6  O   LIG    1        5.596  21.516  30.089  0.00  0.00    -0.270 OA
ATOM      7  C   LIG    1        6.390  20.840  27.975  0.00  0.00    +0.023 C 
ATOM      8  C   LIG    1        7.809  21.197  28.124  0.00  0.00    +0.041 C 
ATOM      9  C   LIG    1        8.649  20.952  26.865  0.00  0.00    +0.005 C 
ATOM     10  C   LIG    1        8.019  20.213  25.669  0.00  0.00    +0.005 C 
ATOM     11  C   LIG    1        6.505  19.953  25.648  0.00  0.00    +0.041 C 
ATOM     12  C   LIG    1        5.820  20.300  26.904  0.00  0.00    +0.023 C 
ENDBRANCH   1   4
BRANCH   1  13
ATOM     13  O   LIG    1        2.505  19.230  29.375  0.00  0.00    -0.444 OA
BRANCH  13  14
ATOM     14  C   LIG    1        2.296  18.956  30.680  0.00  0.00    +0.313 C 
ATOM     15  O   LIG    1        1.208  18.820  31.220  0.00  0.00    -0.250 OA
BRANCH  14  16
ATOM     16  C   LIG    1        3.597  18.781  31.366  0.00  0.00    +0.111 C 
ATOM     17  C   LIG    1        4.701  17.817  30.962  0.00  0.00    -0.014 C 
ATOM     18  C   LIG    1        6.122  18.274  31.215  0.00  0.00    +0.012 C 
ATOM     19  C   LIG    1        4.579  16.968  29.721  0.00  0.00    +0.012 C 
ATOM     20  C   LIG    1        3.860  17.534  32.195  0.00  0.00    +0.032 C 
BRANCH  20  21
ATOM     21  C   LIG    1        2.854  16.462  32.240  0.00  0.00    -0.023 C 
ATOM     22  C   LIG    1        2.013  16.186  33.258  0.00  0.00    -0.079 C 
ATOM     23  C   LIG    1        1.024  15.055  33.170  0.00  0.00    +0.038 C 
ATOM     24  C   LIG    1        1.981  16.948  34.555  0.00  0.00    +0.038 C 
ENDBRANCH  20  21
ENDBRANCH  14  16
ENDBRANCH  13  14
ENDBRANCH   1  13
TORSDOF 5
ENDMDL
MODEL 8
REMARK VINA RESULT:      -7.6      1.635      2.563
REMARK  Name = 
REMARK                            x       y       z     vdW  Elec       q    Type
REMARK                         _______ _______ _______ _____ _____    ______ ____
ROOT
ATOM      1  C   LIG    1        3.662  19.449  29.733  0.00  0.00    +0.352 C 
ENDROOT
BRANCH   1   4
ATOM      2  O   LIG    1        1.469  20.358  31.401  0.00  0.00    -0.270 OA
ATOM      3  C   LIG    1        2.013  19.278  31.546  0.00  0.00    +0.252 C 
ATOM      4  N   LIG    1        3.042  18.747  30.837  0.00  0.00    -0.200 N 
ATOM      5  C   LIG    1        3.367  17.516  31.315  0.00  0.00    +0.252 C 
ATOM      6  O   LIG    1        4.221  16.725  30.962  0.00  0.00    -0.270 OA
ATOM      7  C   LIG    1        2.452  17.247  32.429  0.00  0.00    +0.023 C 
ATOM      8  C   LIG    1        2.441  16.021  33.242  0.00  0.00    +0.041 C 
ATOM      9  C   LIG    1        1.325  15.980  34.293  0.00  0.00    +0.005 C 
ATOM     10  C   LIG    1        0.468  17.237  34.535  0.00  0.00    +0.005 C 
ATOM     11  C   LIG    1        0.568  18.423  33.563  0.00  0.00    +0.041 C 
ATOM     12  C   LIG    1        1.642  18.291  32.565  0.00  0.00    +0.023 C 
ENDBRANCH   1   4
BRANCH   1  13
ATOM     13  O   LIG    1        3.042  19.075  28.514  0.00  0.00    -0.444 OA
BRANCH  13  14
ATOM     14  C   LIG    1        3.298  19.883  27.464  0.00  0.00    +0.313 C 
ATOM     15  O   LIG    1        3.135  21.094  27.434  0.00  0.00    -0.250 OA
BRANCH  14  16
ATOM     16  C   LIG    1        3.870  19.089  26.352  0.00  0.00    +0.111 C 
ATOM     17  C   LIG    1        4.502  17.711  26.467  0.00  0.00    -0.014 C 
ATOM     18  C   LIG    1        4.313  16.781  25.288  0.00  0.00    +0.012 C 
ATOM     19  C   LIG    1        4.535  16.976  27.784  0.00  0.00    +0.012 C 
ATOM     20  C   LIG    1        5.376  18.930  26.224  0.00  0.00    +0.032 C 
BRANCH  20  21
ATOM     21  C   LIG    1        6.259  19.492  27.258  0.00  0.00    -0.023 C 
ATOM     22  C   LIG    1        7.387  20.204  27.057  0.00  0.00    -0.079 C 
ATOM     23  C   LIG    1        8.198  20.726  28.212  0.00  0.00    +0.038 C 
ATOM     24  C   LIG    1        7.944  20.535  25.698  0.00  0.00    +0.038 C 
ENDBRANCH  20  21
ENDBRANCH  14  16
ENDBRANCH  13  14
ENDBRANCH   1  13
TORSDOF 5
ENDMDL
MODEL 9
REMARK VINA RESULT:      -7.5      2.013      6.489
REMARK  Name = 
REMARK                            x       y       z     vdW  Elec       q    Type
REMARK                         _______ _______ _______ _____ _____    ______ ____
ROOT
ATOM      1  C   LIG    1        4.170  16.365  30.731  0.00  0.00    +0.352 C 
ENDROOT
BRANCH   1   4
ATOM      2  O   LIG    1        6.307  18.160  31.523  0.00  0.00    -0.270 OA
ATOM      3  C   LIG    1        5.837  18.140  30.400  0.00  0.00    +0.252 C 
ATOM      4  N   LIG    1        4.840  17.355  29.915  0.00  0.00    -0.200 N 
ATOM      5  C   LIG    1        4.600  17.643  28.608  0.00  0.00    +0.252 C 
ATOM      6  O   LIG    1        3.797  17.172  27.823  0.00  0.00    -0.270 OA
ATOM      7  C   LIG    1        5.536  18.709  28.236  0.00  0.00    +0.023 C 
ATOM      8  C   LIG    1        5.632  19.330  26.906  0.00  0.00    +0.041 C 
ATOM      9  C   LIG    1        6.753  20.368  26.782  0.00  0.00    +0.005 C 
ATOM     10  C   LIG    1        7.528  20.798  28.043  0.00  0.00    +0.005 C 
ATOM     11  C   LIG    1        7.345  20.014  29.351  0.00  0.00    +0.041 C 
ATOM     12  C   LIG    1        6.276  19.003  29.299  0.00  0.00    +0.023 C 
ENDBRANCH   1   4
BRANCH   1  13
ATOM     13  O   LIG    1        2.847  16.787  31.015  0.00  0.00    -0.444 OA
BRANCH  13  14
ATOM     14  C   LIG    1        2.428  16.565  32.277  0.00  0.00    +0.313 C 
ATOM     15  O   LIG    1        1.760  15.613  32.655  0.00  0.00    -0.250 OA
BRANCH  14  16
ATOM     16  C   LIG    1        2.949  17.627  33.170  0.00  0.00    +0.111 C 
ATOM     17  C   LIG    1        2.159  18.369  34.236  0.00  0.00    -0.014 C 
ATOM     18  C   LIG    1        2.923  18.781  35.477  0.00  0.00    +0.012 C 
ATOM     19  C   LIG    1        0.723  18.013  34.532  0.00  0.00    +0.012 C 
ATOM     20  C   LIG    1        2.545  19.075  32.948  0.00  0.00    +0.032 C 
BRANCH  20  21
ATOM     21  C   LIG    1        1.567  19.408  31.901  0.00  0.00    -0.023 C 
ATOM     22  C   LIG    1        1.818  20.019  30.725  0.00  0.00    -0.079 C 
ATOM     23  C   LIG    1        0.716  20.296  29.738  0.00  0.00    +0.038 C 
ATOM     24  C   LIG    1        3.182  20.481  30.290  0.00  0.00    +0.038 C 
ENDBRANCH  20  21
ENDBRANCH  14  16
ENDBRANCH  13  14
ENDBRANCH   1  13
TORSDOF 5
ENDMDL
