MODEL 1
REMARK VINA RESULT:      -9.6      0.000      0.000
REMARK  Name = 
REMARK                            x       y       z     vdW  Elec       q    Type
REMARK                         _______ _______ _______ _____ _____    ______ ____
ROOT
ATOM      1  C   LIG    1       21.441 -16.934  18.052  0.00  0.00    +0.352 C 
ENDROOT
BRANCH   1   4
ATOM      2  O   LIG    1       20.098 -14.495  17.238  0.00  0.00    -0.270 OA
ATOM      3  C   LIG    1       19.542 -15.390  17.849  0.00  0.00    +0.252 C 
ATOM      4  N   LIG    1       20.061 -16.566  18.285  0.00  0.00    -0.200 N 
ATOM      5  C   LIG    1       19.114 -17.294  18.936  0.00  0.00    +0.252 C 
ATOM      6  O   LIG    1       19.177 -18.386  19.470  0.00  0.00    -0.270 OA
ATOM      7  C   LIG    1       17.882 -16.499  18.904  0.00  0.00    +0.023 C 
ATOM      8  C   LIG    1       16.595 -16.904  19.489  0.00  0.00    +0.041 C 
ATOM      9  C   LIG    1       15.456 -15.909  19.240  0.00  0.00    +0.005 C 
ATOM     10  C   LIG    1       15.772 -14.545  18.597  0.00  0.00    +0.005 C 
ATOM     11  C   LIG    1       17.161 -14.294  17.990  0.00  0.00    +0.041 C 
ATOM     12  C   LIG    1       18.132 -15.369  18.253  0.00  0.00    +0.023 C 
ENDBRANCH   1   4
BRANCH   1  13
ATOM     13  O   LIG    1       22.266 -16.381  19.063  0.00  0.00    -0.444 OA
BRANCH  13  14
ATOM     14  C   LIG    1       23.369 -15.740  18.623  0.00  0.00    +0.313 C 
ATOM     15  O   LIG    1       23.391 -14.819  17.819  0.00  0.00    -0.250 OA
BRANCH  14  16
ATOM     16  C   LIG    1       24.566 -16.281  19.307  0.00  0.00    +0.111 C 
ATOM     17  C   LIG    1       26.011 -16.080  18.879  0.00  0.00    -0.014 C 
ATOM     18  C   LIG    1       27.038 -15.994  19.988  0.00  0.00    +0.012 C 
ATOM     19  C   LIG    1       26.360 -15.208  17.698  0.00  0.00    +0.012 C 
ATOM     20  C   LIG    1       25.344 -17.431  18.689  0.00  0.00    +0.032 C 
BRANCH  20  21
ATOM     21  C   LIG    1       24.956 -17.947  17.367  0.00  0.00    -0.023 C 
ATOM     22  C   LIG    1       24.178 -19.019  17.113  0.00  0.00    -0.079 C 
ATOM     23  C   LIG    1       23.856 -19.435  15.704  0.00  0.00    +0.038 C 
ATOM     24  C   LIG    1       23.573 -19.892  18.180  0.00  0.00    +0.038 C 
ENDBRANCH  20  21
ENDBRANCH  14  16
ENDBRANCH  13  14
ENDBRANCH   1  13
TORSDOF 5
ENDMDL
MODEL 2
REMARK VINA RESULT:      -9.5      1.199      2.730
REMARK  Name = 
REMARK                            x       y       z     vdW  Elec       q    Type
REMARK                         _______ _______ _______ _____ _____    ______ ____
ROOT
ATOM      1  C   LIG    1       21.109 -16.952  18.613  0.00  0.00    +0.352 C 
ENDROOT
BRANCH   1   4
ATOM      2  O   LIG    1       19.755 -14.513  17.819  0.00  0.00    -0.270 OA
ATOM      3  C   LIG    1       19.166 -15.505  18.207  0.00  0.00    +0.252 C 
ATOM      4  N   LIG    1       19.685 -16.695  18.607  0.00  0.00    -0.200 N 
ATOM      5  C   LIG    1       18.693 -17.549  18.974  0.00  0.00    +0.252 C 
ATOM      6  O   LIG    1       18.740 -18.693  19.387  0.00  0.00    -0.270 OA
ATOM      7  C   LIG    1       17.430 -16.828  18.785  0.00  0.00    +0.023 C 
ATOM      8  C   LIG    1       16.091 -17.375  19.056  0.00  0.00    +0.041 C 
ATOM      9  C   LIG    1       14.945 -16.422  18.696  0.00  0.00    +0.005 C 
ATOM     10  C   LIG    1       15.267 -14.974  18.280  0.00  0.00    +0.005 C 
ATOM     11  C   LIG    1       16.722 -14.573  17.991  0.00  0.00    +0.041 C 
ATOM     12  C   LIG    1       17.708 -15.614  18.324  0.00  0.00    +0.023 C 
ENDBRANCH   1   4
BRANCH   1  13
ATOM     13  O   LIG    1       21.548 -17.273  17.305  0.00  0.00    -0.444 OA
BRANCH  13  14
ATOM     14  C   LIG    1       22.578 -16.533  16.842  0.00  0.00    +0.313 C 
ATOM     15  O   LIG    1       22.589 -15.316  16.721  0.00  0.00    -0.250 OA
BRANCH  14  16
ATOM     16  C   LIG    1       23.733 -17.413  16.552  0.00  0.00    +0.111 C 
ATOM     17  C   LIG    1       24.672 -18.026  17.578  0.00  0.00    -0.014 C 
ATOM     18  C   LIG    1       25.228 -19.396  17.251  0.00  0.00    +0.012 C 
ATOM     19  C   LIG    1       24.445 -17.833  19.057  0.00  0.00    +0.012 C 
ATOM     20  C   LIG    1       25.150 -16.884  16.699  0.00  0.00    +0.032 C 
BRANCH  20  21
ATOM     21  C   LIG    1       25.372 -15.524  17.216  0.00  0.00    -0.023 C 
ATOM     22  C   LIG    1       26.453 -15.081  17.890  0.00  0.00    -0.079 C 
ATOM     23  C   LIG    1       26.551 -13.655  18.360  0.00  0.00    +0.038 C 
ATOM     24  C   LIG    1       27.636 -15.941  18.242  0.00  0.00    +0.038 C 
ENDBRANCH  20  21
ENDBRANCH  14  16
ENDBRANCH  13  14
ENDBRANCH   1  13
TORSDOF 5
ENDMDL
MODEL 3
REMARK VINA RESULT:      -9.5      1.183      3.275
REMARK  Name = 
REMARK                            x       y       z     vdW  Elec       q    Type
REMARK                         _______ _______ _______ _____ _____    ______ ____
ROOT
ATOM      1  C   LIG    1       21.045 -17.042  18.569  0.00  0.00    +0.352 C 
ENDROOT
BRANCH   1   4
ATOM      2  O   LIG    1       18.794 -18.658  19.428  0.00  0.00    -0.270 OA
ATOM      3  C   LIG    1       18.673 -17.531  18.981  0.00  0.00    +0.252 C 
ATOM      4  N   LIG    1       19.643 -16.686  18.546  0.00  0.00    -0.200 N 
ATOM      5  C   LIG    1       19.098 -15.517  18.114  0.00  0.00    +0.252 C 
ATOM      6  O   LIG    1       19.619 -14.518  17.653  0.00  0.00    -0.270 OA
ATOM      7  C   LIG    1       17.648 -15.640  18.297  0.00  0.00    +0.023 C 
ATOM      8  C   LIG    1       16.660 -14.602  17.965  0.00  0.00    +0.041 C 
ATOM      9  C   LIG    1       15.218 -14.974  18.332  0.00  0.00    +0.005 C 
ATOM     10  C   LIG    1       14.907 -16.403  18.818  0.00  0.00    +0.005 C 
ATOM     11  C   LIG    1       16.061 -17.355  19.166  0.00  0.00    +0.041 C 
ATOM     12  C   LIG    1       17.393 -16.835  18.818  0.00  0.00    +0.023 C 
ENDBRANCH   1   4
BRANCH   1  13
ATOM     13  O   LIG    1       21.524 -17.209  17.246  0.00  0.00    -0.444 OA
BRANCH  13  14
ATOM     14  C   LIG    1       22.597 -16.459  16.920  0.00  0.00    +0.313 C 
ATOM     15  O   LIG    1       22.649 -15.237  16.931  0.00  0.00    -0.250 OA
BRANCH  14  16
ATOM     16  C   LIG    1       23.743 -17.341  16.598  0.00  0.00    +0.111 C 
ATOM     17  C   LIG    1       24.690 -17.981  17.600  0.00  0.00    -0.014 C 
ATOM     18  C   LIG    1       25.232 -19.348  17.239  0.00  0.00    +0.012 C 
ATOM     19  C   LIG    1       24.484 -17.814  19.085  0.00  0.00    +0.012 C 
ATOM     20  C   LIG    1       25.165 -16.825  16.737  0.00  0.00    +0.032 C 
BRANCH  20  21
ATOM     21  C   LIG    1       25.403 -15.476  17.277  0.00  0.00    -0.023 C 
ATOM     22  C   LIG    1       26.500 -15.052  17.936  0.00  0.00    -0.079 C 
ATOM     23  C   LIG    1       26.614 -13.636  18.433  0.00  0.00    +0.038 C 
ATOM     24  C   LIG    1       27.688 -15.923  18.244  0.00  0.00    +0.038 C 
ENDBRANCH  20  21
ENDBRANCH  14  16
ENDBRANCH  13  14
ENDBRANCH   1  13
TORSDOF 5
ENDMDL
MODEL 4
REMARK VINA RESULT:      -9.2      1.579      3.192
REMARK  Name = 
REMARK                            x       y       z     vdW  Elec       q    Type
REMARK                         _______ _______ _______ _____ _____    ______ ____
ROOT
ATOM      1  C   LIG    1       22.434 -16.530  17.676  0.00  0.00    +0.352 C 
ENDROOT
BRANCH   1   4
ATOM      2  O   LIG    1       20.841 -14.196  17.021  0.00  0.00    -0.270 OA
ATOM      3  C   LIG    1       20.383 -15.182  17.569  0.00  0.00    +0.252 C 
ATOM      4  N   LIG    1       21.024 -16.324  17.928  0.00  0.00    -0.200 N 
ATOM      5  C   LIG    1       20.160 -17.188  18.526  0.00  0.00    +0.252 C 
ATOM      6  O   LIG    1       20.338 -18.301  18.986  0.00  0.00    -0.270 OA
ATOM      7  C   LIG    1       18.852 -16.525  18.543  0.00  0.00    +0.023 C 
ATOM      8  C   LIG    1       17.616 -17.100  19.096  0.00  0.00    +0.041 C 
ATOM      9  C   LIG    1       16.379 -16.214  18.910  0.00  0.00    +0.005 C 
ATOM     10  C   LIG    1       16.549 -14.785  18.360  0.00  0.00    +0.005 C 
ATOM     11  C   LIG    1       17.902 -14.352  17.775  0.00  0.00    +0.041 C 
ATOM     12  C   LIG    1       18.981 -15.334  17.970  0.00  0.00    +0.023 C 
ENDBRANCH   1   4
BRANCH   1  13
ATOM     13  O   LIG    1       23.198 -16.015  18.752  0.00  0.00    -0.444 OA
BRANCH  13  14
ATOM     14  C   LIG    1       24.009 -14.982  18.444  0.00  0.00    +0.313 C 
ATOM     15  O   LIG    1       23.957 -13.860  18.926  0.00  0.00    -0.250 OA
BRANCH  14  16
ATOM     16  C   LIG    1       25.028 -15.424  17.463  0.00  0.00    +0.111 C 
ATOM     17  C   LIG    1       26.066 -16.513  17.677  0.00  0.00    -0.014 C 
ATOM     18  C   LIG    1       26.448 -17.330  16.462  0.00  0.00    +0.012 C 
ATOM     19  C   LIG    1       26.096 -17.322  18.951  0.00  0.00    +0.012 C 
ATOM     20  C   LIG    1       26.488 -15.054  17.661  0.00  0.00    +0.032 C 
BRANCH  20  21
ATOM     21  C   LIG    1       26.900 -14.334  18.877  0.00  0.00    -0.023 C 
ATOM     22  C   LIG    1       28.073 -14.457  19.531  0.00  0.00    -0.079 C 
ATOM     23  C   LIG    1       28.367 -13.650  20.767  0.00  0.00    +0.038 C 
ATOM     24  C   LIG    1       29.177 -15.390  19.113  0.00  0.00    +0.038 C 
ENDBRANCH  20  21
ENDBRANCH  14  16
ENDBRANCH  13  14
ENDBRANCH   1  13
TORSDOF 5
ENDMDL
MODEL 5
REMARK VINA RESULT:      -8.8      1.896      3.780
REMARK  Name = 
REMARK                            x       y       z     vdW  Elec       q    Type
REMARK                         _______ _______ _______ _____ _____    ______ ____
ROOT
ATOM      1  C   LIG    1       18.849 -17.433  19.311  0.00  0.00    +0.352 C 
ENDROOT
BRANCH   1   4
ATOM      2  O   LIG    1       16.169 -18.321  19.978  0.00  0.00    -0.270 OA
ATOM      3  C   LIG    1       16.403 -17.254  19.440  0.00  0.00    +0.252 C 
ATOM      4  N   LIG    1       17.604 -16.734  19.077  0.00  0.00    -0.200 N 
ATOM      5  C   LIG    1       17.441 -15.517  18.494  0.00  0.00    +0.252 C 
ATOM      6  O   LIG    1       18.256 -14.738  18.036  0.00  0.00    -0.270 OA
ATOM      7  C   LIG    1       16.000 -15.245  18.493  0.00  0.00    +0.023 C 
ATOM      8  C   LIG    1       15.366 -14.029  17.959  0.00  0.00    +0.041 C 
ATOM      9  C   LIG    1       13.846 -13.980  18.158  0.00  0.00    +0.005 C 
ATOM     10  C   LIG    1       13.114 -15.223  18.700  0.00  0.00    +0.005 C 
ATOM     11  C   LIG    1       13.928 -16.398  19.265  0.00  0.00    +0.041 C 
ATOM     12  C   LIG    1       15.381 -16.274  19.059  0.00  0.00    +0.023 C 
ENDBRANCH   1   4
BRANCH   1  13
ATOM     13  O   LIG    1       19.658 -17.384  18.148  0.00  0.00    -0.444 OA
BRANCH  13  14
ATOM     14  C   LIG    1       20.982 -17.249  18.369  0.00  0.00    +0.313 C 
ATOM     15  O   LIG    1       21.767 -18.158  18.599  0.00  0.00    -0.250 OA
BRANCH  14  16
ATOM     16  C   LIG    1       21.368 -15.825  18.233  0.00  0.00    +0.111 C 
ATOM     17  C   LIG    1       22.162 -15.217  17.089  0.00  0.00    -0.014 C 
ATOM     18  C   LIG    1       21.813 -13.795  16.705  0.00  0.00    +0.012 C 
ATOM     19  C   LIG    1       22.582 -16.050  15.902  0.00  0.00    +0.012 C 
ATOM     20  C   LIG    1       22.811 -15.402  18.449  0.00  0.00    +0.032 C 
BRANCH  20  21
ATOM     21  C   LIG    1       23.840 -16.423  18.706  0.00  0.00    -0.023 C 
ATOM     22  C   LIG    1       25.152 -16.341  18.405  0.00  0.00    -0.079 C 
ATOM     23  C   LIG    1       26.100 -17.464  18.730  0.00  0.00    +0.038 C 
ATOM     24  C   LIG    1       25.789 -15.159  17.726  0.00  0.00    +0.038 C 
ENDBRANCH  20  21
ENDBRANCH  14  16
ENDBRANCH  13  14
ENDBRANCH   1  13
TORSDOF 5
ENDMDL
MODEL 6
REMARK VINA RESULT:      -8.8      1.945      4.361
REMARK  Name = 
REMARK                            x       y       z     vdW  Elec       q    Type
REMARK                         _______ _______ _______ _____ _____    ______ ____
ROOT
ATOM      1  C   LIG    1       24.023 -17.120  17.158  0.00  0.00    +0.352 C 
ENDROOT
BRANCH   1   4
ATOM      2  O   LIG    1       22.099 -18.698  18.649  0.00  0.00    -0.270 OA
ATOM      3  C   LIG    1       21.845 -17.601  18.186  0.00  0.00    +0.252 C 
ATOM      4  N   LIG    1       22.653 -16.776  17.472  0.00  0.00    -0.200 N 
ATOM      5  C   LIG    1       21.991 -15.639  17.129  0.00  0.00    +0.252 C 
ATOM      6  O   LIG    1       22.356 -14.665  16.496  0.00  0.00    -0.270 OA
ATOM      7  C   LIG    1       20.639 -15.761  17.682  0.00  0.00    +0.023 C 
ATOM      8  C   LIG    1       19.575 -14.752  17.555  0.00  0.00    +0.041 C 
ATOM      9  C   LIG    1       18.283 -15.112  18.297  0.00  0.00    +0.005 C 
ATOM     10  C   LIG    1       18.136 -16.512  18.925  0.00  0.00    +0.005 C 
ATOM     11  C   LIG    1       19.362 -17.434  19.019  0.00  0.00    +0.041 C 
ATOM     12  C   LIG    1       20.550 -16.925  18.315  0.00  0.00    +0.023 C 
ENDBRANCH   1   4
BRANCH   1  13
ATOM     13  O   LIG    1       24.604 -17.830  18.238  0.00  0.00    -0.444 OA
BRANCH  13  14
ATOM     14  C   LIG    1       25.628 -17.206  18.857  0.00  0.00    +0.313 C 
ATOM     15  O   LIG    1       26.779 -17.613  18.927  0.00  0.00    -0.250 OA
BRANCH  14  16
ATOM     16  C   LIG    1       25.166 -15.907  19.398  0.00  0.00    +0.111 C 
ATOM     17  C   LIG    1       25.529 -14.532  18.861  0.00  0.00    -0.014 C 
ATOM     18  C   LIG    1       24.464 -13.461  18.971  0.00  0.00    +0.012 C 
ATOM     19  C   LIG    1       26.378 -14.377  17.623  0.00  0.00    +0.012 C 
ATOM     20  C   LIG    1       26.127 -15.017  20.170  0.00  0.00    +0.032 C 
BRANCH  20  21
ATOM     21  C   LIG    1       27.540 -15.409  20.300  0.00  0.00    -0.023 C 
ATOM     22  C   LIG    1       28.597 -14.585  20.441  0.00  0.00    -0.079 C 
ATOM     23  C   LIG    1       29.997 -15.123  20.569  0.00  0.00    +0.038 C 
ATOM     24  C   LIG    1       28.497 -13.084  20.476  0.00  0.00    +0.038 C 
ENDBRANCH  20  21
ENDBRANCH  14  16
ENDBRANCH  13  14
ENDBRANCH   1  13
TORSDOF 5
ENDMDL
MODEL 7
REMARK VINA RESULT:      -8.7      2.003      4.015
REMARK  Name = 
REMARK                            x       y       z     vdW  Elec       q    Type
REMARK                         _______ _______ _______ _____ _____    ______ ____
ROOT
ATOM      1  C   LIG    1       24.052 -16.905  17.367  0.00  0.00    +0.352 C 
ENDROOT
BRANCH   1   4
ATOM      2  O   LIG    1       22.466 -14.540  16.814  0.00  0.00    -0.270 OA
ATOM      3  C   LIG    1       22.011 -15.539  17.340  0.00  0.00    +0.252 C 
ATOM      4  N   LIG    1       22.649 -16.696  17.652  0.00  0.00    -0.200 N 
ATOM      5  C   LIG    1       21.790 -17.572  18.239  0.00  0.00    +0.252 C 
ATOM      6  O   LIG    1       21.967 -18.699  18.662  0.00  0.00    -0.270 OA
ATOM      7  C   LIG    1       20.487 -16.901  18.301  0.00  0.00    +0.023 C 
ATOM      8  C   LIG    1       19.257 -17.483  18.859  0.00  0.00    +0.041 C 
ATOM      9  C   LIG    1       18.024 -16.582  18.724  0.00  0.00    +0.005 C 
ATOM     10  C   LIG    1       18.195 -15.138  18.214  0.00  0.00    +0.005 C 
ATOM     11  C   LIG    1       19.540 -14.697  17.618  0.00  0.00    +0.041 C 
ATOM     12  C   LIG    1       20.615 -15.693  17.762  0.00  0.00    +0.023 C 
ENDBRANCH   1   4
BRANCH   1  13
ATOM     13  O   LIG    1       24.656 -17.638  18.419  0.00  0.00    -0.444 OA
BRANCH  13  14
ATOM     14  C   LIG    1       25.725 -17.051  18.994  0.00  0.00    +0.313 C 
ATOM     15  O   LIG    1       26.859 -17.507  19.035  0.00  0.00    -0.250 OA
BRANCH  14  16
ATOM     16  C   LIG    1       25.338 -15.725  19.528  0.00  0.00    +0.111 C 
ATOM     17  C   LIG    1       25.746 -14.376  18.960  0.00  0.00    -0.014 C 
ATOM     18  C   LIG    1       24.734 -13.257  19.084  0.00  0.00    +0.012 C 
ATOM     19  C   LIG    1       26.564 -14.277  17.696  0.00  0.00    +0.012 C 
ATOM     20  C   LIG    1       26.360 -14.869  20.258  0.00  0.00    +0.032 C 
BRANCH  20  21
ATOM     21  C   LIG    1       27.757 -15.322  20.354  0.00  0.00    -0.023 C 
ATOM     22  C   LIG    1       28.856 -14.544  20.425  0.00  0.00    -0.079 C 
ATOM     23  C   LIG    1       30.233 -15.144  20.525  0.00  0.00    +0.038 C 
ATOM     24  C   LIG    1       28.826 -13.040  20.404  0.00  0.00    +0.038 C 
ENDBRANCH  20  21
ENDBRANCH  14  16
ENDBRANCH  13  14
ENDBRANCH   1  13
TORSDOF 5
ENDMDL
MODEL 8
REMARK VINA RESULT:      -8.7      2.866      7.344
REMARK  Name = 
REMARK                            x       y       z     vdW  Elec       q    Type
REMARK                         _______ _______ _______ _____ _____    ______ ____
ROOT
ATOM      1  C   LIG    1       25.128 -16.496  20.158  0.00  0.00    +0.352 C 
ENDROOT
BRANCH   1   4
ATOM      2  O   LIG    1       24.387 -14.071  18.748  0.00  0.00    -0.270 OA
ATOM      3  C   LIG    1       25.526 -14.313  19.105  0.00  0.00    +0.252 C 
ATOM      4  N   LIG    1       25.993 -15.406  19.762  0.00  0.00    -0.200 N 
ATOM      5  C   LIG    1       27.332 -15.301  19.972  0.00  0.00    +0.252 C 
ATOM      6  O   LIG    1       28.115 -16.058  20.516  0.00  0.00    -0.270 OA
ATOM      7  C   LIG    1       27.746 -14.018  19.394  0.00  0.00    +0.023 C 
ATOM      8  C   LIG    1       29.118 -13.488  19.397  0.00  0.00    +0.041 C 
ATOM      9  C   LIG    1       29.247 -12.087  18.787  0.00  0.00    +0.005 C 
ATOM     10  C   LIG    1       28.030 -11.455  18.083  0.00  0.00    +0.005 C 
ATOM     11  C   LIG    1       26.649 -12.115  18.214  0.00  0.00    +0.041 C 
ATOM     12  C   LIG    1       26.673 -13.426  18.882  0.00  0.00    +0.023 C 
ENDBRANCH   1   4
BRANCH   1  13
ATOM     13  O   LIG    1       24.665 -17.188  19.011  0.00  0.00    -0.444 OA
BRANCH  13  14
ATOM     14  C   LIG    1       23.327 -17.185  18.834  0.00  0.00    +0.313 C 
ATOM     15  O   LIG    1       22.512 -16.597  19.531  0.00  0.00    -0.250 OA
BRANCH  14  16
ATOM     16  C   LIG    1       22.984 -17.960  17.619  0.00  0.00    +0.111 C 
ATOM     17  C   LIG    1       23.811 -18.046  16.347  0.00  0.00    -0.014 C 
ATOM     18  C   LIG    1       23.767 -19.362  15.601  0.00  0.00    +0.012 C 
ATOM     19  C   LIG    1       25.155 -17.367  16.243  0.00  0.00    +0.012 C 
ATOM     20  C   LIG    1       22.523 -17.242  16.362  0.00  0.00    +0.032 C 
BRANCH  20  21
ATOM     21  C   LIG    1       22.504 -15.771  16.326  0.00  0.00    -0.023 C 
ATOM     22  C   LIG    1       21.519 -14.964  16.771  0.00  0.00    -0.079 C 
ATOM     23  C   LIG    1       21.633 -13.466  16.677  0.00  0.00    +0.038 C 
ATOM     24  C   LIG    1       20.237 -15.459  17.383  0.00  0.00    +0.038 C 
ENDBRANCH  20  21
ENDBRANCH  14  16
ENDBRANCH  13  14
ENDBRANCH   1  13
TORSDOF 5
ENDMDL
MODEL 9
REMARK VINA RESULT:      -8.7      2.532      7.603
REMARK  Name = 
REMARK                            x       y       z     vdW  Elec       q    Type
REMARK                         _______ _______ _______ _____ _____    ______ ____
ROOT
ATOM      1  C   LIG    1       24.747 -16.818  19.110  0.00  0.00    +0.352 C 
ENDROOT
BRANCH   1   4
ATOM      2  O   LIG    1       27.537 -16.749  19.902  0.00  0.00    -0.270 OA
ATOM      3  C   LIG    1       26.952 -15.787  19.440  0.00  0.00    +0.252 C 
ATOM      4  N   LIG    1       25.657 -15.695  19.040  0.00  0.00    -0.200 N 
ATOM      5  C   LIG    1       25.385 -14.442  18.587  0.00  0.00    +0.252 C 
ATOM      6  O   LIG    1       24.357 -13.960  18.149  0.00  0.00    -0.270 OA
ATOM      7  C   LIG    1       26.628 -13.674  18.713  0.00  0.00    +0.023 C 
ATOM      8  C   LIG    1       26.795 -12.263  18.334  0.00  0.00    +0.041 C 
ATOM      9  C   LIG    1       28.225 -11.737  18.505  0.00  0.00    +0.005 C 
ATOM     10  C   LIG    1       29.278 -12.621  19.201  0.00  0.00    +0.005 C 
ATOM     11  C   LIG    1       28.958 -14.096  19.491  0.00  0.00    +0.041 C 
ATOM     12  C   LIG    1       27.562 -14.473  19.215  0.00  0.00    +0.023 C 
ENDBRANCH   1   4
BRANCH   1  13
ATOM     13  O   LIG    1       24.247 -17.117  17.818  0.00  0.00    -0.444 OA
BRANCH  13  14
ATOM     14  C   LIG    1       22.982 -17.584  17.781  0.00  0.00    +0.313 C 
ATOM     15  O   LIG    1       22.574 -18.596  18.332  0.00  0.00    -0.250 OA
BRANCH  14  16
ATOM     16  C   LIG    1       22.128 -16.649  17.012  0.00  0.00    +0.111 C 
ATOM     17  C   LIG    1       21.370 -15.458  17.576  0.00  0.00    -0.014 C 
ATOM     18  C   LIG    1       21.230 -14.255  16.668  0.00  0.00    +0.012 C 
ATOM     19  C   LIG    1       21.491 -15.074  19.030  0.00  0.00    +0.012 C 
ATOM     20  C   LIG    1       20.616 -16.706  17.153  0.00  0.00    +0.032 C 
BRANCH  20  21
ATOM     21  C   LIG    1       20.007 -17.633  18.121  0.00  0.00    -0.023 C 
ATOM     22  C   LIG    1       18.794 -17.517  18.699  0.00  0.00    -0.079 C 
ATOM     23  C   LIG    1       18.291 -18.546  19.674  0.00  0.00    +0.038 C 
ATOM     24  C   LIG    1       17.846 -16.376  18.445  0.00  0.00    +0.038 C 
ENDBRANCH  20  21
ENDBRANCH  14  16
ENDBRANCH  13  14
ENDBRANCH   1  13
TORSDOF 5
ENDMDL
