MODEL 1
REMARK VINA RESULT:      -7.4      0.000      0.000
REMARK  Name = 
REMARK                            x       y       z     vdW  Elec       q    Type
REMARK                         _______ _______ _______ _____ _____    ______ ____
ROOT
ATOM      1  C   LIG    1        2.935   9.700  -1.815  0.00  0.00    +0.352 C 
ENDROOT
BRANCH   1   4
ATOM      2  O   LIG    1        4.951  11.708  -2.378  0.00  0.00    -0.270 OA
ATOM      3  C   LIG    1        4.707  10.781  -3.128  0.00  0.00    +0.252 C 
ATOM      4  N   LIG    1        3.791   9.789  -2.978  0.00  0.00    -0.200 N 
ATOM      5  C   LIG    1        3.820   8.946  -4.044  0.00  0.00    +0.252 C 
ATOM      6  O   LIG    1        3.165   7.950  -4.290  0.00  0.00    -0.270 OA
ATOM      7  C   LIG    1        4.855   9.455  -4.950  0.00  0.00    +0.023 C 
ATOM      8  C   LIG    1        5.232   8.847  -6.235  0.00  0.00    +0.041 C 
ATOM      9  C   LIG    1        6.399   9.551  -6.939  0.00  0.00    +0.005 C 
ATOM     10  C   LIG    1        6.933  10.880  -6.372  0.00  0.00    +0.005 C 
ATOM     11  C   LIG    1        6.467  11.357  -4.987  0.00  0.00    +0.041 C 
ATOM     12  C   LIG    1        5.387  10.544  -4.406  0.00  0.00    +0.023 C 
ENDBRANCH   1   4
BRANCH   1  13
ATOM     13  O   LIG    1        3.319   8.595  -1.015  0.00  0.00    -0.444 OA
BRANCH  13  14
ATOM     14  C   LIG    1        2.305   7.917  -0.439  0.00  0.00    +0.313 C 
ATOM     15  O   LIG    1        1.964   7.993   0.733  0.00  0.00    -0.250 OA
BRANCH  14  16
ATOM     16  C   LIG    1        1.611   7.096  -1.459  0.00  0.00    +0.111 C 
ATOM     17  C   LIG    1        0.688   5.920  -1.187  0.00  0.00    -0.014 C 
ATOM     18  C   LIG    1       -0.460   5.725  -2.154  0.00  0.00    +0.012 C 
ATOM     19  C   LIG    1        0.331   5.519   0.223  0.00  0.00    +0.012 C 
ATOM     20  C   LIG    1        2.080   5.679  -1.745  0.00  0.00    +0.032 C 
BRANCH  20  21
ATOM     21  C   LIG    1        3.167   5.094  -0.943  0.00  0.00    -0.023 C 
ATOM     22  C   LIG    1        4.491   5.207  -1.172  0.00  0.00    -0.079 C 
ATOM     23  C   LIG    1        5.500   4.557  -0.264  0.00  0.00    +0.038 C 
ATOM     24  C   LIG    1        5.084   5.964  -2.330  0.00  0.00    +0.038 C 
ENDBRANCH  20  21
ENDBRANCH  14  16
ENDBRANCH  13  14
ENDBRANCH   1  13
TORSDOF 5
ENDMDL
MODEL 2
REMARK VINA RESULT:      -7.3      2.702      4.256
REMARK  Name = 
REMARK                            x       y       z     vdW  Elec       q    Type
REMARK                         _______ _______ _______ _____ _____    ______ ____
ROOT
ATOM      1  C   LIG    1        4.763   9.820  -2.617  0.00  0.00    +0.352 C 
ENDROOT
BRANCH   1   4
ATOM      2  O   LIG    1        5.967  10.757  -0.150  0.00  0.00    -0.270 OA
ATOM      3  C   LIG    1        5.395  11.492  -0.933  0.00  0.00    +0.252 C 
ATOM      4  N   LIG    1        4.793  11.174  -2.108  0.00  0.00    -0.200 N 
ATOM      5  C   LIG    1        4.259  12.282  -2.688  0.00  0.00    +0.252 C 
ATOM      6  O   LIG    1        3.645  12.419  -3.730  0.00  0.00    -0.270 OA
ATOM      7  C   LIG    1        4.557  13.405  -1.792  0.00  0.00    +0.023 C 
ATOM      8  C   LIG    1        4.168  14.804  -2.027  0.00  0.00    +0.041 C 
ATOM      9  C   LIG    1        4.677  15.780  -0.960  0.00  0.00    +0.005 C 
ATOM     10  C   LIG    1        5.355  15.226   0.309  0.00  0.00    +0.005 C 
ATOM     11  C   LIG    1        5.737  13.739   0.379  0.00  0.00    +0.041 C 
ATOM     12  C   LIG    1        5.236  12.939  -0.751  0.00  0.00    +0.023 C 
ENDBRANCH   1   4
BRANCH   1  13
ATOM     13  O   LIG    1        3.471   9.265  -2.442  0.00  0.00    -0.444 OA
BRANCH  13  14
ATOM     14  C   LIG    1        3.380   8.293  -1.510  0.00  0.00    +0.313 C 
ATOM     15  O   LIG    1        4.142   8.128  -0.568  0.00  0.00    -0.250 OA
BRANCH  14  16
ATOM     16  C   LIG    1        2.171   7.474  -1.760  0.00  0.00    +0.111 C 
ATOM     17  C   LIG    1        2.009   5.996  -1.446  0.00  0.00    -0.014 C 
ATOM     18  C   LIG    1        0.625   5.542  -1.033  0.00  0.00    +0.012 C 
ATOM     19  C   LIG    1        3.102   5.222  -0.751  0.00  0.00    +0.012 C 
ATOM     20  C   LIG    1        2.161   6.453  -2.886  0.00  0.00    +0.032 C 
BRANCH  20  21
ATOM     21  C   LIG    1        3.385   6.218  -3.668  0.00  0.00    -0.023 C 
ATOM     22  C   LIG    1        3.700   6.765  -4.860  0.00  0.00    -0.079 C 
ATOM     23  C   LIG    1        4.995   6.438  -5.553  0.00  0.00    +0.038 C 
ATOM     24  C   LIG    1        2.814   7.725  -5.607  0.00  0.00    +0.038 C 
ENDBRANCH  20  21
ENDBRANCH  14  16
ENDBRANCH  13  14
ENDBRANCH   1  13
TORSDOF 5
ENDMDL
MODEL 3
REMARK VINA RESULT:      -7.2      1.967      3.619
REMARK  Name = 
REMARK                            x       y       z     vdW  Elec       q    Type
REMARK                         _______ _______ _______ _____ _____    ______ ____
ROOT
ATOM      1  C   LIG    1        4.275   8.543  -4.975  0.00  0.00    +0.352 C 
ENDROOT
BRANCH   1   4
ATOM      2  O   LIG    1        5.227  11.280  -4.835  0.00  0.00    -0.270 OA
ATOM      3  C   LIG    1        5.724  10.438  -5.561  0.00  0.00    +0.252 C 
ATOM      4  N   LIG    1        5.367   9.137  -5.716  0.00  0.00    -0.200 N 
ATOM      5  C   LIG    1        6.168   8.528  -6.630  0.00  0.00    +0.252 C 
ATOM      6  O   LIG    1        6.174   7.384  -7.047  0.00  0.00    -0.270 OA
ATOM      7  C   LIG    1        7.121   9.542  -7.092  0.00  0.00    +0.023 C 
ATOM      8  C   LIG    1        8.182   9.321  -8.087  0.00  0.00    +0.041 C 
ATOM      9  C   LIG    1        9.079  10.542  -8.323  0.00  0.00    +0.005 C 
ATOM     10  C   LIG    1        8.705  11.891  -7.680  0.00  0.00    +0.005 C 
ATOM     11  C   LIG    1        7.594  11.945  -6.620  0.00  0.00    +0.041 C 
ATOM     12  C   LIG    1        6.862  10.678  -6.454  0.00  0.00    +0.023 C 
ENDBRANCH   1   4
BRANCH   1  13
ATOM     13  O   LIG    1        4.747   7.442  -4.217  0.00  0.00    -0.444 OA
BRANCH  13  14
ATOM     14  C   LIG    1        3.795   6.722  -3.588  0.00  0.00    +0.313 C 
ATOM     15  O   LIG    1        2.690   6.448  -4.034  0.00  0.00    -0.250 OA
BRANCH  14  16
ATOM     16  C   LIG    1        4.308   6.253  -2.280  0.00  0.00    +0.111 C 
ATOM     17  C   LIG    1        3.468   5.776  -1.107  0.00  0.00    -0.014 C 
ATOM     18  C   LIG    1        4.066   4.681  -0.249  0.00  0.00    +0.012 C 
ATOM     19  C   LIG    1        1.966   5.671  -1.214  0.00  0.00    +0.012 C 
ATOM     20  C   LIG    1        4.160   7.126  -1.045  0.00  0.00    +0.032 C 
BRANCH  20  21
ATOM     21  C   LIG    1        3.428   8.399  -1.135  0.00  0.00    -0.023 C 
ATOM     22  C   LIG    1        3.947   9.613  -1.409  0.00  0.00    -0.079 C 
ATOM     23  C   LIG    1        3.077  10.839  -1.475  0.00  0.00    +0.038 C 
ATOM     24  C   LIG    1        5.409   9.866  -1.664  0.00  0.00    +0.038 C 
ENDBRANCH  20  21
ENDBRANCH  14  16
ENDBRANCH  13  14
ENDBRANCH   1  13
TORSDOF 5
ENDMDL
MODEL 4
REMARK VINA RESULT:      -7.0      1.984      6.792
REMARK  Name = 
REMARK                            x       y       z     vdW  Elec       q    Type
REMARK                         _______ _______ _______ _____ _____    ______ ____
ROOT
ATOM      1  C   LIG    1        4.662   6.654  -2.018  0.00  0.00    +0.352 C 
ENDROOT
BRANCH   1   4
ATOM      2  O   LIG    1        2.415   5.116  -3.017  0.00  0.00    -0.270 OA
ATOM      3  C   LIG    1        2.394   5.714  -1.956  0.00  0.00    +0.252 C 
ATOM      4  N   LIG    1        3.373   6.465  -1.389  0.00  0.00    -0.200 N 
ATOM      5  C   LIG    1        2.955   6.974  -0.199  0.00  0.00    +0.252 C 
ATOM      6  O   LIG    1        3.525   7.688   0.605  0.00  0.00    -0.270 OA
ATOM      7  C   LIG    1        1.584   6.494   0.001  0.00  0.00    +0.023 C 
ATOM      8  C   LIG    1        0.740   6.799   1.167  0.00  0.00    +0.041 C 
ATOM      9  C   LIG    1       -0.626   6.102   1.147  0.00  0.00    +0.005 C 
ATOM     10  C   LIG    1       -1.062   5.331  -0.114  0.00  0.00    +0.005 C 
ATOM     11  C   LIG    1       -0.041   5.058  -1.229  0.00  0.00    +0.041 C 
ATOM     12  C   LIG    1        1.249   5.741  -1.040  0.00  0.00    +0.023 C 
ENDBRANCH   1   4
BRANCH   1  13
ATOM     13  O   LIG    1        4.598   7.729  -2.940  0.00  0.00    -0.444 OA
BRANCH  13  14
ATOM     14  C   LIG    1        4.512   7.373  -4.238  0.00  0.00    +0.313 C 
ATOM     15  O   LIG    1        5.328   6.703  -4.855  0.00  0.00    -0.250 OA
BRANCH  14  16
ATOM     16  C   LIG    1        3.236   7.867  -4.807  0.00  0.00    +0.111 C 
ATOM     17  C   LIG    1        3.068   8.595  -6.131  0.00  0.00    -0.014 C 
ATOM     18  C   LIG    1        1.780   8.336  -6.884  0.00  0.00    +0.012 C 
ATOM     19  C   LIG    1        4.241   8.821  -7.051  0.00  0.00    +0.012 C 
ATOM     20  C   LIG    1        2.935   9.357  -4.823  0.00  0.00    +0.032 C 
BRANCH  20  21
ATOM     21  C   LIG    1        3.952  10.312  -4.354  0.00  0.00    -0.023 C 
ATOM     22  C   LIG    1        3.978  10.943  -3.163  0.00  0.00    -0.079 C 
ATOM     23  C   LIG    1        5.087  11.898  -2.809  0.00  0.00    +0.038 C 
ATOM     24  C   LIG    1        2.931  10.773  -2.095  0.00  0.00    +0.038 C 
ENDBRANCH  20  21
ENDBRANCH  14  16
ENDBRANCH  13  14
ENDBRANCH   1  13
TORSDOF 5
ENDMDL
MODEL 5
REMARK VINA RESULT:      -7.0      1.794      3.227
REMARK  Name = 
REMARK                            x       y       z     vdW  Elec       q    Type
REMARK                         _______ _______ _______ _____ _____    ______ ____
ROOT
ATOM      1  C   LIG    1        4.285   8.519  -4.929  0.00  0.00    +0.352 C 
ENDROOT
BRANCH   1   4
ATOM      2  O   LIG    1        6.077   7.376  -6.903  0.00  0.00    -0.270 OA
ATOM      3  C   LIG    1        6.137   8.538  -6.541  0.00  0.00    +0.252 C 
ATOM      4  N   LIG    1        5.364   9.181  -5.630  0.00  0.00    -0.200 N 
ATOM      5  C   LIG    1        5.755  10.477  -5.501  0.00  0.00    +0.252 C 
ATOM      6  O   LIG    1        5.326  11.372  -4.797  0.00  0.00    -0.270 OA
ATOM      7  C   LIG    1        6.881  10.666  -6.422  0.00  0.00    +0.023 C 
ATOM      8  C   LIG    1        7.618  11.925  -6.616  0.00  0.00    +0.041 C 
ATOM      9  C   LIG    1        8.701  11.852  -7.698  0.00  0.00    +0.005 C 
ATOM     10  C   LIG    1        9.047  10.491  -8.332  0.00  0.00    +0.005 C 
ATOM     11  C   LIG    1        8.146   9.276  -8.060  0.00  0.00    +0.041 C 
ATOM     12  C   LIG    1        7.107   9.515  -7.045  0.00  0.00    +0.023 C 
ENDBRANCH   1   4
BRANCH   1  13
ATOM     13  O   LIG    1        4.603   8.398  -3.553  0.00  0.00    -0.444 OA
BRANCH  13  14
ATOM     14  C   LIG    1        3.620   8.746  -2.698  0.00  0.00    +0.313 C 
ATOM     15  O   LIG    1        3.430   9.864  -2.240  0.00  0.00    -0.250 OA
BRANCH  14  16
ATOM     16  C   LIG    1        2.751   7.576  -2.434  0.00  0.00    +0.111 C 
ATOM     17  C   LIG    1        2.555   6.890  -1.092  0.00  0.00    -0.014 C 
ATOM     18  C   LIG    1        1.183   6.310  -0.824  0.00  0.00    +0.012 C 
ATOM     19  C   LIG    1        3.212   7.421   0.159  0.00  0.00    +0.012 C 
ATOM     20  C   LIG    1        3.368   6.211  -2.180  0.00  0.00    +0.032 C 
BRANCH  20  21
ATOM     21  C   LIG    1        4.831   6.073  -2.109  0.00  0.00    -0.023 C 
ATOM     22  C   LIG    1        5.524   5.185  -1.366  0.00  0.00    -0.079 C 
ATOM     23  C   LIG    1        7.029   5.151  -1.391  0.00  0.00    +0.038 C 
ATOM     24  C   LIG    1        4.888   4.172  -0.454  0.00  0.00    +0.038 C 
ENDBRANCH  20  21
ENDBRANCH  14  16
ENDBRANCH  13  14
ENDBRANCH   1  13
TORSDOF 5
ENDMDL
MODEL 6
REMARK VINA RESULT:      -6.9      8.386     10.251
REMARK  Name = 
REMARK                            x       y       z     vdW  Elec       q    Type
REMARK                         _______ _______ _______ _____ _____    ______ ____
ROOT
ATOM      1  C   LIG    1        8.939   2.837  -6.393  0.00  0.00    +0.352 C 
ENDROOT
BRANCH   1   4
ATOM      2  O   LIG    1        9.058   5.729  -6.588  0.00  0.00    -0.270 OA
ATOM      3  C   LIG    1        9.287   4.988  -7.527  0.00  0.00    +0.252 C 
ATOM      4  N   LIG    1        9.260   3.631  -7.560  0.00  0.00    -0.200 N 
ATOM      5  C   LIG    1        9.570   3.176  -8.804  0.00  0.00    +0.252 C 
ATOM      6  O   LIG    1        9.651   2.043  -9.240  0.00  0.00    -0.270 OA
ATOM      7  C   LIG    1        9.818   4.362  -9.630  0.00  0.00    +0.023 C 
ATOM      8  C   LIG    1       10.192   4.342 -11.053  0.00  0.00    +0.041 C 
ATOM      9  C   LIG    1       10.463   5.730 -11.646  0.00  0.00    +0.005 C 
ATOM     10  C   LIG    1       10.155   6.984 -10.806  0.00  0.00    +0.005 C 
ATOM     11  C   LIG    1        9.821   6.835  -9.313  0.00  0.00    +0.041 C 
ATOM     12  C   LIG    1        9.656   5.440  -8.872  0.00  0.00    +0.023 C 
ENDBRANCH   1   4
BRANCH   1  13
ATOM     13  O   LIG    1       10.126   2.308  -5.827  0.00  0.00    -0.444 OA
BRANCH  13  14
ATOM     14  C   LIG    1       10.541   2.906  -4.691  0.00  0.00    +0.313 C 
ATOM     15  O   LIG    1       10.496   4.105  -4.452  0.00  0.00    -0.250 OA
BRANCH  14  16
ATOM     16  C   LIG    1       11.015   1.881  -3.732  0.00  0.00    +0.111 C 
ATOM     17  C   LIG    1       12.284   1.952  -2.899  0.00  0.00    -0.014 C 
ATOM     18  C   LIG    1       12.228   1.314  -1.527  0.00  0.00    +0.012 C 
ATOM     19  C   LIG    1       13.173   3.170  -2.933  0.00  0.00    +0.012 C 
ATOM     20  C   LIG    1       12.204   1.002  -4.081  0.00  0.00    +0.032 C 
BRANCH  20  21
ATOM     21  C   LIG    1       12.939   1.232  -5.336  0.00  0.00    -0.023 C 
ATOM     22  C   LIG    1       14.254   1.026  -5.552  0.00  0.00    -0.079 C 
ATOM     23  C   LIG    1       14.878   1.301  -6.893  0.00  0.00    +0.038 C 
ATOM     24  C   LIG    1       15.211   0.522  -4.505  0.00  0.00    +0.038 C 
ENDBRANCH  20  21
ENDBRANCH  14  16
ENDBRANCH  13  14
ENDBRANCH   1  13
TORSDOF 5
ENDMDL
MODEL 7
REMARK VINA RESULT:      -6.9      5.117      7.448
REMARK  Name = 
REMARK                            x       y       z     vdW  Elec       q    Type
REMARK                         _______ _______ _______ _____ _____    ______ ____
ROOT
ATOM      1  C   LIG    1        8.605   6.682  -7.352  0.00  0.00    +0.352 C 
ENDROOT
BRANCH   1   4
ATOM      2  O   LIG    1        9.706   4.769  -9.233  0.00  0.00    -0.270 OA
ATOM      3  C   LIG    1        9.718   5.971  -9.422  0.00  0.00    +0.252 C 
ATOM      4  N   LIG    1        9.242   6.959  -8.621  0.00  0.00    -0.200 N 
ATOM      5  C   LIG    1        9.453   8.177  -9.187  0.00  0.00    +0.252 C 
ATOM      6  O   LIG    1        9.180   9.296  -8.793  0.00  0.00    -0.270 OA
ATOM      7  C   LIG    1       10.124   7.931 -10.467  0.00  0.00    +0.023 C 
ATOM      8  C   LIG    1       10.541   8.971 -11.421  0.00  0.00    +0.041 C 
ATOM      9  C   LIG    1       11.154   8.421 -12.715  0.00  0.00    +0.005 C 
ATOM     10  C   LIG    1       11.446   6.912 -12.831  0.00  0.00    +0.005 C 
ATOM     11  C   LIG    1       10.900   5.949 -11.765  0.00  0.00    +0.041 C 
ATOM     12  C   LIG    1       10.279   6.620 -10.612  0.00  0.00    +0.023 C 
ENDBRANCH   1   4
BRANCH   1  13
ATOM     13  O   LIG    1        7.230   7.020  -7.417  0.00  0.00    -0.444 OA
BRANCH  13  14
ATOM     14  C   LIG    1        6.432   6.367  -6.546  0.00  0.00    +0.313 C 
ATOM     15  O   LIG    1        6.791   5.524  -5.737  0.00  0.00    -0.250 OA
BRANCH  14  16
ATOM     16  C   LIG    1        5.043   6.868  -6.671  0.00  0.00    +0.111 C 
ATOM     17  C   LIG    1        4.529   8.213  -6.183  0.00  0.00    -0.014 C 
ATOM     18  C   LIG    1        3.437   8.858  -7.010  0.00  0.00    +0.012 C 
ATOM     19  C   LIG    1        5.459   9.226  -5.564  0.00  0.00    +0.012 C 
ATOM     20  C   LIG    1        4.146   6.941  -5.446  0.00  0.00    +0.032 C 
BRANCH  20  21
ATOM     21  C   LIG    1        4.689   6.597  -4.122  0.00  0.00    -0.023 C 
ATOM     22  C   LIG    1        3.983   6.307  -3.011  0.00  0.00    -0.079 C 
ATOM     23  C   LIG    1        4.670   5.966  -1.716  0.00  0.00    +0.038 C 
ATOM     24  C   LIG    1        2.479   6.300  -2.945  0.00  0.00    +0.038 C 
ENDBRANCH  20  21
ENDBRANCH  14  16
ENDBRANCH  13  14
ENDBRANCH   1  13
TORSDOF 5
ENDMDL
MODEL 8
REMARK VINA RESULT:      -6.9      8.099     10.787
REMARK  Name = 
REMARK                            x       y       z     vdW  Elec       q    Type
REMARK                         _______ _______ _______ _____ _____    ______ ____
ROOT
ATOM      1  C   LIG    1       10.236   2.253  -5.056  0.00  0.00    +0.352 C 
ENDROOT
BRANCH   1   4
ATOM      2  O   LIG    1       11.001   3.313  -2.467  0.00  0.00    -0.270 OA
ATOM      3  C   LIG    1       11.773   2.720  -3.198  0.00  0.00    +0.252 C 
ATOM      4  N   LIG    1       11.536   2.186  -4.424  0.00  0.00    -0.200 N 
ATOM      5  C   LIG    1       12.663   1.610  -4.921  0.00  0.00    +0.252 C 
ATOM      6  O   LIG    1       12.866   1.035  -5.974  0.00  0.00    -0.270 OA
ATOM      7  C   LIG    1       13.708   1.799  -3.909  0.00  0.00    +0.023 C 
ATOM      8  C   LIG    1       15.097   1.329  -4.025  0.00  0.00    +0.041 C 
ATOM      9  C   LIG    1       15.953   1.600  -2.782  0.00  0.00    +0.005 C 
ATOM     10  C   LIG    1       15.379   2.467  -1.644  0.00  0.00    +0.005 C 
ATOM     11  C   LIG    1       13.888   2.838  -1.650  0.00  0.00    +0.041 C 
ATOM     12  C   LIG    1       13.180   2.454  -2.882  0.00  0.00    +0.023 C 
ENDBRANCH   1   4
BRANCH   1  13
ATOM     13  O   LIG    1       10.158   3.402  -5.882  0.00  0.00    -0.444 OA
BRANCH  13  14
ATOM     14  C   LIG    1        9.188   4.283  -5.559  0.00  0.00    +0.313 C 
ATOM     15  O   LIG    1        8.406   4.178  -4.625  0.00  0.00    -0.250 OA
BRANCH  14  16
ATOM     16  C   LIG    1        9.244   5.445  -6.476  0.00  0.00    +0.111 C 
ATOM     17  C   LIG    1        8.099   5.974  -7.323  0.00  0.00    -0.014 C 
ATOM     18  C   LIG    1        8.059   7.471  -7.546  0.00  0.00    +0.012 C 
ATOM     19  C   LIG    1        6.720   5.366  -7.238  0.00  0.00    +0.012 C 
ATOM     20  C   LIG    1        9.248   5.230  -7.980  0.00  0.00    +0.032 C 
BRANCH  20  21
ATOM     21  C   LIG    1        9.106   3.869  -8.523  0.00  0.00    -0.023 C 
ATOM     22  C   LIG    1        9.485   3.443  -9.745  0.00  0.00    -0.079 C 
ATOM     23  C   LIG    1        9.283   2.015 -10.173  0.00  0.00    +0.038 C 
ATOM     24  C   LIG    1       10.123   4.325 -10.784  0.00  0.00    +0.038 C 
ENDBRANCH  20  21
ENDBRANCH  14  16
ENDBRANCH  13  14
ENDBRANCH   1  13
TORSDOF 5
ENDMDL
MODEL 9
REMARK VINA RESULT:      -6.9      4.882      7.036
REMARK  Name = 
REMARK                            x       y       z     vdW  Elec       q    Type
REMARK                         _______ _______ _______ _____ _____    ______ ____
ROOT
ATOM      1  C   LIG    1        8.151   9.228  -7.684  0.00  0.00    +0.352 C 
ENDROOT
BRANCH   1   4
ATOM      2  O   LIG    1        9.063  10.436 -10.158  0.00  0.00    -0.270 OA
ATOM      3  C   LIG    1        9.322   9.290  -9.842  0.00  0.00    +0.252 C 
ATOM      4  N   LIG    1        8.951   8.616  -8.722  0.00  0.00    -0.200 N 
ATOM      5  C   LIG    1        9.438   7.347  -8.745  0.00  0.00    +0.252 C 
ATOM      6  O   LIG    1        9.329   6.438  -7.943  0.00  0.00    -0.270 OA
ATOM      7  C   LIG    1       10.187   7.210  -9.998  0.00  0.00    +0.023 C 
ATOM      8  C   LIG    1       10.891   5.995 -10.439  0.00  0.00    +0.041 C 
ATOM      9  C   LIG    1       11.655   6.161 -11.758  0.00  0.00    +0.005 C 
ATOM     10  C   LIG    1       11.481   7.456 -12.574  0.00  0.00    +0.005 C 
ATOM     11  C   LIG    1       10.752   8.656 -11.949  0.00  0.00    +0.041 C 
ATOM     12  C   LIG    1       10.124   8.365 -10.650  0.00  0.00    +0.023 C 
ENDBRANCH   1   4
BRANCH   1  13
ATOM     13  O   LIG    1        7.087   8.365  -7.321  0.00  0.00    -0.444 OA
BRANCH  13  14
ATOM     14  C   LIG    1        6.121   8.923  -6.562  0.00  0.00    +0.313 C 
ATOM     15  O   LIG    1        6.275   9.832  -5.759  0.00  0.00    -0.250 OA
BRANCH  14  16
ATOM     16  C   LIG    1        4.813   8.308  -6.887  0.00  0.00    +0.111 C 
ATOM     17  C   LIG    1        3.477   8.657  -6.253  0.00  0.00    -0.014 C 
ATOM     18  C   LIG    1        2.259   8.560  -7.148  0.00  0.00    +0.012 C 
ATOM     19  C   LIG    1        3.361   9.766  -5.238  0.00  0.00    +0.012 C 
ATOM     20  C   LIG    1        4.160   7.344  -5.911  0.00  0.00    +0.032 C 
BRANCH  20  21
ATOM     21  C   LIG    1        4.787   7.093  -4.603  0.00  0.00    -0.023 C 
ATOM     22  C   LIG    1        4.169   6.690  -3.475  0.00  0.00    -0.079 C 
ATOM     23  C   LIG    1        4.937   6.466  -2.200  0.00  0.00    +0.038 C 
ATOM     24  C   LIG    1        2.689   6.437  -3.369  0.00  0.00    +0.038 C 
ENDBRANCH  20  21
ENDBRANCH  14  16
ENDBRANCH  13  14
ENDBRANCH   1  13
TORSDOF 5
ENDMDL
