MODEL 1
REMARK VINA RESULT:      -7.8      0.000      0.000
REMARK  Name = 
REMARK                            x       y       z     vdW  Elec       q    Type
REMARK                         _______ _______ _______ _____ _____    ______ ____
ROOT
ATOM      1  C   LIG    1       -0.212  31.455   6.596  0.00  0.00    +0.352 C 
ENDROOT
BRANCH   1   4
ATOM      2  O   LIG    1       -0.469  29.027   5.030  0.00  0.00    -0.270 OA
ATOM      3  C   LIG    1        0.590  29.415   5.488  0.00  0.00    +0.252 C 
ATOM      4  N   LIG    1        0.834  30.523   6.233  0.00  0.00    -0.200 N 
ATOM      5  C   LIG    1        2.153  30.600   6.557  0.00  0.00    +0.252 C 
ATOM      6  O   LIG    1        2.766  31.427   7.206  0.00  0.00    -0.270 OA
ATOM      7  C   LIG    1        2.799  29.429   5.955  0.00  0.00    +0.023 C 
ATOM      8  C   LIG    1        4.232  29.109   6.047  0.00  0.00    +0.041 C 
ATOM      9  C   LIG    1        4.644  27.861   5.258  0.00  0.00    +0.005 C 
ATOM     10  C   LIG    1        3.555  26.977   4.619  0.00  0.00    +0.005 C 
ATOM     11  C   LIG    1        2.103  27.479   4.566  0.00  0.00    +0.041 C 
ATOM     12  C   LIG    1        1.873  28.725   5.314  0.00  0.00    +0.023 C 
ENDBRANCH   1   4
BRANCH   1  13
ATOM     13  O   LIG    1        0.357  32.697   6.973  0.00  0.00    -0.444 OA
BRANCH  13  14
ATOM     14  C   LIG    1       -0.128  33.777   6.325  0.00  0.00    +0.313 C 
ATOM     15  O   LIG    1       -1.298  33.968   6.024  0.00  0.00    -0.250 OA
BRANCH  14  16
ATOM     16  C   LIG    1        0.968  34.742   6.076  0.00  0.00    +0.111 C 
ATOM     17  C   LIG    1        1.074  35.691   4.894  0.00  0.00    -0.014 C 
ATOM     18  C   LIG    1        1.727  37.031   5.161  0.00  0.00    +0.012 C 
ATOM     19  C   LIG    1       -0.023  35.778   3.862  0.00  0.00    +0.012 C 
ATOM     20  C   LIG    1        1.983  34.477   4.977  0.00  0.00    +0.032 C 
BRANCH  20  21
ATOM     21  C   LIG    1        1.822  33.305   4.102  0.00  0.00    -0.023 C 
ATOM     22  C   LIG    1        2.782  32.430   3.739  0.00  0.00    -0.079 C 
ATOM     23  C   LIG    1        2.478  31.265   2.837  0.00  0.00    +0.038 C 
ATOM     24  C   LIG    1        4.219  32.527   4.176  0.00  0.00    +0.038 C 
ENDBRANCH  20  21
ENDBRANCH  14  16
ENDBRANCH  13  14
ENDBRANCH   1  13
TORSDOF 5
ENDMDL
MODEL 2
REMARK VINA RESULT:      -7.7      0.434      1.852
REMARK  Name = 
REMARK                            x       y       z     vdW  Elec       q    Type
REMARK                         _______ _______ _______ _____ _____    ______ ____
ROOT
ATOM      1  C   LIG    1        0.436  31.679   6.995  0.00  0.00    +0.352 C 
ENDROOT
BRANCH   1   4
ATOM      2  O   LIG    1        3.312  31.319   7.124  0.00  0.00    -0.270 OA
ATOM      3  C   LIG    1        2.565  30.524   6.582  0.00  0.00    +0.252 C 
ATOM      4  N   LIG    1        1.214  30.585   6.455  0.00  0.00    -0.200 N 
ATOM      5  C   LIG    1        0.750  29.502   5.775  0.00  0.00    +0.252 C 
ATOM      6  O   LIG    1       -0.382  29.188   5.455  0.00  0.00    -0.270 OA
ATOM      7  C   LIG    1        1.921  28.683   5.446  0.00  0.00    +0.023 C 
ATOM      8  C   LIG    1        1.886  27.408   4.712  0.00  0.00    +0.041 C 
ATOM      9  C   LIG    1        3.254  26.730   4.576  0.00  0.00    +0.005 C 
ATOM     10  C   LIG    1        4.520  27.485   5.025  0.00  0.00    +0.005 C 
ATOM     11  C   LIG    1        4.383  28.790   5.825  0.00  0.00    +0.041 C 
ATOM     12  C   LIG    1        3.001  29.286   5.929  0.00  0.00    +0.023 C 
ENDBRANCH   1   4
BRANCH   1  13
ATOM     13  O   LIG    1        0.183  32.638   5.984  0.00  0.00    -0.444 OA
BRANCH  13  14
ATOM     14  C   LIG    1       -0.127  33.875   6.424  0.00  0.00    +0.313 C 
ATOM     15  O   LIG    1       -1.146  34.190   7.023  0.00  0.00    -0.250 OA
BRANCH  14  16
ATOM     16  C   LIG    1        0.988  34.804   6.127  0.00  0.00    +0.111 C 
ATOM     17  C   LIG    1        1.099  35.713   4.914  0.00  0.00    -0.014 C 
ATOM     18  C   LIG    1        1.789  37.043   5.127  0.00  0.00    +0.012 C 
ATOM     19  C   LIG    1       -0.013  35.794   3.897  0.00  0.00    +0.012 C 
ATOM     20  C   LIG    1        1.978  34.479   5.021  0.00  0.00    +0.032 C 
BRANCH  20  21
ATOM     21  C   LIG    1        1.774  33.283   4.188  0.00  0.00    -0.023 C 
ATOM     22  C   LIG    1        2.725  32.438   3.740  0.00  0.00    -0.079 C 
ATOM     23  C   LIG    1        2.374  31.244   2.894  0.00  0.00    +0.038 C 
ATOM     24  C   LIG    1        4.194  32.598   4.022  0.00  0.00    +0.038 C 
ENDBRANCH  20  21
ENDBRANCH  14  16
ENDBRANCH  13  14
ENDBRANCH   1  13
TORSDOF 5
ENDMDL
MODEL 3
REMARK VINA RESULT:      -6.7      1.414      6.105
REMARK  Name = 
REMARK                            x       y       z     vdW  Elec       q    Type
REMARK                         _______ _______ _______ _____ _____    ______ ____
ROOT
ATOM      1  C   LIG    1       -0.998  30.904   5.671  0.00  0.00    +0.352 C 
ENDROOT
BRANCH   1   4
ATOM      2  O   LIG    1        0.885  32.447   7.248  0.00  0.00    -0.270 OA
ATOM      3  C   LIG    1        0.375  32.864   6.225  0.00  0.00    +0.252 C 
ATOM      4  N   LIG    1       -0.516  32.243   5.410  0.00  0.00    -0.200 N 
ATOM      5  C   LIG    1       -0.853  33.049   4.367  0.00  0.00    +0.252 C 
ATOM      6  O   LIG    1       -1.611  32.867   3.433  0.00  0.00    -0.270 OA
ATOM      7  C   LIG    1       -0.099  34.295   4.544  0.00  0.00    +0.023 C 
ATOM      8  C   LIG    1       -0.153  35.455   3.641  0.00  0.00    +0.041 C 
ATOM      9  C   LIG    1        0.797  36.593   4.030  0.00  0.00    +0.005 C 
ATOM     10  C   LIG    1        1.555  36.520   5.370  0.00  0.00    +0.005 C 
ATOM     11  C   LIG    1        1.545  35.212   6.178  0.00  0.00    +0.041 C 
ATOM     12  C   LIG    1        0.635  34.186   5.645  0.00  0.00    +0.023 C 
ENDBRANCH   1   4
BRANCH   1  13
ATOM     13  O   LIG    1       -0.298  29.972   4.864  0.00  0.00    -0.444 OA
BRANCH  13  14
ATOM     14  C   LIG    1        0.668  29.271   5.494  0.00  0.00    +0.313 C 
ATOM     15  O   LIG    1        0.807  29.168   6.705  0.00  0.00    -0.250 OA
BRANCH  14  16
ATOM     16  C   LIG    1        1.517  28.583   4.494  0.00  0.00    +0.111 C 
ATOM     17  C   LIG    1        2.789  27.804   4.783  0.00  0.00    -0.014 C 
ATOM     18  C   LIG    1        3.064  26.607   3.897  0.00  0.00    +0.012 C 
ATOM     19  C   LIG    1        3.274  27.599   6.197  0.00  0.00    +0.012 C 
ATOM     20  C   LIG    1        2.869  29.164   4.113  0.00  0.00    +0.032 C 
BRANCH  20  21
ATOM     21  C   LIG    1        3.370  30.362   4.806  0.00  0.00    -0.023 C 
ATOM     22  C   LIG    1        3.267  31.640   4.386  0.00  0.00    -0.079 C 
ATOM     23  C   LIG    1        3.824  32.777   5.200  0.00  0.00    +0.038 C 
ATOM     24  C   LIG    1        2.613  32.053   3.095  0.00  0.00    +0.038 C 
ENDBRANCH  20  21
ENDBRANCH  14  16
ENDBRANCH  13  14
ENDBRANCH   1  13
TORSDOF 5
ENDMDL
MODEL 4
REMARK VINA RESULT:      -6.5      1.423      5.900
REMARK  Name = 
REMARK                            x       y       z     vdW  Elec       q    Type
REMARK                         _______ _______ _______ _____ _____    ______ ____
ROOT
ATOM      1  C   LIG    1       -1.040  30.925   5.584  0.00  0.00    +0.352 C 
ENDROOT
BRANCH   1   4
ATOM      2  O   LIG    1       -1.583  32.805   3.442  0.00  0.00    -0.270 OA
ATOM      3  C   LIG    1       -0.825  33.047   4.364  0.00  0.00    +0.252 C 
ATOM      4  N   LIG    1       -0.490  32.253   5.414  0.00  0.00    -0.200 N 
ATOM      5  C   LIG    1        0.397  32.886   6.228  0.00  0.00    +0.252 C 
ATOM      6  O   LIG    1        0.935  32.521   7.256  0.00  0.00    -0.270 OA
ATOM      7  C   LIG    1        0.639  34.205   5.634  0.00  0.00    +0.023 C 
ATOM      8  C   LIG    1        1.534  35.233   6.186  0.00  0.00    +0.041 C 
ATOM      9  C   LIG    1        1.537  36.547   5.396  0.00  0.00    +0.005 C 
ATOM     10  C   LIG    1        0.791  36.621   4.049  0.00  0.00    +0.005 C 
ATOM     11  C   LIG    1       -0.145  35.474   3.636  0.00  0.00    +0.041 C 
ATOM     12  C   LIG    1       -0.090  34.305   4.528  0.00  0.00    +0.023 C 
ENDBRANCH   1   4
BRANCH   1  13
ATOM     13  O   LIG    1       -0.313  29.996   4.799  0.00  0.00    -0.444 OA
BRANCH  13  14
ATOM     14  C   LIG    1        0.651  29.315   5.453  0.00  0.00    +0.313 C 
ATOM     15  O   LIG    1        0.780  29.241   6.667  0.00  0.00    -0.250 OA
BRANCH  14  16
ATOM     16  C   LIG    1        1.511  28.607   4.477  0.00  0.00    +0.111 C 
ATOM     17  C   LIG    1        2.771  27.819   4.798  0.00  0.00    -0.014 C 
ATOM     18  C   LIG    1        3.050  26.610   3.931  0.00  0.00    +0.012 C 
ATOM     19  C   LIG    1        3.228  27.627   6.223  0.00  0.00    +0.012 C 
ATOM     20  C   LIG    1        2.875  29.171   4.114  0.00  0.00    +0.032 C 
BRANCH  20  21
ATOM     21  C   LIG    1        3.375  30.372   4.801  0.00  0.00    -0.023 C 
ATOM     22  C   LIG    1        3.268  31.649   4.379  0.00  0.00    -0.079 C 
ATOM     23  C   LIG    1        3.824  32.789   5.188  0.00  0.00    +0.038 C 
ATOM     24  C   LIG    1        2.608  32.057   3.089  0.00  0.00    +0.038 C 
ENDBRANCH  20  21
ENDBRANCH  14  16
ENDBRANCH  13  14
ENDBRANCH   1  13
TORSDOF 5
ENDMDL
MODEL 5
REMARK VINA RESULT:      -6.3      1.052      2.613
REMARK  Name = 
REMARK                            x       y       z     vdW  Elec       q    Type
REMARK                         _______ _______ _______ _____ _____    ______ ____
ROOT
ATOM      1  C   LIG    1       -0.222  30.532   6.946  0.00  0.00    +0.352 C 
ENDROOT
BRANCH   1   4
ATOM      2  O   LIG    1       -0.191  28.293   5.102  0.00  0.00    -0.270 OA
ATOM      3  C   LIG    1        0.819  28.783   5.571  0.00  0.00    +0.252 C 
ATOM      4  N   LIG    1        0.932  29.821   6.440  0.00  0.00    -0.200 N 
ATOM      5  C   LIG    1        2.239  30.061   6.731  0.00  0.00    +0.252 C 
ATOM      6  O   LIG    1        2.753  30.890   7.458  0.00  0.00    -0.270 OA
ATOM      7  C   LIG    1        3.022  29.082   5.970  0.00  0.00    +0.023 C 
ATOM      8  C   LIG    1        4.489  28.977   5.978  0.00  0.00    +0.041 C 
ATOM      9  C   LIG    1        5.043  27.908   5.029  0.00  0.00    +0.005 C 
ATOM     10  C   LIG    1        4.068  26.948   4.320  0.00  0.00    +0.005 C 
ATOM     11  C   LIG    1        2.557  27.224   4.372  0.00  0.00    +0.041 C 
ATOM     12  C   LIG    1        2.180  28.324   5.275  0.00  0.00    +0.023 C 
ENDBRANCH   1   4
BRANCH   1  13
ATOM     13  O   LIG    1       -0.217  31.866   6.467  0.00  0.00    -0.444 OA
BRANCH  13  14
ATOM     14  C   LIG    1       -0.648  32.027   5.198  0.00  0.00    +0.313 C 
ATOM     15  O   LIG    1       -1.815  32.123   4.844  0.00  0.00    -0.250 OA
BRANCH  14  16
ATOM     16  C   LIG    1        0.514  32.130   4.286  0.00  0.00    +0.111 C 
ATOM     17  C   LIG    1        1.744  32.998   4.496  0.00  0.00    -0.014 C 
ATOM     18  C   LIG    1        3.055  32.448   3.974  0.00  0.00    +0.012 C 
ATOM     19  C   LIG    1        1.918  33.812   5.754  0.00  0.00    +0.012 C 
ATOM     20  C   LIG    1        0.715  33.381   3.447  0.00  0.00    +0.032 C 
BRANCH  20  21
ATOM     21  C   LIG    1       -0.198  34.524   3.609  0.00  0.00    -0.023 C 
ATOM     22  C   LIG    1        0.147  35.805   3.850  0.00  0.00    -0.079 C 
ATOM     23  C   LIG    1       -0.895  36.882   3.991  0.00  0.00    +0.038 C 
ATOM     24  C   LIG    1        1.566  36.281   4.007  0.00  0.00    +0.038 C 
ENDBRANCH  20  21
ENDBRANCH  14  16
ENDBRANCH  13  14
ENDBRANCH   1  13
TORSDOF 5
ENDMDL
MODEL 6
REMARK VINA RESULT:      -6.1      1.014      3.152
REMARK  Name = 
REMARK                            x       y       z     vdW  Elec       q    Type
REMARK                         _______ _______ _______ _____ _____    ______ ____
ROOT
ATOM      1  C   LIG    1       -0.082  30.777   7.000  0.00  0.00    +0.352 C 
ENDROOT
BRANCH   1   4
ATOM      2  O   LIG    1        2.782  31.020   7.386  0.00  0.00    -0.270 OA
ATOM      3  C   LIG    1        2.275  30.161   6.688  0.00  0.00    +0.252 C 
ATOM      4  N   LIG    1        0.959  29.950   6.428  0.00  0.00    -0.200 N 
ATOM      5  C   LIG    1        0.801  28.890   5.591  0.00  0.00    +0.252 C 
ATOM      6  O   LIG    1       -0.204  28.388   5.124  0.00  0.00    -0.270 OA
ATOM      7  C   LIG    1        2.147  28.386   5.299  0.00  0.00    +0.023 C 
ATOM      8  C   LIG    1        2.453  27.237   4.433  0.00  0.00    +0.041 C 
ATOM      9  C   LIG    1        3.945  26.887   4.367  0.00  0.00    +0.005 C 
ATOM     10  C   LIG    1        4.972  27.829   5.023  0.00  0.00    +0.005 C 
ATOM     11  C   LIG    1        4.487  28.962   5.940  0.00  0.00    +0.041 C 
ATOM     12  C   LIG    1        3.025  29.137   5.954  0.00  0.00    +0.023 C 
ENDBRANCH   1   4
BRANCH   1  13
ATOM     13  O   LIG    1       -0.070  32.058   6.395  0.00  0.00    -0.444 OA
BRANCH  13  14
ATOM     14  C   LIG    1       -0.456  32.092   5.103  0.00  0.00    +0.313 C 
ATOM     15  O   LIG    1       -1.609  32.052   4.697  0.00  0.00    -0.250 OA
BRANCH  14  16
ATOM     16  C   LIG    1        0.732  32.245   4.231  0.00  0.00    +0.111 C 
ATOM     17  C   LIG    1        1.917  33.162   4.486  0.00  0.00    -0.014 C 
ATOM     18  C   LIG    1        3.267  32.668   4.010  0.00  0.00    +0.012 C 
ATOM     19  C   LIG    1        2.014  33.979   5.750  0.00  0.00    +0.012 C 
ATOM     20  C   LIG    1        0.911  33.506   3.402  0.00  0.00    +0.032 C 
BRANCH  20  21
ATOM     21  C   LIG    1       -0.053  34.610   3.534  0.00  0.00    -0.023 C 
ATOM     22  C   LIG    1        0.221  35.885   3.879  0.00  0.00    -0.079 C 
ATOM     23  C   LIG    1       -0.867  36.920   3.973  0.00  0.00    +0.038 C 
ATOM     24  C   LIG    1        1.600  36.392   4.205  0.00  0.00    +0.038 C 
ENDBRANCH  20  21
ENDBRANCH  14  16
ENDBRANCH  13  14
ENDBRANCH   1  13
TORSDOF 5
ENDMDL
MODEL 7
REMARK VINA RESULT:      -6.1      1.548      5.371
REMARK  Name = 
REMARK                            x       y       z     vdW  Elec       q    Type
REMARK                         _______ _______ _______ _____ _____    ______ ____
ROOT
ATOM      1  C   LIG    1       -1.583  31.592   5.643  0.00  0.00    +0.352 C 
ENDROOT
BRANCH   1   4
ATOM      2  O   LIG    1       -0.643  32.622   3.098  0.00  0.00    -0.270 OA
ATOM      3  C   LIG    1       -0.409  33.163   4.163  0.00  0.00    +0.252 C 
ATOM      4  N   LIG    1       -0.786  32.778   5.410  0.00  0.00    -0.200 N 
ATOM      5  C   LIG    1       -0.317  33.650   6.342  0.00  0.00    +0.252 C 
ATOM      6  O   LIG    1       -0.433  33.659   7.553  0.00  0.00    -0.270 OA
ATOM      7  C   LIG    1        0.424  34.682   5.611  0.00  0.00    +0.023 C 
ATOM      8  C   LIG    1        1.103  35.835   6.223  0.00  0.00    +0.041 C 
ATOM      9  C   LIG    1        1.737  36.796   5.211  0.00  0.00    +0.005 C 
ATOM     10  C   LIG    1        1.779  36.404   3.721  0.00  0.00    +0.005 C 
ATOM     11  C   LIG    1        0.976  35.189   3.232  0.00  0.00    +0.041 C 
ATOM     12  C   LIG    1        0.367  34.398   4.315  0.00  0.00    +0.023 C 
ENDBRANCH   1   4
BRANCH   1  13
ATOM     13  O   LIG    1       -0.891  30.708   6.508  0.00  0.00    -0.444 OA
BRANCH  13  14
ATOM     14  C   LIG    1        0.180  30.090   5.968  0.00  0.00    +0.313 C 
ATOM     15  O   LIG    1        0.151  29.100   5.250  0.00  0.00    -0.250 OA
BRANCH  14  16
ATOM     16  C   LIG    1        1.414  30.827   6.327  0.00  0.00    +0.111 C 
ATOM     17  C   LIG    1        2.517  31.246   5.370  0.00  0.00    -0.014 C 
ATOM     18  C   LIG    1        3.222  32.549   5.682  0.00  0.00    +0.012 C 
ATOM     19  C   LIG    1        2.402  30.992   3.887  0.00  0.00    +0.012 C 
ATOM     20  C   LIG    1        2.753  30.108   6.347  0.00  0.00    +0.032 C 
BRANCH  20  21
ATOM     21  C   LIG    1        2.832  28.701   5.924  0.00  0.00    -0.023 C 
ATOM     22  C   LIG    1        3.902  28.077   5.390  0.00  0.00    -0.079 C 
ATOM     23  C   LIG    1        3.847  26.624   5.003  0.00  0.00    +0.038 C 
ATOM     24  C   LIG    1        5.223  28.748   5.124  0.00  0.00    +0.038 C 
ENDBRANCH  20  21
ENDBRANCH  14  16
ENDBRANCH  13  14
ENDBRANCH   1  13
TORSDOF 5
ENDMDL
MODEL 8
REMARK VINA RESULT:      -5.8      1.388      5.807
REMARK  Name = 
REMARK                            x       y       z     vdW  Elec       q    Type
REMARK                         _______ _______ _______ _____ _____    ______ ____
ROOT
ATOM      1  C   LIG    1        0.277  30.926   6.434  0.00  0.00    +0.352 C 
ENDROOT
BRANCH   1   4
ATOM      2  O   LIG    1       -1.808  32.269   4.928  0.00  0.00    -0.270 OA
ATOM      3  C   LIG    1       -0.758  32.804   5.236  0.00  0.00    +0.252 C 
ATOM      4  N   LIG    1        0.287  32.282   5.929  0.00  0.00    -0.200 N 
ATOM      5  C   LIG    1        1.280  33.201   6.060  0.00  0.00    +0.252 C 
ATOM      6  O   LIG    1        2.367  33.127   6.603  0.00  0.00    -0.270 OA
ATOM      7  C   LIG    1        0.814  34.417   5.386  0.00  0.00    +0.023 C 
ATOM      8  C   LIG    1        1.572  35.674   5.284  0.00  0.00    +0.041 C 
ATOM      9  C   LIG    1        0.808  36.807   4.588  0.00  0.00    +0.005 C 
ATOM     10  C   LIG    1       -0.545  36.505   3.915  0.00  0.00    +0.005 C 
ATOM     11  C   LIG    1       -1.229  35.150   4.159  0.00  0.00    +0.041 C 
ATOM     12  C   LIG    1       -0.400  34.185   4.900  0.00  0.00    +0.023 C 
ENDBRANCH   1   4
BRANCH   1  13
ATOM     13  O   LIG    1        1.267  30.776   7.437  0.00  0.00    -0.444 OA
BRANCH  13  14
ATOM     14  C   LIG    1        2.336  30.030   7.088  0.00  0.00    +0.313 C 
ATOM     15  O   LIG    1        3.386  29.946   7.710  0.00  0.00    -0.250 OA
BRANCH  14  16
ATOM     16  C   LIG    1        2.031  29.269   5.855  0.00  0.00    +0.111 C 
ATOM     17  C   LIG    1        3.001  28.389   5.083  0.00  0.00    -0.014 C 
ATOM     18  C   LIG    1        2.413  27.168   4.407  0.00  0.00    +0.012 C 
ATOM     19  C   LIG    1        4.406  28.153   5.580  0.00  0.00    +0.012 C 
ATOM     20  C   LIG    1        2.581  29.734   4.516  0.00  0.00    +0.032 C 
BRANCH  20  21
ATOM     21  C   LIG    1        3.489  30.891   4.462  0.00  0.00    -0.023 C 
ATOM     22  C   LIG    1        3.334  32.005   3.719  0.00  0.00    -0.079 C 
ATOM     23  C   LIG    1        4.344  33.120   3.763  0.00  0.00    +0.038 C 
ATOM     24  C   LIG    1        2.176  32.243   2.788  0.00  0.00    +0.038 C 
ENDBRANCH  20  21
ENDBRANCH  14  16
ENDBRANCH  13  14
ENDBRANCH   1  13
TORSDOF 5
ENDMDL
MODEL 9
REMARK VINA RESULT:      -5.3      1.927      3.702
REMARK  Name = 
REMARK                            x       y       z     vdW  Elec       q    Type
REMARK                         _______ _______ _______ _____ _____    ______ ____
ROOT
ATOM      1  C   LIG    1        3.408  33.182   4.105  0.00  0.00    +0.352 C 
ENDROOT
BRANCH   1   4
ATOM      2  O   LIG    1        5.285  31.421   5.443  0.00  0.00    -0.270 OA
ATOM      3  C   LIG    1        4.250  31.029   4.935  0.00  0.00    +0.252 C 
ATOM      4  N   LIG    1        3.302  31.750   4.283  0.00  0.00    -0.200 N 
ATOM      5  C   LIG    1        2.296  30.940   3.855  0.00  0.00    +0.252 C 
ATOM      6  O   LIG    1        1.278  31.193   3.239  0.00  0.00    -0.270 OA
ATOM      7  C   LIG    1        2.645  29.581   4.282  0.00  0.00    +0.023 C 
ATOM      8  C   LIG    1        1.834  28.379   4.035  0.00  0.00    +0.041 C 
ATOM      9  C   LIG    1        2.407  27.101   4.661  0.00  0.00    +0.005 C 
ATOM     10  C   LIG    1        3.808  27.136   5.302  0.00  0.00    +0.005 C 
ATOM     11  C   LIG    1        4.506  28.486   5.530  0.00  0.00    +0.041 C 
ATOM     12  C   LIG    1        3.804  29.632   4.929  0.00  0.00    +0.023 C 
ENDBRANCH   1   4
BRANCH   1  13
ATOM     13  O   LIG    1        2.121  33.740   3.899  0.00  0.00    -0.444 OA
BRANCH  13  14
ATOM     14  C   LIG    1        1.535  34.264   4.995  0.00  0.00    +0.313 C 
ATOM     15  O   LIG    1        2.032  35.088   5.750  0.00  0.00    -0.250 OA
BRANCH  14  16
ATOM     16  C   LIG    1        0.158  33.736   5.125  0.00  0.00    +0.111 C 
ATOM     17  C   LIG    1       -0.731  33.842   6.353  0.00  0.00    -0.014 C 
ATOM     18  C   LIG    1       -2.218  33.980   6.101  0.00  0.00    +0.012 C 
ATOM     19  C   LIG    1       -0.280  34.597   7.579  0.00  0.00    +0.012 C 
ATOM     20  C   LIG    1       -0.111  32.508   5.978  0.00  0.00    +0.032 C 
BRANCH  20  21
ATOM     21  C   LIG    1        0.987  31.898   6.746  0.00  0.00    -0.023 C 
ATOM     22  C   LIG    1        1.054  30.626   7.189  0.00  0.00    -0.079 C 
ATOM     23  C   LIG    1        2.245  30.131   7.964  0.00  0.00    +0.038 C 
ATOM     24  C   LIG    1       -0.024  29.599   6.970  0.00  0.00    +0.038 C 
ENDBRANCH  20  21
ENDBRANCH  14  16
ENDBRANCH  13  14
ENDBRANCH   1  13
TORSDOF 5
ENDMDL
