MODEL 1
REMARK VINA RESULT:      -8.3      0.000      0.000
REMARK  Name = 
REMARK                            x       y       z     vdW  Elec       q    Type
REMARK                         _______ _______ _______ _____ _____    ______ ____
ROOT
ATOM      1  C   LIG    1      -45.052  10.902 -43.332  0.00  0.00    +0.352 C 
ENDROOT
BRANCH   1   4
ATOM      2  O   LIG    1      -45.796   9.611 -40.843  0.00  0.00    -0.270 OA
ATOM      3  C   LIG    1      -46.504  10.424 -41.408  0.00  0.00    +0.252 C 
ATOM      4  N   LIG    1      -46.269  11.087 -42.570  0.00  0.00    -0.200 N 
ATOM      5  C   LIG    1      -47.311  11.907 -42.871  0.00  0.00    +0.252 C 
ATOM      6  O   LIG    1      -47.487  12.657 -43.813  0.00  0.00    -0.270 OA
ATOM      7  C   LIG    1      -48.293  11.745 -41.795  0.00  0.00    +0.023 C 
ATOM      8  C   LIG    1      -49.582  12.450 -41.708  0.00  0.00    +0.041 C 
ATOM      9  C   LIG    1      -50.376  12.142 -40.433  0.00  0.00    +0.005 C 
ATOM     10  C   LIG    1      -49.881  11.035 -39.483  0.00  0.00    +0.005 C 
ATOM     11  C   LIG    1      -48.484  10.428 -39.686  0.00  0.00    +0.041 C 
ATOM     12  C   LIG    1      -47.814  10.868 -40.921  0.00  0.00    +0.023 C 
ENDBRANCH   1   4
BRANCH   1  13
ATOM     13  O   LIG    1      -44.053  11.796 -42.873  0.00  0.00    -0.444 OA
BRANCH  13  14
ATOM     14  C   LIG    1      -43.737  12.796 -43.722  0.00  0.00    +0.313 C 
ATOM     15  O   LIG    1      -44.370  13.119 -44.717  0.00  0.00    -0.250 OA
BRANCH  14  16
ATOM     16  C   LIG    1      -42.526  13.497 -43.237  0.00  0.00    +0.111 C 
ATOM     17  C   LIG    1      -41.735  14.549 -43.997  0.00  0.00    -0.014 C 
ATOM     18  C   LIG    1      -41.097  15.644 -43.168  0.00  0.00    +0.012 C 
ATOM     19  C   LIG    1      -42.188  15.039 -45.350  0.00  0.00    +0.012 C 
ATOM     20  C   LIG    1      -41.163  13.154 -43.815  0.00  0.00    +0.032 C 
BRANCH  20  21
ATOM     21  C   LIG    1      -41.061  12.188 -44.920  0.00  0.00    -0.023 C 
ATOM     22  C   LIG    1      -40.118  12.157 -45.883  0.00  0.00    -0.079 C 
ATOM     23  C   LIG    1      -40.131  11.104 -46.957  0.00  0.00    +0.038 C 
ATOM     24  C   LIG    1      -38.990  13.148 -45.989  0.00  0.00    +0.038 C 
ENDBRANCH  20  21
ENDBRANCH  14  16
ENDBRANCH  13  14
ENDBRANCH   1  13
TORSDOF 5
ENDMDL
MODEL 2
REMARK VINA RESULT:      -8.2      3.325      5.700
REMARK  Name = 
REMARK                            x       y       z     vdW  Elec       q    Type
REMARK                         _______ _______ _______ _____ _____    ______ ____
ROOT
ATOM      1  C   LIG    1      -45.646  12.049 -44.201  0.00  0.00    +0.352 C 
ENDROOT
BRANCH   1   4
ATOM      2  O   LIG    1      -48.390  12.823 -43.665  0.00  0.00    -0.270 OA
ATOM      3  C   LIG    1      -47.745  12.103 -42.925  0.00  0.00    +0.252 C 
ATOM      4  N   LIG    1      -46.463  11.677 -43.065  0.00  0.00    -0.200 N 
ATOM      5  C   LIG    1      -46.104  10.888 -42.018  0.00  0.00    +0.252 C 
ATOM      6  O   LIG    1      -45.057  10.320 -41.771  0.00  0.00    -0.270 OA
ATOM      7  C   LIG    1      -47.274  10.808 -41.137  0.00  0.00    +0.023 C 
ATOM      8  C   LIG    1      -47.338  10.050 -39.877  0.00  0.00    +0.041 C 
ATOM      9  C   LIG    1      -48.713  10.084 -39.199  0.00  0.00    +0.005 C 
ATOM     10  C   LIG    1      -49.808  11.013 -39.757  0.00  0.00    +0.005 C 
ATOM     11  C   LIG    1      -49.602  11.701 -41.115  0.00  0.00    +0.041 C 
ATOM     12  C   LIG    1      -48.253  11.525 -41.677  0.00  0.00    +0.023 C 
ENDBRANCH   1   4
BRANCH   1  13
ATOM     13  O   LIG    1      -45.917  11.188 -45.294  0.00  0.00    -0.444 OA
BRANCH  13  14
ATOM     14  C   LIG    1      -45.145  10.084 -45.366  0.00  0.00    +0.313 C 
ATOM     15  O   LIG    1      -44.056   9.933 -44.829  0.00  0.00    -0.250 OA
BRANCH  14  16
ATOM     16  C   LIG    1      -45.840   9.040 -46.154  0.00  0.00    +0.111 C 
ATOM     17  C   LIG    1      -47.344   8.863 -46.277  0.00  0.00    -0.014 C 
ATOM     18  C   LIG    1      -47.857   8.346 -47.605  0.00  0.00    +0.012 C 
ATOM     19  C   LIG    1      -48.299   9.833 -45.627  0.00  0.00    +0.012 C 
ATOM     20  C   LIG    1      -46.530   7.885 -45.448  0.00  0.00    +0.032 C 
BRANCH  20  21
ATOM     21  C   LIG    1      -46.582   7.854 -43.978  0.00  0.00    -0.023 C 
ATOM     22  C   LIG    1      -46.181   6.847 -43.176  0.00  0.00    -0.079 C 
ATOM     23  C   LIG    1      -46.288   6.951 -41.678  0.00  0.00    +0.038 C 
ATOM     24  C   LIG    1      -45.608   5.549 -43.676  0.00  0.00    +0.038 C 
ENDBRANCH  20  21
ENDBRANCH  14  16
ENDBRANCH  13  14
ENDBRANCH   1  13
TORSDOF 5
ENDMDL
MODEL 3
REMARK VINA RESULT:      -8.1      2.022      7.920
REMARK  Name = 
REMARK                            x       y       z     vdW  Elec       q    Type
REMARK                         _______ _______ _______ _____ _____    ______ ____
ROOT
ATOM      1  C   LIG    1      -43.910  10.282 -44.110  0.00  0.00    +0.352 C 
ENDROOT
BRANCH   1   4
ATOM      2  O   LIG    1      -41.797  10.921 -45.992  0.00  0.00    -0.270 OA
ATOM      3  C   LIG    1      -42.129  11.664 -45.087  0.00  0.00    +0.252 C 
ATOM      4  N   LIG    1      -43.092  11.475 -44.148  0.00  0.00    -0.200 N 
ATOM      5  C   LIG    1      -43.150  12.540 -43.303  0.00  0.00    +0.252 C 
ATOM      6  O   LIG    1      -43.865  12.755 -42.342  0.00  0.00    -0.270 OA
ATOM      7  C   LIG    1      -42.128  13.488 -43.757  0.00  0.00    +0.023 C 
ATOM      8  C   LIG    1      -41.841  14.789 -43.133  0.00  0.00    +0.041 C 
ATOM      9  C   LIG    1      -40.769  15.607 -43.864  0.00  0.00    +0.005 C 
ATOM     10  C   LIG    1      -39.981  14.960 -45.019  0.00  0.00    +0.005 C 
ATOM     11  C   LIG    1      -40.439  13.608 -45.587  0.00  0.00    +0.041 C 
ATOM     12  C   LIG    1      -41.522  12.972 -44.820  0.00  0.00    +0.023 C 
ENDBRANCH   1   4
BRANCH   1  13
ATOM     13  O   LIG    1      -45.203  10.566 -44.618  0.00  0.00    -0.444 OA
BRANCH  13  14
ATOM     14  C   LIG    1      -46.217  10.403 -43.743  0.00  0.00    +0.313 C 
ATOM     15  O   LIG    1      -47.251  11.055 -43.712  0.00  0.00    -0.250 OA
BRANCH  14  16
ATOM     16  C   LIG    1      -45.921   9.262 -42.845  0.00  0.00    +0.111 C 
ATOM     17  C   LIG    1      -46.709   7.965 -42.755  0.00  0.00    -0.014 C 
ATOM     18  C   LIG    1      -45.915   6.714 -42.442  0.00  0.00    +0.012 C 
ATOM     19  C   LIG    1      -47.875   7.695 -43.674  0.00  0.00    +0.012 C 
ATOM     20  C   LIG    1      -46.806   8.991 -41.640  0.00  0.00    +0.032 C 
BRANCH  20  21
ATOM     21  C   LIG    1      -48.008   9.811 -41.418  0.00  0.00    -0.023 C 
ATOM     22  C   LIG    1      -48.590  10.086 -40.233  0.00  0.00    -0.079 C 
ATOM     23  C   LIG    1      -49.822  10.948 -40.149  0.00  0.00    +0.038 C 
ATOM     24  C   LIG    1      -48.093   9.572 -38.909  0.00  0.00    +0.038 C 
ENDBRANCH  20  21
ENDBRANCH  14  16
ENDBRANCH  13  14
ENDBRANCH   1  13
TORSDOF 5
ENDMDL
MODEL 4
REMARK VINA RESULT:      -8.1      3.351      5.447
REMARK  Name = 
REMARK                            x       y       z     vdW  Elec       q    Type
REMARK                         _______ _______ _______ _____ _____    ______ ____
ROOT
ATOM      1  C   LIG    1      -45.586  11.878 -44.107  0.00  0.00    +0.352 C 
ENDROOT
BRANCH   1   4
ATOM      2  O   LIG    1      -45.162  10.272 -41.728  0.00  0.00    -0.270 OA
ATOM      3  C   LIG    1      -46.208  10.850 -41.964  0.00  0.00    +0.252 C 
ATOM      4  N   LIG    1      -46.525  11.621 -43.036  0.00  0.00    -0.200 N 
ATOM      5  C   LIG    1      -47.800  12.083 -42.932  0.00  0.00    +0.252 C 
ATOM      6  O   LIG    1      -48.452  12.792 -43.675  0.00  0.00    -0.270 OA
ATOM      7  C   LIG    1      -48.333  11.553 -41.673  0.00  0.00    +0.023 C 
ATOM      8  C   LIG    1      -49.686  11.804 -41.152  0.00  0.00    +0.041 C 
ATOM      9  C   LIG    1      -49.947  11.185 -39.774  0.00  0.00    +0.005 C 
ATOM     10  C   LIG    1      -48.899  10.238 -39.159  0.00  0.00    +0.005 C 
ATOM     11  C   LIG    1      -47.509  10.121 -39.806  0.00  0.00    +0.041 C 
ATOM     12  C   LIG    1      -47.387  10.824 -41.093  0.00  0.00    +0.023 C 
ENDBRANCH   1   4
BRANCH   1  13
ATOM     13  O   LIG    1      -45.875  11.042 -45.215  0.00  0.00    -0.444 OA
BRANCH  13  14
ATOM     14  C   LIG    1      -45.168   9.894 -45.274  0.00  0.00    +0.313 C 
ATOM     15  O   LIG    1      -44.106   9.675 -44.710  0.00  0.00    -0.250 OA
BRANCH  14  16
ATOM     16  C   LIG    1      -45.904   8.898 -46.087  0.00  0.00    +0.111 C 
ATOM     17  C   LIG    1      -47.411   8.827 -46.270  0.00  0.00    -0.014 C 
ATOM     18  C   LIG    1      -47.906   8.341 -47.615  0.00  0.00    +0.012 C 
ATOM     19  C   LIG    1      -48.320   9.866 -45.661  0.00  0.00    +0.012 C 
ATOM     20  C   LIG    1      -46.702   7.798 -45.406  0.00  0.00    +0.032 C 
BRANCH  20  21
ATOM     21  C   LIG    1      -46.815   7.780 -43.939  0.00  0.00    -0.023 C 
ATOM     22  C   LIG    1      -46.207   6.923 -43.093  0.00  0.00    -0.079 C 
ATOM     23  C   LIG    1      -46.408   7.021 -41.605  0.00  0.00    +0.038 C 
ATOM     24  C   LIG    1      -45.297   5.808 -43.532  0.00  0.00    +0.038 C 
ENDBRANCH  20  21
ENDBRANCH  14  16
ENDBRANCH  13  14
ENDBRANCH   1  13
TORSDOF 5
ENDMDL
MODEL 5
REMARK VINA RESULT:      -8.1      2.075      7.935
REMARK  Name = 
REMARK                            x       y       z     vdW  Elec       q    Type
REMARK                         _______ _______ _______ _____ _____    ______ ____
ROOT
ATOM      1  C   LIG    1      -43.735  10.211 -44.019  0.00  0.00    +0.352 C 
ENDROOT
BRANCH   1   4
ATOM      2  O   LIG    1      -43.842  12.654 -42.457  0.00  0.00    -0.270 OA
ATOM      3  C   LIG    1      -43.060  12.483 -43.375  0.00  0.00    +0.252 C 
ATOM      4  N   LIG    1      -42.919  11.395 -44.175  0.00  0.00    -0.200 N 
ATOM      5  C   LIG    1      -41.934  11.601 -45.091  0.00  0.00    +0.252 C 
ATOM      6  O   LIG    1      -41.507  10.882 -45.975  0.00  0.00    -0.270 OA
ATOM      7  C   LIG    1      -41.405  12.945 -44.840  0.00  0.00    +0.023 C 
ATOM      8  C   LIG    1      -40.317  13.584 -45.597  0.00  0.00    +0.041 C 
ATOM      9  C   LIG    1      -39.918  14.967 -45.067  0.00  0.00    +0.005 C 
ATOM     10  C   LIG    1      -40.767  15.628 -43.964  0.00  0.00    +0.005 C 
ATOM     11  C   LIG    1      -41.842  14.804 -43.237  0.00  0.00    +0.041 C 
ATOM     12  C   LIG    1      -42.069  13.470 -43.817  0.00  0.00    +0.023 C 
ENDBRANCH   1   4
BRANCH   1  13
ATOM     13  O   LIG    1      -45.025  10.438 -44.561  0.00  0.00    -0.444 OA
BRANCH  13  14
ATOM     14  C   LIG    1      -46.050  10.303 -43.694  0.00  0.00    +0.313 C 
ATOM     15  O   LIG    1      -47.061  10.990 -43.665  0.00  0.00    -0.250 OA
BRANCH  14  16
ATOM     16  C   LIG    1      -45.799   9.146 -42.803  0.00  0.00    +0.111 C 
ATOM     17  C   LIG    1      -46.617   7.866 -42.745  0.00  0.00    -0.014 C 
ATOM     18  C   LIG    1      -45.859   6.594 -42.429  0.00  0.00    +0.012 C 
ATOM     19  C   LIG    1      -47.768   7.633 -43.692  0.00  0.00    +0.012 C 
ATOM     20  C   LIG    1      -46.717   8.882 -41.621  0.00  0.00    +0.032 C 
BRANCH  20  21
ATOM     21  C   LIG    1      -47.905   9.726 -41.416  0.00  0.00    -0.023 C 
ATOM     22  C   LIG    1      -48.509   9.999 -40.241  0.00  0.00    -0.079 C 
ATOM     23  C   LIG    1      -49.723  10.887 -40.175  0.00  0.00    +0.038 C 
ATOM     24  C   LIG    1      -48.056   9.454 -38.914  0.00  0.00    +0.038 C 
ENDBRANCH  20  21
ENDBRANCH  14  16
ENDBRANCH  13  14
ENDBRANCH   1  13
TORSDOF 5
ENDMDL
MODEL 6
REMARK VINA RESULT:      -7.9      1.281      3.066
REMARK  Name = 
REMARK                            x       y       z     vdW  Elec       q    Type
REMARK                         _______ _______ _______ _____ _____    ______ ____
ROOT
ATOM      1  C   LIG    1      -45.690  10.120 -43.718  0.00  0.00    +0.352 C 
ENDROOT
BRANCH   1   4
ATOM      2  O   LIG    1      -47.344  12.463 -44.155  0.00  0.00    -0.270 OA
ATOM      3  C   LIG    1      -47.493  11.709 -43.211  0.00  0.00    +0.252 C 
ATOM      4  N   LIG    1      -46.785  10.592 -42.899  0.00  0.00    -0.200 N 
ATOM      5  C   LIG    1      -47.260  10.030 -41.756  0.00  0.00    +0.252 C 
ATOM      6  O   LIG    1      -46.903   9.036 -41.150  0.00  0.00    -0.270 OA
ATOM      7  C   LIG    1      -48.373  10.872 -41.308  0.00  0.00    +0.023 C 
ATOM      8  C   LIG    1      -49.188  10.634 -40.105  0.00  0.00    +0.041 C 
ATOM      9  C   LIG    1      -50.334  11.635 -39.921  0.00  0.00    +0.005 C 
ATOM     10  C   LIG    1      -50.426  12.859 -40.853  0.00  0.00    +0.005 C 
ATOM     11  C   LIG    1      -49.529  12.935 -42.098  0.00  0.00    +0.041 C 
ATOM     12  C   LIG    1      -48.518  11.868 -42.174  0.00  0.00    +0.023 C 
ENDBRANCH   1   4
BRANCH   1  13
ATOM     13  O   LIG    1      -44.453  10.464 -43.116  0.00  0.00    -0.444 OA
BRANCH  13  14
ATOM     14  C   LIG    1      -44.081  11.753 -43.254  0.00  0.00    +0.313 C 
ATOM     15  O   LIG    1      -43.888  12.546 -42.343  0.00  0.00    -0.250 OA
BRANCH  14  16
ATOM     16  C   LIG    1      -43.876  12.062 -44.689  0.00  0.00    +0.111 C 
ATOM     17  C   LIG    1      -42.570  11.936 -45.455  0.00  0.00    -0.014 C 
ATOM     18  C   LIG    1      -42.678  11.535 -46.911  0.00  0.00    +0.012 C 
ATOM     19  C   LIG    1      -41.328  11.389 -44.795  0.00  0.00    +0.012 C 
ATOM     20  C   LIG    1      -43.111  13.309 -45.098  0.00  0.00    +0.032 C 
BRANCH  20  21
ATOM     21  C   LIG    1      -42.498  14.161 -44.067  0.00  0.00    -0.023 C 
ATOM     22  C   LIG    1      -41.419  14.957 -44.213  0.00  0.00    -0.079 C 
ATOM     23  C   LIG    1      -40.897  15.784 -43.069  0.00  0.00    +0.038 C 
ATOM     24  C   LIG    1      -40.640  15.094 -45.494  0.00  0.00    +0.038 C 
ENDBRANCH  20  21
ENDBRANCH  14  16
ENDBRANCH  13  14
ENDBRANCH   1  13
TORSDOF 5
ENDMDL
MODEL 7
REMARK VINA RESULT:      -7.9      3.942      6.243
REMARK  Name = 
REMARK                            x       y       z     vdW  Elec       q    Type
REMARK                         _______ _______ _______ _____ _____    ______ ____
ROOT
ATOM      1  C   LIG    1      -46.247  12.144 -44.764  0.00  0.00    +0.352 C 
ENDROOT
BRANCH   1   4
ATOM      2  O   LIG    1      -48.839  12.753 -43.612  0.00  0.00    -0.270 OA
ATOM      3  C   LIG    1      -48.031  12.014 -43.080  0.00  0.00    +0.252 C 
ATOM      4  N   LIG    1      -46.794  11.659 -43.516  0.00  0.00    -0.200 N 
ATOM      5  C   LIG    1      -46.199  10.817 -42.629  0.00  0.00    +0.252 C 
ATOM      6  O   LIG    1      -45.106  10.282 -42.650  0.00  0.00    -0.270 OA
ATOM      7  C   LIG    1      -47.154  10.623 -41.533  0.00  0.00    +0.023 C 
ATOM      8  C   LIG    1      -46.928   9.778 -40.350  0.00  0.00    +0.041 C 
ATOM      9  C   LIG    1      -48.129   9.702 -39.400  0.00  0.00    +0.005 C 
ATOM     10  C   LIG    1      -49.345  10.616 -39.644  0.00  0.00    +0.005 C 
ATOM     11  C   LIG    1      -49.451  11.404 -40.959  0.00  0.00    +0.041 C 
ATOM     12  C   LIG    1      -48.246  11.329 -41.801  0.00  0.00    +0.023 C 
ENDBRANCH   1   4
BRANCH   1  13
ATOM     13  O   LIG    1      -45.891  11.052 -45.594  0.00  0.00    -0.444 OA
BRANCH  13  14
ATOM     14  C   LIG    1      -46.820  10.688 -46.503  0.00  0.00    +0.313 C 
ATOM     15  O   LIG    1      -46.872  11.064 -47.665  0.00  0.00    -0.250 OA
BRANCH  14  16
ATOM     16  C   LIG    1      -47.750   9.706 -45.900  0.00  0.00    +0.111 C 
ATOM     17  C   LIG    1      -47.403   8.290 -45.469  0.00  0.00    -0.014 C 
ATOM     18  C   LIG    1      -48.139   7.752 -44.261  0.00  0.00    +0.012 C 
ATOM     19  C   LIG    1      -45.989   7.771 -45.563  0.00  0.00    +0.012 C 
ATOM     20  C   LIG    1      -48.241   8.521 -46.714  0.00  0.00    +0.032 C 
BRANCH  20  21
ATOM     21  C   LIG    1      -47.720   8.304 -48.074  0.00  0.00    -0.023 C 
ATOM     22  C   LIG    1      -48.425   7.916 -49.156  0.00  0.00    -0.079 C 
ATOM     23  C   LIG    1      -47.762   7.735 -50.496  0.00  0.00    +0.038 C 
ATOM     24  C   LIG    1      -49.901   7.624 -49.141  0.00  0.00    +0.038 C 
ENDBRANCH  20  21
ENDBRANCH  14  16
ENDBRANCH  13  14
ENDBRANCH   1  13
TORSDOF 5
ENDMDL
MODEL 8
REMARK VINA RESULT:      -7.6      0.923      2.045
REMARK  Name = 
REMARK                            x       y       z     vdW  Elec       q    Type
REMARK                         _______ _______ _______ _____ _____    ______ ____
ROOT
ATOM      1  C   LIG    1      -44.874  10.312 -44.049  0.00  0.00    +0.352 C 
ENDROOT
BRANCH   1   4
ATOM      2  O   LIG    1      -46.778  12.494 -44.221  0.00  0.00    -0.270 OA
ATOM      3  C   LIG    1      -46.847  11.614 -43.381  0.00  0.00    +0.252 C 
ATOM      4  N   LIG    1      -46.020  10.553 -43.198  0.00  0.00    -0.200 N 
ATOM      5  C   LIG    1      -46.434   9.801 -42.144  0.00  0.00    +0.252 C 
ATOM      6  O   LIG    1      -45.971   8.784 -41.660  0.00  0.00    -0.270 OA
ATOM      7  C   LIG    1      -47.637  10.451 -41.615  0.00  0.00    +0.023 C 
ATOM      8  C   LIG    1      -48.425   9.975 -40.468  0.00  0.00    +0.041 C 
ATOM      9  C   LIG    1      -49.678  10.811 -40.182  0.00  0.00    +0.005 C 
ATOM     10  C   LIG    1      -49.902  12.126 -40.954  0.00  0.00    +0.005 C 
ATOM     11  C   LIG    1      -49.013  12.457 -42.163  0.00  0.00    +0.041 C 
ATOM     12  C   LIG    1      -47.888  11.527 -42.352  0.00  0.00    +0.023 C 
ENDBRANCH   1   4
BRANCH   1  13
ATOM     13  O   LIG    1      -43.753  11.032 -43.565  0.00  0.00    -0.444 OA
BRANCH  13  14
ATOM     14  C   LIG    1      -43.307  12.018 -44.372  0.00  0.00    +0.313 C 
ATOM     15  O   LIG    1      -43.701  12.252 -45.505  0.00  0.00    -0.250 OA
BRANCH  14  16
ATOM     16  C   LIG    1      -42.295  12.828 -43.655  0.00  0.00    +0.111 C 
ATOM     17  C   LIG    1      -41.837  14.228 -44.032  0.00  0.00    -0.014 C 
ATOM     18  C   LIG    1      -41.464  15.147 -42.888  0.00  0.00    +0.012 C 
ATOM     19  C   LIG    1      -42.464  14.969 -45.188  0.00  0.00    +0.012 C 
ATOM     20  C   LIG    1      -40.919  13.041 -44.264  0.00  0.00    +0.032 C 
BRANCH  20  21
ATOM     21  C   LIG    1      -40.625  12.515 -45.606  0.00  0.00    -0.023 C 
ATOM     22  C   LIG    1      -39.845  11.456 -45.906  0.00  0.00    -0.079 C 
ATOM     23  C   LIG    1      -39.632  11.021 -47.331  0.00  0.00    +0.038 C 
ATOM     24  C   LIG    1      -39.119  10.627 -44.881  0.00  0.00    +0.038 C 
ENDBRANCH  20  21
ENDBRANCH  14  16
ENDBRANCH  13  14
ENDBRANCH   1  13
TORSDOF 5
ENDMDL
MODEL 9
REMARK VINA RESULT:      -7.6      2.343      7.400
REMARK  Name = 
REMARK                            x       y       z     vdW  Elec       q    Type
REMARK                         _______ _______ _______ _____ _____    ______ ____
ROOT
ATOM      1  C   LIG    1      -43.598  11.132 -44.223  0.00  0.00    +0.352 C 
ENDROOT
BRANCH   1   4
ATOM      2  O   LIG    1      -41.863  11.941 -46.402  0.00  0.00    -0.270 OA
ATOM      3  C   LIG    1      -41.989  12.585 -45.377  0.00  0.00    +0.252 C 
ATOM      4  N   LIG    1      -42.761  12.310 -44.294  0.00  0.00    -0.200 N 
ATOM      5  C   LIG    1      -42.619  13.277 -43.348  0.00  0.00    +0.252 C 
ATOM      6  O   LIG    1      -43.130  13.397 -42.250  0.00  0.00    -0.270 OA
ATOM      7  C   LIG    1      -41.670  14.254 -43.890  0.00  0.00    +0.023 C 
ATOM      8  C   LIG    1      -41.224  15.476 -43.203  0.00  0.00    +0.041 C 
ATOM      9  C   LIG    1      -40.284  16.353 -44.038  0.00  0.00    +0.005 C 
ATOM     10  C   LIG    1      -39.754  15.824 -45.385  0.00  0.00    +0.005 C 
ATOM     11  C   LIG    1      -40.360  14.549 -45.991  0.00  0.00    +0.041 C 
ATOM     12  C   LIG    1      -41.298  13.848 -45.099  0.00  0.00    +0.023 C 
ENDBRANCH   1   4
BRANCH   1  13
ATOM     13  O   LIG    1      -44.938  11.471 -44.538  0.00  0.00    -0.444 OA
BRANCH  13  14
ATOM     14  C   LIG    1      -45.782  11.529 -43.487  0.00  0.00    +0.313 C 
ATOM     15  O   LIG    1      -45.564  11.093 -42.366  0.00  0.00    -0.250 OA
BRANCH  14  16
ATOM     16  C   LIG    1      -47.011  12.260 -43.875  0.00  0.00    +0.111 C 
ATOM     17  C   LIG    1      -48.387  12.094 -43.253  0.00  0.00    -0.014 C 
ATOM     18  C   LIG    1      -49.251  13.335 -43.183  0.00  0.00    +0.012 C 
ATOM     19  C   LIG    1      -48.606  11.171 -42.079  0.00  0.00    +0.012 C 
ATOM     20  C   LIG    1      -48.112  11.548 -44.643  0.00  0.00    +0.032 C 
BRANCH  20  21
ATOM     21  C   LIG    1      -47.994  10.108 -44.921  0.00  0.00    -0.023 C 
ATOM     22  C   LIG    1      -47.520   9.539 -46.049  0.00  0.00    -0.079 C 
ATOM     23  C   LIG    1      -47.451   8.044 -46.200  0.00  0.00    +0.038 C 
ATOM     24  C   LIG    1      -47.033  10.315 -47.243  0.00  0.00    +0.038 C 
ENDBRANCH  20  21
ENDBRANCH  14  16
ENDBRANCH  13  14
ENDBRANCH   1  13
TORSDOF 5
ENDMDL
