MODEL 1
REMARK VINA RESULT:      -7.5      0.000      0.000
REMARK  Name = 
REMARK                            x       y       z     vdW  Elec       q    Type
REMARK                         _______ _______ _______ _____ _____    ______ ____
ROOT
ATOM      1  C   LIG    1       22.811 -28.285 -12.452  0.00  0.00    +0.352 C 
ENDROOT
BRANCH   1   4
ATOM      2  O   LIG    1       25.609 -28.207 -13.213  0.00  0.00    -0.270 OA
ATOM      3  C   LIG    1       25.005 -27.236 -12.795  0.00  0.00    +0.252 C 
ATOM      4  N   LIG    1       23.707 -27.150 -12.405  0.00  0.00    -0.200 N 
ATOM      5  C   LIG    1       23.415 -25.888 -11.993  0.00  0.00    +0.252 C 
ATOM      6  O   LIG    1       22.379 -25.407 -11.572  0.00  0.00    -0.270 OA
ATOM      7  C   LIG    1       24.647 -25.106 -12.140  0.00  0.00    +0.023 C 
ATOM      8  C   LIG    1       24.790 -23.678 -11.813  0.00  0.00    +0.041 C 
ATOM      9  C   LIG    1       26.173 -23.101 -12.137  0.00  0.00    +0.005 C 
ATOM     10  C   LIG    1       27.305 -24.050 -12.577  0.00  0.00    +0.005 C 
ATOM     11  C   LIG    1       26.978 -25.511 -12.925  0.00  0.00    +0.041 C 
ATOM     12  C   LIG    1       25.593 -25.904 -12.621  0.00  0.00    +0.023 C 
ENDBRANCH   1   4
BRANCH   1  13
ATOM     13  O   LIG    1       22.284 -28.539 -11.160  0.00  0.00    -0.444 OA
BRANCH  13  14
ATOM     14  C   LIG    1       23.139 -29.114 -10.290  0.00  0.00    +0.313 C 
ATOM     15  O   LIG    1       23.147 -28.952  -9.077  0.00  0.00    -0.250 OA
BRANCH  14  16
ATOM     16  C   LIG    1       24.047 -30.033 -11.015  0.00  0.00    +0.111 C 
ATOM     17  C   LIG    1       24.760 -31.239 -10.426  0.00  0.00    -0.014 C 
ATOM     18  C   LIG    1       24.965 -32.421 -11.351  0.00  0.00    +0.012 C 
ATOM     19  C   LIG    1       24.532 -31.658  -8.995  0.00  0.00    +0.012 C 
ATOM     20  C   LIG    1       25.544 -29.983 -10.763  0.00  0.00    +0.032 C 
BRANCH  20  21
ATOM     21  C   LIG    1       26.081 -29.081  -9.731  0.00  0.00    -0.023 C 
ATOM     22  C   LIG    1       27.320 -28.550  -9.687  0.00  0.00    -0.079 C 
ATOM     23  C   LIG    1       27.738 -27.633  -8.569  0.00  0.00    +0.038 C 
ATOM     24  C   LIG    1       28.387 -28.815 -10.715  0.00  0.00    +0.038 C 
ENDBRANCH  20  21
ENDBRANCH  14  16
ENDBRANCH  13  14
ENDBRANCH   1  13
TORSDOF 5
ENDMDL
MODEL 2
REMARK VINA RESULT:      -7.4      0.096      1.816
REMARK  Name = 
REMARK                            x       y       z     vdW  Elec       q    Type
REMARK                         _______ _______ _______ _____ _____    ______ ____
ROOT
ATOM      1  C   LIG    1       22.747 -28.301 -12.317  0.00  0.00    +0.352 C 
ENDROOT
BRANCH   1   4
ATOM      2  O   LIG    1       22.295 -25.525 -11.605  0.00  0.00    -0.270 OA
ATOM      3  C   LIG    1       23.370 -25.947 -11.991  0.00  0.00    +0.252 C 
ATOM      4  N   LIG    1       23.700 -27.213 -12.355  0.00  0.00    -0.200 N 
ATOM      5  C   LIG    1       25.005 -27.275 -12.736  0.00  0.00    +0.252 C 
ATOM      6  O   LIG    1       25.676 -28.212 -13.127  0.00  0.00    -0.270 OA
ATOM      7  C   LIG    1       25.545 -25.919 -12.594  0.00  0.00    +0.023 C 
ATOM      8  C   LIG    1       26.930 -25.522 -12.893  0.00  0.00    +0.041 C 
ATOM      9  C   LIG    1       27.237 -24.052 -12.583  0.00  0.00    +0.005 C 
ATOM     10  C   LIG    1       26.087 -23.107 -12.184  0.00  0.00    +0.005 C 
ATOM     11  C   LIG    1       24.702 -23.690 -11.861  0.00  0.00    +0.041 C 
ATOM     12  C   LIG    1       24.576 -25.129 -12.147  0.00  0.00    +0.023 C 
ENDBRANCH   1   4
BRANCH   1  13
ATOM     13  O   LIG    1       22.289 -28.497 -10.990  0.00  0.00    -0.444 OA
BRANCH  13  14
ATOM     14  C   LIG    1       23.169 -29.090 -10.157  0.00  0.00    +0.313 C 
ATOM     15  O   LIG    1       23.216 -28.948  -8.943  0.00  0.00    -0.250 OA
BRANCH  14  16
ATOM     16  C   LIG    1       24.048 -30.001 -10.926  0.00  0.00    +0.111 C 
ATOM     17  C   LIG    1       24.764 -31.227 -10.382  0.00  0.00    -0.014 C 
ATOM     18  C   LIG    1       24.933 -32.389 -11.338  0.00  0.00    +0.012 C 
ATOM     19  C   LIG    1       24.567 -31.676  -8.955  0.00  0.00    +0.012 C 
ATOM     20  C   LIG    1       25.552 -29.971 -10.711  0.00  0.00    +0.032 C 
BRANCH  20  21
ATOM     21  C   LIG    1       26.124 -29.098  -9.673  0.00  0.00    -0.023 C 
ATOM     22  C   LIG    1       27.355 -28.548  -9.669  0.00  0.00    -0.079 C 
ATOM     23  C   LIG    1       27.812 -27.665  -8.539  0.00  0.00    +0.038 C 
ATOM     24  C   LIG    1       28.375 -28.757 -10.755  0.00  0.00    +0.038 C 
ENDBRANCH  20  21
ENDBRANCH  14  16
ENDBRANCH  13  14
ENDBRANCH   1  13
TORSDOF 5
ENDMDL
MODEL 3
REMARK VINA RESULT:      -7.2      1.236      5.267
REMARK  Name = 
REMARK                            x       y       z     vdW  Elec       q    Type
REMARK                         _______ _______ _______ _____ _____    ______ ____
ROOT
ATOM      1  C   LIG    1       22.793 -26.531 -12.350  0.00  0.00    +0.352 C 
ENDROOT
BRANCH   1   4
ATOM      2  O   LIG    1       21.931 -28.011 -10.009  0.00  0.00    -0.270 OA
ATOM      3  C   LIG    1       22.760 -28.432 -10.796  0.00  0.00    +0.252 C 
ATOM      4  N   LIG    1       23.244 -27.835 -11.916  0.00  0.00    -0.200 N 
ATOM      5  C   LIG    1       24.166 -28.631 -12.521  0.00  0.00    +0.252 C 
ATOM      6  O   LIG    1       24.823 -28.461 -13.531  0.00  0.00    -0.270 OA
ATOM      7  C   LIG    1       24.269 -29.844 -11.704  0.00  0.00    +0.023 C 
ATOM      8  C   LIG    1       25.151 -30.987 -11.989  0.00  0.00    +0.041 C 
ATOM      9  C   LIG    1       24.998 -32.153 -11.006  0.00  0.00    +0.005 C 
ATOM     10  C   LIG    1       24.120 -31.974  -9.752  0.00  0.00    +0.005 C 
ATOM     11  C   LIG    1       23.219 -30.736  -9.626  0.00  0.00    +0.041 C 
ATOM     12  C   LIG    1       23.431 -29.731 -10.681  0.00  0.00    +0.023 C 
ENDBRANCH   1   4
BRANCH   1  13
ATOM     13  O   LIG    1       23.876 -25.616 -12.337  0.00  0.00    -0.444 OA
BRANCH  13  14
ATOM     14  C   LIG    1       24.310 -25.250 -11.113  0.00  0.00    +0.313 C 
ATOM     15  O   LIG    1       23.668 -25.316 -10.075  0.00  0.00    -0.250 OA
BRANCH  14  16
ATOM     16  C   LIG    1       25.720 -24.802 -11.197  0.00  0.00    +0.111 C 
ATOM     17  C   LIG    1       26.739 -25.242 -12.235  0.00  0.00    -0.014 C 
ATOM     18  C   LIG    1       27.764 -24.210 -12.654  0.00  0.00    +0.012 C 
ATOM     19  C   LIG    1       26.354 -26.165 -13.365  0.00  0.00    +0.012 C 
ATOM     20  C   LIG    1       26.844 -25.747 -10.807  0.00  0.00    +0.032 C 
BRANCH  20  21
ATOM     21  C   LIG    1       26.533 -27.136 -10.431  0.00  0.00    -0.023 C 
ATOM     22  C   LIG    1       27.099 -27.849  -9.436  0.00  0.00    -0.079 C 
ATOM     23  C   LIG    1       26.681 -29.268  -9.157  0.00  0.00    +0.038 C 
ATOM     24  C   LIG    1       28.181 -27.324  -8.532  0.00  0.00    +0.038 C 
ENDBRANCH  20  21
ENDBRANCH  14  16
ENDBRANCH  13  14
ENDBRANCH   1  13
TORSDOF 5
ENDMDL
MODEL 4
REMARK VINA RESULT:      -7.0      1.612      2.083
REMARK  Name = 
REMARK                            x       y       z     vdW  Elec       q    Type
REMARK                         _______ _______ _______ _____ _____    ______ ____
ROOT
ATOM      1  C   LIG    1       22.886 -27.130 -10.140  0.00  0.00    +0.352 C 
ENDROOT
BRANCH   1   4
ATOM      2  O   LIG    1       25.786 -27.098 -10.196  0.00  0.00    -0.270 OA
ATOM      3  C   LIG    1       25.100 -26.287 -10.791  0.00  0.00    +0.252 C 
ATOM      4  N   LIG    1       23.745 -26.197 -10.837  0.00  0.00    -0.200 N 
ATOM      5  C   LIG    1       23.363 -25.144 -11.608  0.00  0.00    +0.252 C 
ATOM      6  O   LIG    1       22.255 -24.729 -11.895  0.00  0.00    -0.270 OA
ATOM      7  C   LIG    1       24.594 -24.514 -12.094  0.00  0.00    +0.023 C 
ATOM      8  C   LIG    1       24.655 -23.334 -12.971  0.00  0.00    +0.041 C 
ATOM      9  C   LIG    1       26.078 -22.937 -13.382  0.00  0.00    +0.005 C 
ATOM     10  C   LIG    1       27.280 -23.645 -12.729  0.00  0.00    +0.005 C 
ATOM     11  C   LIG    1       27.048 -24.898 -11.870  0.00  0.00    +0.041 C 
ATOM     12  C   LIG    1       25.629 -25.195 -11.614  0.00  0.00    +0.023 C 
ENDBRANCH   1   4
BRANCH   1  13
ATOM     13  O   LIG    1       22.124 -27.876 -11.074  0.00  0.00    -0.444 OA
BRANCH  13  14
ATOM     14  C   LIG    1       22.840 -28.563 -11.988  0.00  0.00    +0.313 C 
ATOM     15  O   LIG    1       23.423 -28.085 -12.951  0.00  0.00    -0.250 OA
BRANCH  14  16
ATOM     16  C   LIG    1       22.871 -29.998 -11.620  0.00  0.00    +0.111 C 
ATOM     17  C   LIG    1       23.381 -30.577 -10.310  0.00  0.00    -0.014 C 
ATOM     18  C   LIG    1       22.675 -31.815  -9.800  0.00  0.00    +0.012 C 
ATOM     19  C   LIG    1       23.855 -29.680  -9.193  0.00  0.00    +0.012 C 
ATOM     20  C   LIG    1       24.193 -30.747 -11.582  0.00  0.00    +0.032 C 
BRANCH  20  21
ATOM     21  C   LIG    1       25.451 -30.021 -11.823  0.00  0.00    -0.023 C 
ATOM     22  C   LIG    1       26.629 -30.214 -11.196  0.00  0.00    -0.079 C 
ATOM     23  C   LIG    1       27.844 -29.399 -11.547  0.00  0.00    +0.038 C 
ATOM     24  C   LIG    1       26.846 -31.228 -10.105  0.00  0.00    +0.038 C 
ENDBRANCH  20  21
ENDBRANCH  14  16
ENDBRANCH  13  14
ENDBRANCH   1  13
TORSDOF 5
ENDMDL
MODEL 5
REMARK VINA RESULT:      -6.7      1.483      5.526
REMARK  Name = 
REMARK                            x       y       z     vdW  Elec       q    Type
REMARK                         _______ _______ _______ _____ _____    ______ ____
ROOT
ATOM      1  C   LIG    1       22.025 -27.152 -11.761  0.00  0.00    +0.352 C 
ENDROOT
BRANCH   1   4
ATOM      2  O   LIG    1       22.877 -27.910  -9.094  0.00  0.00    -0.270 OA
ATOM      3  C   LIG    1       23.252 -28.483 -10.101  0.00  0.00    +0.252 C 
ATOM      4  N   LIG    1       22.929 -28.220 -11.394  0.00  0.00    -0.200 N 
ATOM      5  C   LIG    1       23.563 -29.085 -12.229  0.00  0.00    +0.252 C 
ATOM      6  O   LIG    1       23.542 -29.181 -13.443  0.00  0.00    -0.270 OA
ATOM      7  C   LIG    1       24.358 -29.978 -11.380  0.00  0.00    +0.023 C 
ATOM      8  C   LIG    1       25.206 -31.078 -11.865  0.00  0.00    +0.041 C 
ATOM      9  C   LIG    1       25.865 -31.896 -10.747  0.00  0.00    +0.005 C 
ATOM     10  C   LIG    1       25.749 -31.413  -9.289  0.00  0.00    +0.005 C 
ATOM     11  C   LIG    1       24.780 -30.273  -8.940  0.00  0.00    +0.041 C 
ATOM     12  C   LIG    1       24.171 -29.626 -10.114  0.00  0.00    +0.023 C 
ENDBRANCH   1   4
BRANCH   1  13
ATOM     13  O   LIG    1       22.712 -26.180 -12.531  0.00  0.00    -0.444 OA
BRANCH  13  14
ATOM     14  C   LIG    1       23.733 -25.561 -11.902  0.00  0.00    +0.313 C 
ATOM     15  O   LIG    1       23.629 -24.683 -11.056  0.00  0.00    -0.250 OA
BRANCH  14  16
ATOM     16  C   LIG    1       25.020 -26.145 -12.346  0.00  0.00    +0.111 C 
ATOM     17  C   LIG    1       26.239 -26.395 -11.474  0.00  0.00    -0.014 C 
ATOM     18  C   LIG    1       27.079 -27.606 -11.819  0.00  0.00    +0.012 C 
ATOM     19  C   LIG    1       26.208 -26.116  -9.992  0.00  0.00    +0.012 C 
ATOM     20  C   LIG    1       26.249 -25.263 -12.487  0.00  0.00    +0.032 C 
BRANCH  20  21
ATOM     21  C   LIG    1       26.180 -23.846 -12.096  0.00  0.00    -0.023 C 
ATOM     22  C   LIG    1       25.734 -22.821 -12.850  0.00  0.00    -0.079 C 
ATOM     23  C   LIG    1       25.714 -21.412 -12.320  0.00  0.00    +0.038 C 
ATOM     24  C   LIG    1       25.231 -22.968 -14.260  0.00  0.00    +0.038 C 
ENDBRANCH  20  21
ENDBRANCH  14  16
ENDBRANCH  13  14
ENDBRANCH   1  13
TORSDOF 5
ENDMDL
MODEL 6
REMARK VINA RESULT:      -6.5      1.878      3.313
REMARK  Name = 
REMARK                            x       y       z     vdW  Elec       q    Type
REMARK                         _______ _______ _______ _____ _____    ______ ____
ROOT
ATOM      1  C   LIG    1       26.633 -27.286  -9.513  0.00  0.00    +0.352 C 
ENDROOT
BRANCH   1   4
ATOM      2  O   LIG    1       28.056 -26.709 -11.974  0.00  0.00    -0.270 OA
ATOM      3  C   LIG    1       27.070 -26.092 -11.615  0.00  0.00    +0.252 C 
ATOM      4  N   LIG    1       26.328 -26.264 -10.491  0.00  0.00    -0.200 N 
ATOM      5  C   LIG    1       25.308 -25.365 -10.450  0.00  0.00    +0.252 C 
ATOM      6  O   LIG    1       24.433 -25.191  -9.622  0.00  0.00    -0.270 OA
ATOM      7  C   LIG    1       25.419 -24.553 -11.665  0.00  0.00    +0.023 C 
ATOM      8  C   LIG    1       24.515 -23.454 -12.038  0.00  0.00    +0.041 C 
ATOM      9  C   LIG    1       24.825 -22.826 -13.402  0.00  0.00    +0.005 C 
ATOM     10  C   LIG    1       26.106 -23.242 -14.152  0.00  0.00    +0.005 C 
ATOM     11  C   LIG    1       26.921 -24.446 -13.653  0.00  0.00    +0.041 C 
ATOM     12  C   LIG    1       26.464 -24.985 -12.362  0.00  0.00    +0.023 C 
ENDBRANCH   1   4
BRANCH   1  13
ATOM     13  O   LIG    1       25.532 -28.167  -9.374  0.00  0.00    -0.444 OA
BRANCH  13  14
ATOM     14  C   LIG    1       25.832 -29.481  -9.426  0.00  0.00    +0.313 C 
ATOM     15  O   LIG    1       26.957 -29.961  -9.423  0.00  0.00    -0.250 OA
BRANCH  14  16
ATOM     16  C   LIG    1       24.584 -30.278  -9.429  0.00  0.00    +0.111 C 
ATOM     17  C   LIG    1       23.985 -31.002 -10.624  0.00  0.00    -0.014 C 
ATOM     18  C   LIG    1       23.254 -32.296 -10.333  0.00  0.00    +0.012 C 
ATOM     19  C   LIG    1       24.692 -31.024 -11.956  0.00  0.00    +0.012 C 
ATOM     20  C   LIG    1       23.333 -29.734 -10.099  0.00  0.00    +0.032 C 
BRANCH  20  21
ATOM     21  C   LIG    1       23.391 -28.454 -10.823  0.00  0.00    -0.023 C 
ATOM     22  C   LIG    1       22.688 -28.115 -11.923  0.00  0.00    -0.079 C 
ATOM     23  C   LIG    1       22.842 -26.761 -12.562  0.00  0.00    +0.038 C 
ATOM     24  C   LIG    1       21.710 -29.027 -12.612  0.00  0.00    +0.038 C 
ENDBRANCH  20  21
ENDBRANCH  14  16
ENDBRANCH  13  14
ENDBRANCH   1  13
TORSDOF 5
ENDMDL
MODEL 7
REMARK VINA RESULT:      -6.4      1.669      2.884
REMARK  Name = 
REMARK                            x       y       z     vdW  Elec       q    Type
REMARK                         _______ _______ _______ _____ _____    ______ ____
ROOT
ATOM      1  C   LIG    1       23.357 -27.111  -9.519  0.00  0.00    +0.352 C 
ENDROOT
BRANCH   1   4
ATOM      2  O   LIG    1       22.325 -25.275 -11.514  0.00  0.00    -0.270 OA
ATOM      3  C   LIG    1       23.511 -25.388 -11.263  0.00  0.00    +0.252 C 
ATOM      4  N   LIG    1       24.111 -26.208 -10.361  0.00  0.00    -0.200 N 
ATOM      5  C   LIG    1       25.460 -26.040 -10.386  0.00  0.00    +0.252 C 
ATOM      6  O   LIG    1       26.342 -26.579  -9.744  0.00  0.00    -0.270 OA
ATOM      7  C   LIG    1       25.734 -25.014 -11.398  0.00  0.00    +0.023 C 
ATOM      8  C   LIG    1       27.069 -24.512 -11.759  0.00  0.00    +0.041 C 
ATOM      9  C   LIG    1       27.051 -23.385 -12.798  0.00  0.00    +0.005 C 
ATOM     10  C   LIG    1       25.725 -23.016 -13.490  0.00  0.00    +0.005 C 
ATOM     11  C   LIG    1       24.404 -23.598 -12.961  0.00  0.00    +0.041 C 
ATOM     12  C   LIG    1       24.576 -24.621 -11.918  0.00  0.00    +0.023 C 
ENDBRANCH   1   4
BRANCH   1  13
ATOM     13  O   LIG    1       23.849 -28.432  -9.664  0.00  0.00    -0.444 OA
BRANCH  13  14
ATOM     14  C   LIG    1       23.093 -29.251 -10.425  0.00  0.00    +0.313 C 
ATOM     15  O   LIG    1       22.015 -28.970 -10.929  0.00  0.00    -0.250 OA
BRANCH  14  16
ATOM     16  C   LIG    1       23.796 -30.540 -10.619  0.00  0.00    +0.111 C 
ATOM     17  C   LIG    1       25.128 -30.937 -10.003  0.00  0.00    -0.014 C 
ATOM     18  C   LIG    1       25.302 -32.400  -9.655  0.00  0.00    +0.012 C 
ATOM     19  C   LIG    1       25.843 -30.024  -9.037  0.00  0.00    +0.012 C 
ATOM     20  C   LIG    1       25.044 -30.607 -11.483  0.00  0.00    +0.032 C 
BRANCH  20  21
ATOM     21  C   LIG    1       25.603 -29.371 -12.054  0.00  0.00    -0.023 C 
ATOM     22  C   LIG    1       25.070 -28.623 -13.041  0.00  0.00    -0.079 C 
ATOM     23  C   LIG    1       25.750 -27.372 -13.528  0.00  0.00    +0.038 C 
ATOM     24  C   LIG    1       23.782 -28.953 -13.745  0.00  0.00    +0.038 C 
ENDBRANCH  20  21
ENDBRANCH  14  16
ENDBRANCH  13  14
ENDBRANCH   1  13
TORSDOF 5
ENDMDL
MODEL 8
REMARK VINA RESULT:      -6.4      1.879      3.822
REMARK  Name = 
REMARK                            x       y       z     vdW  Elec       q    Type
REMARK                         _______ _______ _______ _____ _____    ______ ____
ROOT
ATOM      1  C   LIG    1       26.495 -27.332  -9.478  0.00  0.00    +0.352 C 
ENDROOT
BRANCH   1   4
ATOM      2  O   LIG    1       24.269 -25.478  -9.640  0.00  0.00    -0.270 OA
ATOM      3  C   LIG    1       25.171 -25.510 -10.458  0.00  0.00    +0.252 C 
ATOM      4  N   LIG    1       26.254 -26.327 -10.492  0.00  0.00    -0.200 N 
ATOM      5  C   LIG    1       27.027 -26.052 -11.576  0.00  0.00    +0.252 C 
ATOM      6  O   LIG    1       28.067 -26.554 -11.961  0.00  0.00    -0.270 OA
ATOM      7  C   LIG    1       26.367 -24.955 -12.291  0.00  0.00    +0.023 C 
ATOM      8  C   LIG    1       26.859 -24.329 -13.528  0.00  0.00    +0.041 C 
ATOM      9  C   LIG    1       26.005 -23.152 -14.014  0.00  0.00    +0.005 C 
ATOM     10  C   LIG    1       24.664 -22.852 -13.316  0.00  0.00    +0.005 C 
ATOM     11  C   LIG    1       24.317 -23.565 -11.999  0.00  0.00    +0.041 C 
ATOM     12  C   LIG    1       25.265 -24.627 -11.625  0.00  0.00    +0.023 C 
ENDBRANCH   1   4
BRANCH   1  13
ATOM     13  O   LIG    1       27.411 -28.299  -9.963  0.00  0.00    -0.444 OA
BRANCH  13  14
ATOM     14  C   LIG    1       26.859 -29.340 -10.620  0.00  0.00    +0.313 C 
ATOM     15  O   LIG    1       27.212 -29.771 -11.708  0.00  0.00    -0.250 OA
BRANCH  14  16
ATOM     16  C   LIG    1       25.783 -29.936  -9.794  0.00  0.00    +0.111 C 
ATOM     17  C   LIG    1       24.877 -31.088 -10.199  0.00  0.00    -0.014 C 
ATOM     18  C   LIG    1       24.439 -32.024  -9.093  0.00  0.00    +0.012 C 
ATOM     19  C   LIG    1       25.060 -31.797 -11.518  0.00  0.00    +0.012 C 
ATOM     20  C   LIG    1       24.326 -29.674 -10.136  0.00  0.00    +0.032 C 
BRANCH  20  21
ATOM     21  C   LIG    1       23.986 -28.899 -11.341  0.00  0.00    -0.023 C 
ATOM     22  C   LIG    1       22.924 -28.085 -11.505  0.00  0.00    -0.079 C 
ATOM     23  C   LIG    1       22.699 -27.345 -12.796  0.00  0.00    +0.038 C 
ATOM     24  C   LIG    1       21.878 -27.842 -10.451  0.00  0.00    +0.038 C 
ENDBRANCH  20  21
ENDBRANCH  14  16
ENDBRANCH  13  14
ENDBRANCH   1  13
TORSDOF 5
ENDMDL
MODEL 9
REMARK VINA RESULT:      -6.2      1.435      5.736
REMARK  Name = 
REMARK                            x       y       z     vdW  Elec       q    Type
REMARK                         _______ _______ _______ _____ _____    ______ ____
ROOT
ATOM      1  C   LIG    1       22.358 -26.749 -11.144  0.00  0.00    +0.352 C 
ENDROOT
BRANCH   1   4
ATOM      2  O   LIG    1       23.648 -28.384 -13.164  0.00  0.00    -0.270 OA
ATOM      3  C   LIG    1       23.661 -28.657 -11.977  0.00  0.00    +0.252 C 
ATOM      4  N   LIG    1       23.095 -27.979 -10.946  0.00  0.00    -0.200 N 
ATOM      5  C   LIG    1       23.330 -28.616  -9.768  0.00  0.00    +0.252 C 
ATOM      6  O   LIG    1       22.996 -28.338  -8.632  0.00  0.00    -0.270 OA
ATOM      7  C   LIG    1       24.122 -29.808 -10.090  0.00  0.00    +0.023 C 
ATOM      8  C   LIG    1       24.608 -30.794  -9.112  0.00  0.00    +0.041 C 
ATOM      9  C   LIG    1       25.476 -31.901  -9.722  0.00  0.00    +0.005 C 
ATOM     10  C   LIG    1       25.608 -32.000 -11.254  0.00  0.00    +0.005 C 
ATOM     11  C   LIG    1       25.082 -30.858 -12.137  0.00  0.00    +0.041 C 
ATOM     12  C   LIG    1       24.324 -29.832 -11.402  0.00  0.00    +0.023 C 
ENDBRANCH   1   4
BRANCH   1  13
ATOM     13  O   LIG    1       23.201 -25.636 -10.905  0.00  0.00    -0.444 OA
BRANCH  13  14
ATOM     14  C   LIG    1       23.615 -24.976 -12.006  0.00  0.00    +0.313 C 
ATOM     15  O   LIG    1       23.220 -25.166 -13.148  0.00  0.00    -0.250 OA
BRANCH  14  16
ATOM     16  C   LIG    1       24.591 -23.929 -11.623  0.00  0.00    +0.111 C 
ATOM     17  C   LIG    1       25.536 -23.197 -12.562  0.00  0.00    -0.014 C 
ATOM     18  C   LIG    1       25.845 -21.755 -12.221  0.00  0.00    +0.012 C 
ATOM     19  C   LIG    1       25.502 -23.444 -14.051  0.00  0.00    +0.012 C 
ATOM     20  C   LIG    1       26.078 -24.243 -11.604  0.00  0.00    +0.032 C 
BRANCH  20  21
ATOM     21  C   LIG    1       26.551 -25.562 -12.052  0.00  0.00    -0.023 C 
ATOM     22  C   LIG    1       26.737 -26.657 -11.287  0.00  0.00    -0.079 C 
ATOM     23  C   LIG    1       27.225 -27.951 -11.880  0.00  0.00    +0.038 C 
ATOM     24  C   LIG    1       26.491 -26.699  -9.803  0.00  0.00    +0.038 C 
ENDBRANCH  20  21
ENDBRANCH  14  16
ENDBRANCH  13  14
ENDBRANCH   1  13
TORSDOF 5
ENDMDL
