MODEL 1
REMARK VINA RESULT:      -8.0      0.000      0.000
REMARK  Name = 
REMARK                            x       y       z     vdW  Elec       q    Type
REMARK                         _______ _______ _______ _____ _____    ______ ____
ROOT
ATOM      1  C   LIG    1       19.674  47.452  16.062  0.00  0.00    +0.352 C 
ENDROOT
BRANCH   1   4
ATOM      2  O   LIG    1       21.444  46.617  13.920  0.00  0.00    -0.270 OA
ATOM      3  C   LIG    1       21.204  47.785  14.169  0.00  0.00    +0.252 C 
ATOM      4  N   LIG    1       20.403  48.296  15.140  0.00  0.00    -0.200 N 
ATOM      5  C   LIG    1       20.406  49.655  15.095  0.00  0.00    +0.252 C 
ATOM      6  O   LIG    1       19.828  50.475  15.784  0.00  0.00    -0.270 OA
ATOM      7  C   LIG    1       21.290  50.034  13.988  0.00  0.00    +0.023 C 
ATOM      8  C   LIG    1       21.587  51.413  13.572  0.00  0.00    +0.041 C 
ATOM      9  C   LIG    1       22.487  51.512  12.335  0.00  0.00    +0.005 C 
ATOM     10  C   LIG    1       23.134  50.233  11.768  0.00  0.00    +0.005 C 
ATOM     11  C   LIG    1       22.680  48.859  12.284  0.00  0.00    +0.041 C 
ATOM     12  C   LIG    1       21.763  48.924  13.433  0.00  0.00    +0.023 C 
ENDBRANCH   1   4
BRANCH   1  13
ATOM     13  O   LIG    1       19.979  47.816  17.397  0.00  0.00    -0.444 OA
BRANCH  13  14
ATOM     14  C   LIG    1       18.948  47.750  18.265  0.00  0.00    +0.313 C 
ATOM     15  O   LIG    1       18.744  46.851  19.069  0.00  0.00    -0.250 OA
BRANCH  14  16
ATOM     16  C   LIG    1       18.116  48.969  18.145  0.00  0.00    +0.111 C 
ATOM     17  C   LIG    1       16.773  49.207  18.816  0.00  0.00    -0.014 C 
ATOM     18  C   LIG    1       16.467  50.631  19.229  0.00  0.00    +0.012 C 
ATOM     19  C   LIG    1       16.184  48.192  19.764  0.00  0.00    +0.012 C 
ATOM     20  C   LIG    1       16.839  48.943  17.322  0.00  0.00    +0.032 C 
BRANCH  20  21
ATOM     21  C   LIG    1       16.385  47.680  16.718  0.00  0.00    -0.023 C 
ATOM     22  C   LIG    1       16.297  47.400  15.402  0.00  0.00    -0.079 C 
ATOM     23  C   LIG    1       15.818  46.057  14.919  0.00  0.00    +0.038 C 
ATOM     24  C   LIG    1       16.650  48.371  14.308  0.00  0.00    +0.038 C 
ENDBRANCH  20  21
ENDBRANCH  14  16
ENDBRANCH  13  14
ENDBRANCH   1  13
TORSDOF 5
ENDMDL
MODEL 2
REMARK VINA RESULT:      -7.7      1.568      2.878
REMARK  Name = 
REMARK                            x       y       z     vdW  Elec       q    Type
REMARK                         _______ _______ _______ _____ _____    ______ ____
ROOT
ATOM      1  C   LIG    1       19.250  46.987  14.702  0.00  0.00    +0.352 C 
ENDROOT
BRANCH   1   4
ATOM      2  O   LIG    1       21.680  46.661  13.150  0.00  0.00    -0.270 OA
ATOM      3  C   LIG    1       21.244  47.747  13.485  0.00  0.00    +0.252 C 
ATOM      4  N   LIG    1       20.129  48.025  14.209  0.00  0.00    -0.200 N 
ATOM      5  C   LIG    1       19.991  49.368  14.376  0.00  0.00    +0.252 C 
ATOM      6  O   LIG    1       19.139  50.014  14.957  0.00  0.00    -0.270 OA
ATOM      7  C   LIG    1       21.125  49.993  13.689  0.00  0.00    +0.023 C 
ATOM      8  C   LIG    1       21.377  51.440  13.608  0.00  0.00    +0.041 C 
ATOM      9  C   LIG    1       22.600  51.814  12.762  0.00  0.00    +0.005 C 
ATOM     10  C   LIG    1       23.532  50.700  12.246  0.00  0.00    +0.005 C 
ATOM     11  C   LIG    1       23.099  49.231  12.369  0.00  0.00    +0.041 C 
ATOM     12  C   LIG    1       21.870  49.032  13.154  0.00  0.00    +0.023 C 
ENDBRANCH   1   4
BRANCH   1  13
ATOM     13  O   LIG    1       17.901  47.408  14.603  0.00  0.00    -0.444 OA
BRANCH  13  14
ATOM     14  C   LIG    1       17.163  47.251  15.722  0.00  0.00    +0.313 C 
ATOM     15  O   LIG    1       15.941  47.243  15.781  0.00  0.00    -0.250 OA
BRANCH  14  16
ATOM     16  C   LIG    1       18.057  47.028  16.882  0.00  0.00    +0.111 C 
ATOM     17  C   LIG    1       17.622  46.858  18.328  0.00  0.00    -0.014 C 
ATOM     18  C   LIG    1       18.458  45.925  19.179  0.00  0.00    +0.012 C 
ATOM     19  C   LIG    1       16.162  46.831  18.706  0.00  0.00    +0.012 C 
ATOM     20  C   LIG    1       18.297  48.144  17.885  0.00  0.00    +0.032 C 
BRANCH  20  21
ATOM     21  C   LIG    1       17.570  49.416  17.750  0.00  0.00    -0.023 C 
ATOM     22  C   LIG    1       17.157  50.221  18.750  0.00  0.00    -0.079 C 
ATOM     23  C   LIG    1       16.423  51.504  18.468  0.00  0.00    +0.038 C 
ATOM     24  C   LIG    1       17.371  49.928  20.211  0.00  0.00    +0.038 C 
ENDBRANCH  20  21
ENDBRANCH  14  16
ENDBRANCH  13  14
ENDBRANCH   1  13
TORSDOF 5
ENDMDL
MODEL 3
REMARK VINA RESULT:      -7.6      0.295      1.832
REMARK  Name = 
REMARK                            x       y       z     vdW  Elec       q    Type
REMARK                         _______ _______ _______ _____ _____    ______ ____
ROOT
ATOM      1  C   LIG    1       19.397  47.381  15.747  0.00  0.00    +0.352 C 
ENDROOT
BRANCH   1   4
ATOM      2  O   LIG    1       19.432  50.272  15.514  0.00  0.00    -0.270 OA
ATOM      3  C   LIG    1       20.167  49.543  14.873  0.00  0.00    +0.252 C 
ATOM      4  N   LIG    1       20.241  48.187  14.892  0.00  0.00    -0.200 N 
ATOM      5  C   LIG    1       21.190  47.748  14.023  0.00  0.00    +0.252 C 
ATOM      6  O   LIG    1       21.556  46.621  13.747  0.00  0.00    -0.270 OA
ATOM      7  C   LIG    1       21.770  48.943  13.400  0.00  0.00    +0.023 C 
ATOM      8  C   LIG    1       22.842  48.940  12.393  0.00  0.00    +0.041 C 
ATOM      9  C   LIG    1       23.305  50.339  11.971  0.00  0.00    +0.005 C 
ATOM     10  C   LIG    1       22.525  51.574  12.464  0.00  0.00    +0.005 C 
ATOM     11  C   LIG    1       21.459  51.412  13.559  0.00  0.00    +0.041 C 
ATOM     12  C   LIG    1       21.167  50.012  13.908  0.00  0.00    +0.023 C 
ENDBRANCH   1   4
BRANCH   1  13
ATOM     13  O   LIG    1       19.814  47.505  17.096  0.00  0.00    -0.444 OA
BRANCH  13  14
ATOM     14  C   LIG    1       18.828  47.444  18.015  0.00  0.00    +0.313 C 
ATOM     15  O   LIG    1       18.624  46.519  18.787  0.00  0.00    -0.250 OA
BRANCH  14  16
ATOM     16  C   LIG    1       18.051  48.705  17.996  0.00  0.00    +0.111 C 
ATOM     17  C   LIG    1       16.754  48.969  18.744  0.00  0.00    -0.014 C 
ATOM     18  C   LIG    1       16.537  50.384  19.239  0.00  0.00    +0.012 C 
ATOM     19  C   LIG    1       16.164  47.936  19.671  0.00  0.00    +0.012 C 
ATOM     20  C   LIG    1       16.735  48.778  17.238  0.00  0.00    +0.032 C 
BRANCH  20  21
ATOM     21  C   LIG    1       16.194  47.568  16.598  0.00  0.00    -0.023 C 
ATOM     22  C   LIG    1       16.135  47.311  15.275  0.00  0.00    -0.079 C 
ATOM     23  C   LIG    1       15.556  46.023  14.755  0.00  0.00    +0.038 C 
ATOM     24  C   LIG    1       16.621  48.257  14.211  0.00  0.00    +0.038 C 
ENDBRANCH  20  21
ENDBRANCH  14  16
ENDBRANCH  13  14
ENDBRANCH   1  13
TORSDOF 5
ENDMDL
MODEL 4
REMARK VINA RESULT:      -7.6      1.537      3.864
REMARK  Name = 
REMARK                            x       y       z     vdW  Elec       q    Type
REMARK                         _______ _______ _______ _____ _____    ______ ____
ROOT
ATOM      1  C   LIG    1       19.138  47.787  15.914  0.00  0.00    +0.352 C 
ENDROOT
BRANCH   1   4
ATOM      2  O   LIG    1       19.645  50.630  15.640  0.00  0.00    -0.270 OA
ATOM      3  C   LIG    1       20.202  49.786  14.963  0.00  0.00    +0.252 C 
ATOM      4  N   LIG    1       20.046  48.437  14.995  0.00  0.00    -0.200 N 
ATOM      5  C   LIG    1       20.847  47.842  14.070  0.00  0.00    +0.252 C 
ATOM      6  O   LIG    1       20.998  46.668  13.786  0.00  0.00    -0.270 OA
ATOM      7  C   LIG    1       21.577  48.919  13.395  0.00  0.00    +0.023 C 
ATOM      8  C   LIG    1       22.562  48.732  12.319  0.00  0.00    +0.041 C 
ATOM      9  C   LIG    1       23.226  50.032  11.849  0.00  0.00    +0.005 C 
ATOM     10  C   LIG    1       22.701  51.382  12.375  0.00  0.00    +0.005 C 
ATOM     11  C   LIG    1       21.699  51.405  13.540  0.00  0.00    +0.041 C 
ATOM     12  C   LIG    1       21.199  50.076  13.927  0.00  0.00    +0.023 C 
ENDBRANCH   1   4
BRANCH   1  13
ATOM     13  O   LIG    1       17.859  48.394  15.841  0.00  0.00    -0.444 OA
BRANCH  13  14
ATOM     14  C   LIG    1       17.129  48.074  14.752  0.00  0.00    +0.313 C 
ATOM     15  O   LIG    1       16.731  48.856  13.900  0.00  0.00    -0.250 OA
BRANCH  14  16
ATOM     16  C   LIG    1       16.923  46.608  14.702  0.00  0.00    +0.111 C 
ATOM     17  C   LIG    1       15.598  45.896  14.486  0.00  0.00    -0.014 C 
ATOM     18  C   LIG    1       15.650  44.590  13.722  0.00  0.00    +0.012 C 
ATOM     19  C   LIG    1       14.331  46.671  14.220  0.00  0.00    +0.012 C 
ATOM     20  C   LIG    1       16.245  45.894  15.859  0.00  0.00    +0.032 C 
BRANCH  20  21
ATOM     21  C   LIG    1       15.714  46.674  16.989  0.00  0.00    -0.023 C 
ATOM     22  C   LIG    1       16.301  46.860  18.189  0.00  0.00    -0.079 C 
ATOM     23  C   LIG    1       15.644  47.691  19.259  0.00  0.00    +0.038 C 
ATOM     24  C   LIG    1       17.629  46.270  18.578  0.00  0.00    +0.038 C 
ENDBRANCH  20  21
ENDBRANCH  14  16
ENDBRANCH  13  14
ENDBRANCH   1  13
TORSDOF 5
ENDMDL
MODEL 5
REMARK VINA RESULT:      -7.2      1.633      3.375
REMARK  Name = 
REMARK                            x       y       z     vdW  Elec       q    Type
REMARK                         _______ _______ _______ _____ _____    ______ ____
ROOT
ATOM      1  C   LIG    1       18.509  46.819  14.902  0.00  0.00    +0.352 C 
ENDROOT
BRANCH   1   4
ATOM      2  O   LIG    1       18.487  49.720  14.866  0.00  0.00    -0.270 OA
ATOM      3  C   LIG    1       19.394  49.055  14.400  0.00  0.00    +0.252 C 
ATOM      4  N   LIG    1       19.515  47.703  14.354  0.00  0.00    -0.200 N 
ATOM      5  C   LIG    1       20.676  47.348  13.742  0.00  0.00    +0.252 C 
ATOM      6  O   LIG    1       21.148  46.251  13.504  0.00  0.00    -0.270 OA
ATOM      7  C   LIG    1       21.350  48.596  13.370  0.00  0.00    +0.023 C 
ATOM      8  C   LIG    1       22.649  48.688  12.685  0.00  0.00    +0.041 C 
ATOM      9  C   LIG    1       23.150  50.124  12.489  0.00  0.00    +0.005 C 
ATOM     10  C   LIG    1       22.218  51.303  12.832  0.00  0.00    +0.005 C 
ATOM     11  C   LIG    1       20.909  51.040  13.593  0.00  0.00    +0.041 C 
ATOM     12  C   LIG    1       20.593  49.612  13.765  0.00  0.00    +0.023 C 
ENDBRANCH   1   4
BRANCH   1  13
ATOM     13  O   LIG    1       18.501  46.914  16.317  0.00  0.00    -0.444 OA
BRANCH  13  14
ATOM     14  C   LIG    1       17.318  47.255  16.867  0.00  0.00    +0.313 C 
ATOM     15  O   LIG    1       16.220  47.139  16.340  0.00  0.00    -0.250 OA
BRANCH  14  16
ATOM     16  C   LIG    1       17.533  47.746  18.248  0.00  0.00    +0.111 C 
ATOM     17  C   LIG    1       17.794  49.186  18.657  0.00  0.00    -0.014 C 
ATOM     18  C   LIG    1       17.237  49.619  19.997  0.00  0.00    +0.012 C 
ATOM     19  C   LIG    1       17.783  50.300  17.640  0.00  0.00    +0.012 C 
ATOM     20  C   LIG    1       18.921  48.170  18.699  0.00  0.00    +0.032 C 
BRANCH  20  21
ATOM     21  C   LIG    1       20.032  48.175  17.734  0.00  0.00    -0.023 C 
ATOM     22  C   LIG    1       21.014  49.095  17.638  0.00  0.00    -0.079 C 
ATOM     23  C   LIG    1       22.097  48.975  16.600  0.00  0.00    +0.038 C 
ATOM     24  C   LIG    1       21.126  50.305  18.525  0.00  0.00    +0.038 C 
ENDBRANCH  20  21
ENDBRANCH  14  16
ENDBRANCH  13  14
ENDBRANCH   1  13
TORSDOF 5
ENDMDL
MODEL 6
REMARK VINA RESULT:      -6.8      1.703      2.834
REMARK  Name = 
REMARK                            x       y       z     vdW  Elec       q    Type
REMARK                         _______ _______ _______ _____ _____    ______ ____
ROOT
ATOM      1  C   LIG    1       18.432  46.217  14.822  0.00  0.00    +0.352 C 
ENDROOT
BRANCH   1   4
ATOM      2  O   LIG    1       21.081  46.091  13.647  0.00  0.00    -0.270 OA
ATOM      3  C   LIG    1       20.517  47.138  13.908  0.00  0.00    +0.252 C 
ATOM      4  N   LIG    1       19.290  47.324  14.458  0.00  0.00    -0.200 N 
ATOM      5  C   LIG    1       19.024  48.651  14.596  0.00  0.00    +0.252 C 
ATOM      6  O   LIG    1       18.048  49.225  15.042  0.00  0.00    -0.270 OA
ATOM      7  C   LIG    1       20.196  49.366  14.081  0.00  0.00    +0.023 C 
ATOM      8  C   LIG    1       20.343  50.829  14.031  0.00  0.00    +0.041 C 
ATOM      9  C   LIG    1       21.644  51.303  13.372  0.00  0.00    +0.005 C 
ATOM     10  C   LIG    1       22.726  50.268  13.006  0.00  0.00    +0.005 C 
ATOM     11  C   LIG    1       22.396  48.769  13.071  0.00  0.00    +0.041 C 
ATOM     12  C   LIG    1       21.083  48.470  13.666  0.00  0.00    +0.023 C 
ENDBRANCH   1   4
BRANCH   1  13
ATOM     13  O   LIG    1       18.091  46.300  16.195  0.00  0.00    -0.444 OA
BRANCH  13  14
ATOM     14  C   LIG    1       16.769  46.275  16.465  0.00  0.00    +0.313 C 
ATOM     15  O   LIG    1       15.878  46.022  15.667  0.00  0.00    -0.250 OA
BRANCH  14  16
ATOM     16  C   LIG    1       16.550  46.544  17.906  0.00  0.00    +0.111 C 
ATOM     17  C   LIG    1       16.413  47.914  18.550  0.00  0.00    -0.014 C 
ATOM     18  C   LIG    1       15.481  48.009  19.739  0.00  0.00    +0.012 C 
ATOM     19  C   LIG    1       16.419  49.172  17.718  0.00  0.00    +0.012 C 
ATOM     20  C   LIG    1       17.679  47.101  18.757  0.00  0.00    +0.032 C 
BRANCH  20  21
ATOM     21  C   LIG    1       18.961  47.454  18.129  0.00  0.00    -0.023 C 
ATOM     22  C   LIG    1       19.598  48.641  18.204  0.00  0.00    -0.079 C 
ATOM     23  C   LIG    1       20.915  48.867  17.511  0.00  0.00    +0.038 C 
ATOM     24  C   LIG    1       19.072  49.833  18.957  0.00  0.00    +0.038 C 
ENDBRANCH  20  21
ENDBRANCH  14  16
ENDBRANCH  13  14
ENDBRANCH   1  13
TORSDOF 5
ENDMDL
MODEL 7
REMARK VINA RESULT:      -6.8      0.986      2.923
REMARK  Name = 
REMARK                            x       y       z     vdW  Elec       q    Type
REMARK                         _______ _______ _______ _____ _____    ______ ____
ROOT
ATOM      1  C   LIG    1       19.391  47.001  14.458  0.00  0.00    +0.352 C 
ENDROOT
BRANCH   1   4
ATOM      2  O   LIG    1       21.908  46.799  13.031  0.00  0.00    -0.270 OA
ATOM      3  C   LIG    1       21.412  47.861  13.358  0.00  0.00    +0.252 C 
ATOM      4  N   LIG    1       20.251  48.082  14.027  0.00  0.00    -0.200 N 
ATOM      5  C   LIG    1       20.050  49.415  14.207  0.00  0.00    +0.252 C 
ATOM      6  O   LIG    1       19.143  50.017  14.752  0.00  0.00    -0.270 OA
ATOM      7  C   LIG    1       21.192  50.096  13.590  0.00  0.00    +0.023 C 
ATOM      8  C   LIG    1       21.389  51.553  13.545  0.00  0.00    +0.041 C 
ATOM      9  C   LIG    1       22.638  51.990  12.770  0.00  0.00    +0.005 C 
ATOM     10  C   LIG    1       23.639  50.923  12.287  0.00  0.00    +0.005 C 
ATOM     11  C   LIG    1       23.261  49.436  12.365  0.00  0.00    +0.041 C 
ATOM     12  C   LIG    1       22.002  49.175  13.080  0.00  0.00    +0.023 C 
ENDBRANCH   1   4
BRANCH   1  13
ATOM     13  O   LIG    1       19.691  46.648  15.797  0.00  0.00    -0.444 OA
BRANCH  13  14
ATOM     14  C   LIG    1       18.910  47.222  16.736  0.00  0.00    +0.313 C 
ATOM     15  O   LIG    1       19.230  48.148  17.468  0.00  0.00    -0.250 OA
BRANCH  14  16
ATOM     16  C   LIG    1       17.565  46.600  16.714  0.00  0.00    +0.111 C 
ATOM     17  C   LIG    1       16.386  47.046  15.865  0.00  0.00    -0.014 C 
ATOM     18  C   LIG    1       15.453  45.956  15.381  0.00  0.00    +0.012 C 
ATOM     19  C   LIG    1       16.521  48.174  14.873  0.00  0.00    +0.012 C 
ATOM     20  C   LIG    1       16.387  47.309  17.361  0.00  0.00    +0.032 C 
BRANCH  20  21
ATOM     21  C   LIG    1       16.567  48.653  17.931  0.00  0.00    -0.023 C 
ATOM     22  C   LIG    1       16.153  49.080  19.141  0.00  0.00    -0.079 C 
ATOM     23  C   LIG    1       16.409  50.490  19.602  0.00  0.00    +0.038 C 
ATOM     24  C   LIG    1       15.407  48.222  20.127  0.00  0.00    +0.038 C 
ENDBRANCH  20  21
ENDBRANCH  14  16
ENDBRANCH  13  14
ENDBRANCH   1  13
TORSDOF 5
ENDMDL
MODEL 8
REMARK VINA RESULT:      -6.7      1.281      1.629
REMARK  Name = 
REMARK                            x       y       z     vdW  Elec       q    Type
REMARK                         _______ _______ _______ _____ _____    ______ ____
ROOT
ATOM      1  C   LIG    1       20.717  47.534  16.898  0.00  0.00    +0.352 C 
ENDROOT
BRANCH   1   4
ATOM      2  O   LIG    1       22.983  49.336  16.719  0.00  0.00    -0.270 OA
ATOM      3  C   LIG    1       22.269  49.068  15.770  0.00  0.00    +0.252 C 
ATOM      4  N   LIG    1       21.185  48.250  15.731  0.00  0.00    -0.200 N 
ATOM      5  C   LIG    1       20.654  48.221  14.480  0.00  0.00    +0.252 C 
ATOM      6  O   LIG    1       19.692  47.621  14.037  0.00  0.00    -0.270 OA
ATOM      7  C   LIG    1       21.484  49.104  13.654  0.00  0.00    +0.023 C 
ATOM      8  C   LIG    1       21.275  49.371  12.222  0.00  0.00    +0.041 C 
ATOM      9  C   LIG    1       22.342  50.277  11.595  0.00  0.00    +0.005 C 
ATOM     10  C   LIG    1       23.385  50.956  12.503  0.00  0.00    +0.005 C 
ATOM     11  C   LIG    1       23.503  50.531  13.975  0.00  0.00    +0.041 C 
ATOM     12  C   LIG    1       22.448  49.605  14.417  0.00  0.00    +0.023 C 
ENDBRANCH   1   4
BRANCH   1  13
ATOM     13  O   LIG    1       20.486  48.442  17.962  0.00  0.00    -0.444 OA
BRANCH  13  14
ATOM     14  C   LIG    1       19.264  48.371  18.528  0.00  0.00    +0.313 C 
ATOM     15  O   LIG    1       18.903  47.545  19.355  0.00  0.00    -0.250 OA
BRANCH  14  16
ATOM     16  C   LIG    1       18.423  49.490  18.043  0.00  0.00    +0.111 C 
ATOM     17  C   LIG    1       16.986  49.772  18.448  0.00  0.00    -0.014 C 
ATOM     18  C   LIG    1       16.577  51.229  18.512  0.00  0.00    +0.012 C 
ATOM     19  C   LIG    1       16.288  48.930  19.487  0.00  0.00    +0.012 C 
ATOM     20  C   LIG    1       17.291  49.224  17.065  0.00  0.00    +0.032 C 
BRANCH  20  21
ATOM     21  C   LIG    1       16.975  47.841  16.672  0.00  0.00    -0.023 C 
ATOM     22  C   LIG    1       16.599  47.414  15.449  0.00  0.00    -0.079 C 
ATOM     23  C   LIG    1       16.309  45.962  15.183  0.00  0.00    +0.038 C 
ATOM     24  C   LIG    1       16.426  48.318  14.258  0.00  0.00    +0.038 C 
ENDBRANCH  20  21
ENDBRANCH  14  16
ENDBRANCH  13  14
ENDBRANCH   1  13
TORSDOF 5
ENDMDL
MODEL 9
REMARK VINA RESULT:      -6.6      0.993      3.412
REMARK  Name = 
REMARK                            x       y       z     vdW  Elec       q    Type
REMARK                         _______ _______ _______ _____ _____    ______ ____
ROOT
ATOM      1  C   LIG    1       19.350  47.052  14.545  0.00  0.00    +0.352 C 
ENDROOT
BRANCH   1   4
ATOM      2  O   LIG    1       19.142  49.933  14.813  0.00  0.00    -0.270 OA
ATOM      3  C   LIG    1       20.060  49.382  14.233  0.00  0.00    +0.252 C 
ATOM      4  N   LIG    1       20.263  48.054  14.040  0.00  0.00    -0.200 N 
ATOM      5  C   LIG    1       21.406  47.843  13.334  0.00  0.00    +0.252 C 
ATOM      6  O   LIG    1       21.931  46.812  12.958  0.00  0.00    -0.270 OA
ATOM      7  C   LIG    1       21.977  49.166  13.060  0.00  0.00    +0.023 C 
ATOM      8  C   LIG    1       23.224  49.417  12.322  0.00  0.00    +0.041 C 
ATOM      9  C   LIG    1       23.620  50.896  12.250  0.00  0.00    +0.005 C 
ATOM     10  C   LIG    1       22.638  51.967  12.763  0.00  0.00    +0.005 C 
ATOM     11  C   LIG    1       21.395  51.539  13.560  0.00  0.00    +0.041 C 
ATOM     12  C   LIG    1       21.181  50.083  13.598  0.00  0.00    +0.023 C 
ENDBRANCH   1   4
BRANCH   1  13
ATOM     13  O   LIG    1       19.698  46.707  15.875  0.00  0.00    -0.444 OA
BRANCH  13  14
ATOM     14  C   LIG    1       18.914  47.239  16.836  0.00  0.00    +0.313 C 
ATOM     15  O   LIG    1       19.224  48.149  17.592  0.00  0.00    -0.250 OA
BRANCH  14  16
ATOM     16  C   LIG    1       17.580  46.595  16.805  0.00  0.00    +0.111 C 
ATOM     17  C   LIG    1       16.402  47.016  15.943  0.00  0.00    -0.014 C 
ATOM     18  C   LIG    1       15.491  45.908  15.456  0.00  0.00    +0.012 C 
ATOM     19  C   LIG    1       16.528  48.141  14.945  0.00  0.00    +0.012 C 
ATOM     20  C   LIG    1       16.384  47.288  17.436  0.00  0.00    +0.032 C 
BRANCH  20  21
ATOM     21  C   LIG    1       16.537  48.639  18.000  0.00  0.00    -0.023 C 
ATOM     22  C   LIG    1       16.087  49.072  19.195  0.00  0.00    -0.079 C 
ATOM     23  C   LIG    1       16.318  50.487  19.651  0.00  0.00    +0.038 C 
ATOM     24  C   LIG    1       15.322  48.215  20.168  0.00  0.00    +0.038 C 
ENDBRANCH  20  21
ENDBRANCH  14  16
ENDBRANCH  13  14
ENDBRANCH   1  13
TORSDOF 5
ENDMDL
