REMARK  Name = 
REMARK                            x       y       z     vdW  Elec       q    Type
REMARK                         _______ _______ _______ _____ _____    ______ ____
ROOT
ATOM      1  C   LIG    1        2.774   2.701  -0.071  0.00  0.00    +0.352 C 
ENDROOT
BRANCH   1   4
ATOM      2  O   LIG    1        1.114   0.322  -0.081  0.00  0.00    -0.270 OA
ATOM      3  C   LIG    1        2.331   0.285  -0.071  0.00  0.00    +0.252 C 
ATOM      4  N   LIG    1        3.209   1.321  -0.061  0.00  0.00    -0.200 N 
ATOM      5  C   LIG    1        4.489   0.862  -0.044  0.00  0.00    +0.252 C 
ATOM      6  O   LIG    1        5.549   1.460  -0.029  0.00  0.00    -0.270 OA
ATOM      7  C   LIG    1        4.407  -0.602  -0.046  0.00  0.00    +0.023 C 
ATOM      8  C   LIG    1        5.559  -1.517  -0.035  0.00  0.00    +0.041 C 
ATOM      9  C   LIG    1        5.178  -3.000  -0.116  0.00  0.00    +0.005 C 
ATOM     10  C   LIG    1        3.695  -3.406  -0.015  0.00  0.00    +0.005 C 
ATOM     11  C   LIG    1        2.605  -2.325  -0.085  0.00  0.00    +0.041 C 
ATOM     12  C   LIG    1        3.125  -0.948  -0.067  0.00  0.00    +0.023 C 
ENDBRANCH   1   4
BRANCH   1  13
ATOM     13  O   LIG    1        3.899   3.563  -0.057  0.00  0.00    -0.444 OA
BRANCH  13  14
ATOM     14  C   LIG    1        3.617   4.882  -0.024  0.00  0.00    +0.313 C 
ATOM     15  O   LIG    1        2.500   5.376   0.038  0.00  0.00    -0.250 OA
BRANCH  14  16
ATOM     16  C   LIG    1        4.877   5.661  -0.014  0.00  0.00    +0.111 C 
ATOM     17  C   LIG    1        5.042   7.104  -0.462  0.00  0.00    -0.014 C 
ATOM     18  C   LIG    1        6.067   7.930   0.286  0.00  0.00    +0.012 C 
ATOM     19  C   LIG    1        3.856   7.922  -0.910  0.00  0.00    +0.012 C 
ATOM     20  C   LIG    1        5.589   5.976  -1.319  0.00  0.00    +0.032 C 
BRANCH  20  21
ATOM     21  C   LIG    1        4.977   5.582  -2.598  0.00  0.00    -0.023 C 
ATOM     22  C   LIG    1        5.244   4.470  -3.313  0.00  0.00    -0.079 C 
ATOM     23  C   LIG    1        4.537   4.187  -4.611  0.00  0.00    +0.038 C 
ATOM     24  C   LIG    1        6.252   3.429  -2.907  0.00  0.00    +0.038 C 
ENDBRANCH  20  21
ENDBRANCH  14  16
ENDBRANCH  13  14
ENDBRANCH   1  13
TORSDOF 5
