MODEL 1
REMARK VINA RESULT:      -9.1      0.000      0.000
REMARK  Name = 
REMARK                            x       y       z     vdW  Elec       q    Type
REMARK                         _______ _______ _______ _____ _____    ______ ____
ROOT
ATOM      1  C   LIG    1       -6.601  -4.563  13.046  0.00  0.00    -0.037 C 
ATOM      2  C   LIG    1       -7.795  -4.041  12.601  0.00  0.00    -0.037 C 
ENDROOT
BRANCH   1   6
ATOM      3  C   LIG    1       -5.338  -5.056  17.248  0.00  0.00    +0.117 A 
ATOM      4  C   LIG    1       -4.419  -5.095  16.222  0.00  0.00    +0.046 A 
ATOM      5  C   LIG    1       -4.847  -4.944  14.892  0.00  0.00    +0.012 A 
ATOM      6  C   LIG    1       -6.200  -4.707  14.537  0.00  0.00    -0.021 A 
ATOM      7  C   LIG    1       -7.075  -4.606  15.633  0.00  0.00    +0.012 A 
ATOM      8  C   LIG    1       -6.670  -4.813  16.965  0.00  0.00    +0.046 A 
BRANCH   3   9
ATOM      9  O   LIG    1       -4.898  -5.252  18.521  0.00  0.00    -0.507 OA
ATOM     10  H   LIG    1       -4.945  -4.410  19.000  0.00  0.00    +0.292 HD
ENDBRANCH   3   9
ENDBRANCH   1   6
BRANCH   2  11
ATOM     11  C   LIG    1       -8.238  -4.100  11.175  0.00  0.00    -0.021 A 
ATOM     12  C   LIG    1       -7.899  -3.072  10.280  0.00  0.00    +0.012 A 
ATOM     13  C   LIG    1       -8.249  -3.150   8.927  0.00  0.00    +0.046 A 
ATOM     14  C   LIG    1       -8.870  -4.292   8.440  0.00  0.00    +0.117 A 
ATOM     15  C   LIG    1       -9.197  -5.336   9.295  0.00  0.00    +0.046 A 
ATOM     16  C   LIG    1       -8.911  -5.223  10.662  0.00  0.00    +0.012 A 
BRANCH  14  17
ATOM     17  O   LIG    1       -9.134  -4.354   7.104  0.00  0.00    -0.507 OA
ATOM     18  H   LIG    1       -9.457  -3.486   6.811  0.00  0.00    +0.292 HD
ENDBRANCH  14  17
ENDBRANCH   2  11
BRANCH   1  19
ATOM     19  C   LIG    1       -5.479  -5.135  12.140  0.00  0.00    +0.032 C 
ATOM     20  C   LIG    1       -5.465  -6.536  11.537  0.00  0.00    +0.009 C 
ENDBRANCH   1  19
BRANCH   2  21
ATOM     21  C   LIG    1       -8.830  -3.389  13.528  0.00  0.00    +0.032 C 
ATOM     22  C   LIG    1      -10.177  -2.843  13.047  0.00  0.00    +0.009 C 
ENDBRANCH   2  21
TORSDOF 6
ENDMDL
MODEL 2
REMARK VINA RESULT:      -9.0      0.343      7.198
REMARK  Name = 
REMARK                            x       y       z     vdW  Elec       q    Type
REMARK                         _______ _______ _______ _____ _____    ______ ____
ROOT
ATOM      1  C   LIG    1       -7.448  -3.952  12.729  0.00  0.00    -0.037 C 
ATOM      2  C   LIG    1       -6.205  -4.363  13.159  0.00  0.00    -0.037 C 
ENDROOT
BRANCH   1   6
ATOM      3  C   LIG    1       -8.779  -4.148   8.524  0.00  0.00    +0.117 A 
ATOM      4  C   LIG    1       -8.940  -5.223   9.370  0.00  0.00    +0.046 A 
ATOM      5  C   LIG    1       -8.500  -5.140  10.701  0.00  0.00    +0.012 A 
ATOM      6  C   LIG    1       -7.922  -3.967  11.253  0.00  0.00    -0.021 A 
ATOM      7  C   LIG    1       -7.853  -2.884  10.360  0.00  0.00    +0.012 A 
ATOM      8  C   LIG    1       -8.235  -2.971   9.009  0.00  0.00    +0.046 A 
BRANCH   3   9
ATOM      9  O   LIG    1       -9.172  -4.276   7.228  0.00  0.00    -0.507 OA
ATOM     10  H   LIG    1       -9.858  -4.961   7.176  0.00  0.00    +0.292 HD
ENDBRANCH   3   9
ENDBRANCH   1   6
BRANCH   2  11
ATOM     11  C   LIG    1       -5.847  -4.528  14.600  0.00  0.00    -0.021 A 
ATOM     12  C   LIG    1       -6.850  -4.612  15.579  0.00  0.00    +0.012 A 
ATOM     13  C   LIG    1       -6.529  -4.836  16.923  0.00  0.00    +0.046 A 
ATOM     14  C   LIG    1       -5.208  -5.058  17.289  0.00  0.00    +0.117 A 
ATOM     15  C   LIG    1       -4.196  -5.005  16.340  0.00  0.00    +0.046 A 
ATOM     16  C   LIG    1       -4.514  -4.707  15.008  0.00  0.00    +0.012 A 
BRANCH  14  17
ATOM     17  O   LIG    1       -4.947  -5.337  18.597  0.00  0.00    -0.507 OA
ATOM     18  H   LIG    1       -5.435  -4.707  19.153  0.00  0.00    +0.292 HD
ENDBRANCH  14  17
ENDBRANCH   2  11
BRANCH   1  19
ATOM     19  C   LIG    1       -8.593  -3.450  13.647  0.00  0.00    +0.032 C 
ATOM     20  C   LIG    1      -10.001  -3.093  13.180  0.00  0.00    +0.009 C 
ENDBRANCH   1  19
BRANCH   2  21
ATOM     21  C   LIG    1       -5.067  -4.750  12.205  0.00  0.00    +0.032 C 
ATOM     22  C   LIG    1       -4.934  -6.131  11.558  0.00  0.00    +0.009 C 
ENDBRANCH   2  21
TORSDOF 6
ENDMDL
MODEL 3
REMARK VINA RESULT:      -8.8      1.198      2.185
REMARK  Name = 
REMARK                            x       y       z     vdW  Elec       q    Type
REMARK                         _______ _______ _______ _____ _____    ______ ____
ROOT
ATOM      1  C   LIG    1       -7.248  -4.096  13.286  0.00  0.00    -0.037 C 
ATOM      2  C   LIG    1       -7.724  -5.055  12.420  0.00  0.00    -0.037 C 
ENDROOT
BRANCH   1   6
ATOM      3  C   LIG    1       -5.384  -5.014  17.182  0.00  0.00    +0.117 A 
ATOM      4  C   LIG    1       -4.633  -4.974  16.028  0.00  0.00    +0.046 A 
ATOM      5  C   LIG    1       -5.250  -4.689  14.799  0.00  0.00    +0.012 A 
ATOM      6  C   LIG    1       -6.632  -4.390  14.679  0.00  0.00    -0.021 A 
ATOM      7  C   LIG    1       -7.328  -4.375  15.900  0.00  0.00    +0.012 A 
ATOM      8  C   LIG    1       -6.735  -4.716  17.130  0.00  0.00    +0.046 A 
BRANCH   3   9
ATOM      9  O   LIG    1       -4.765  -5.340  18.349  0.00  0.00    -0.507 OA
ATOM     10  H   LIG    1       -4.088  -6.010  18.166  0.00  0.00    +0.292 HD
ENDBRANCH   3   9
ENDBRANCH   1   6
BRANCH   2  11
ATOM     11  C   LIG    1       -8.124  -4.765  11.010  0.00  0.00    -0.021 A 
ATOM     12  C   LIG    1       -7.149  -4.593  10.014  0.00  0.00    +0.012 A 
ATOM     13  C   LIG    1       -7.512  -4.390   8.677  0.00  0.00    +0.046 A 
ATOM     14  C   LIG    1       -8.850  -4.436   8.311  0.00  0.00    +0.117 A 
ATOM     15  C   LIG    1       -9.836  -4.628   9.270  0.00  0.00    +0.046 A 
ATOM     16  C   LIG    1       -9.473  -4.758  10.617  0.00  0.00    +0.012 A 
BRANCH  14  17
ATOM     17  O   LIG    1       -9.154  -4.298   6.990  0.00  0.00    -0.507 OA
ATOM     18  H   LIG    1       -8.336  -4.381   6.472  0.00  0.00    +0.292 HD
ENDBRANCH  14  17
ENDBRANCH   2  11
BRANCH   1  19
ATOM     19  C   LIG    1       -7.205  -2.572  13.000  0.00  0.00    +0.032 C 
ATOM     20  C   LIG    1       -8.399  -1.725  12.572  0.00  0.00    +0.009 C 
ENDBRANCH   1  19
BRANCH   2  21
ATOM     21  C   LIG    1       -7.846  -6.541  12.789  0.00  0.00    +0.032 C 
ATOM     22  C   LIG    1       -7.706  -7.682  11.777  0.00  0.00    +0.009 C 
ENDBRANCH   2  21
TORSDOF 6
ENDMDL
MODEL 4
REMARK VINA RESULT:      -8.5      0.685      6.827
REMARK  Name = 
REMARK                            x       y       z     vdW  Elec       q    Type
REMARK                         _______ _______ _______ _____ _____    ______ ____
ROOT
ATOM      1  C   LIG    1       -7.071  -5.035  12.391  0.00  0.00    -0.037 C 
ATOM      2  C   LIG    1       -7.434  -4.335  13.520  0.00  0.00    -0.037 C 
ENDROOT
BRANCH   1   6
ATOM      3  C   LIG    1       -8.682  -4.443   8.323  0.00  0.00    +0.117 A 
ATOM      4  C   LIG    1       -8.997  -5.567   9.054  0.00  0.00    +0.046 A 
ATOM      5  C   LIG    1       -8.464  -5.737  10.343  0.00  0.00    +0.012 A 
ATOM      6  C   LIG    1       -7.633  -4.773  10.970  0.00  0.00    -0.021 A 
ATOM      7  C   LIG    1       -7.409  -3.618  10.202  0.00  0.00    +0.012 A 
ATOM      8  C   LIG    1       -7.887  -3.460   8.887  0.00  0.00    +0.046 A 
BRANCH   3   9
ATOM      9  O   LIG    1       -9.175  -4.330   7.060  0.00  0.00    -0.507 OA
ATOM     10  H   LIG    1       -9.920  -3.709   7.070  0.00  0.00    +0.292 HD
ENDBRANCH   3   9
ENDBRANCH   1   6
BRANCH   2  11
ATOM     11  C   LIG    1       -6.733  -4.470  14.833  0.00  0.00    -0.021 A 
ATOM     12  C   LIG    1       -7.440  -4.863  15.981  0.00  0.00    +0.012 A 
ATOM     13  C   LIG    1       -6.782  -5.060  17.201  0.00  0.00    +0.046 A 
ATOM     14  C   LIG    1       -5.400  -4.944  17.265  0.00  0.00    +0.117 A 
ATOM     15  C   LIG    1       -4.670  -4.580  16.141  0.00  0.00    +0.046 A 
ATOM     16  C   LIG    1       -5.341  -4.312  14.941  0.00  0.00    +0.012 A 
BRANCH  14  17
ATOM     17  O   LIG    1       -4.793  -5.209  18.456  0.00  0.00    -0.507 OA
ATOM     18  H   LIG    1       -5.223  -4.679  19.148  0.00  0.00    +0.292 HD
ENDBRANCH  14  17
ENDBRANCH   2  11
BRANCH   1  19
ATOM     19  C   LIG    1       -6.013  -6.168  12.341  0.00  0.00    +0.032 C 
ATOM     20  C   LIG    1       -4.597  -6.024  11.791  0.00  0.00    +0.009 C 
ENDBRANCH   1  19
BRANCH   2  21
ATOM     21  C   LIG    1       -8.564  -3.295  13.543  0.00  0.00    +0.032 C 
ATOM     22  C   LIG    1       -9.997  -3.588  13.091  0.00  0.00    +0.009 C 
ENDBRANCH   2  21
TORSDOF 6
ENDMDL
MODEL 5
REMARK VINA RESULT:      -6.9      3.029      5.499
REMARK  Name = 
REMARK                            x       y       z     vdW  Elec       q    Type
REMARK                         _______ _______ _______ _____ _____    ______ ____
ROOT
ATOM      1  C   LIG    1       -8.833  -3.621  11.697  0.00  0.00    -0.037 C 
ATOM      2  C   LIG    1       -8.212  -4.587  12.458  0.00  0.00    -0.037 C 
ENDROOT
BRANCH   1   6
ATOM      3  C   LIG    1      -10.589   0.136  13.213  0.00  0.00    +0.117 A 
ATOM      4  C   LIG    1      -11.373  -0.975  12.994  0.00  0.00    +0.046 A 
ATOM      5  C   LIG    1      -10.792  -2.157  12.503  0.00  0.00    +0.012 A 
ATOM      6  C   LIG    1       -9.402  -2.289  12.252  0.00  0.00    -0.021 A 
ATOM      7  C   LIG    1       -8.648  -1.145  12.564  0.00  0.00    +0.012 A 
ATOM      8  C   LIG    1       -9.223   0.063  13.000  0.00  0.00    +0.046 A 
BRANCH   3   9
ATOM      9  O   LIG    1      -11.188   1.279  13.643  0.00  0.00    -0.507 OA
ATOM     10  H   LIG    1      -10.582   2.023  13.498  0.00  0.00    +0.292 HD
ENDBRANCH   3   9
ENDBRANCH   1   6
BRANCH   2  11
ATOM     11  C   LIG    1       -7.497  -5.761  11.872  0.00  0.00    -0.021 A 
ATOM     12  C   LIG    1       -8.069  -7.043  11.927  0.00  0.00    +0.012 A 
ATOM     13  C   LIG    1       -7.441  -8.138  11.322  0.00  0.00    +0.046 A 
ATOM     14  C   LIG    1       -6.278  -7.947  10.588  0.00  0.00    +0.117 A 
ATOM     15  C   LIG    1       -5.702  -6.688  10.495  0.00  0.00    +0.046 A 
ATOM     16  C   LIG    1       -6.293  -5.608  11.164  0.00  0.00    +0.012 A 
BRANCH  14  17
ATOM     17  O   LIG    1       -5.737  -9.029   9.960  0.00  0.00    -0.507 OA
ATOM     18  H   LIG    1       -5.372  -9.628  10.633  0.00  0.00    +0.292 HD
ENDBRANCH  14  17
ENDBRANCH   2  11
BRANCH   1  19
ATOM     19  C   LIG    1       -9.030  -3.680  10.160  0.00  0.00    +0.032 C 
ATOM     20  C   LIG    1       -8.172  -2.944   9.136  0.00  0.00    +0.009 C 
ENDBRANCH   1  19
BRANCH   2  21
ATOM     21  C   LIG    1       -8.136  -4.536  13.990  0.00  0.00    +0.032 C 
ATOM     22  C   LIG    1       -6.936  -3.982  14.763  0.00  0.00    +0.009 C 
ENDBRANCH   2  21
TORSDOF 6
ENDMDL
MODEL 6
REMARK VINA RESULT:      -6.5      3.067      5.503
REMARK  Name = 
REMARK                            x       y       z     vdW  Elec       q    Type
REMARK                         _______ _______ _______ _____ _____    ______ ____
ROOT
ATOM      1  C   LIG    1       -8.700  -3.278  12.481  0.00  0.00    -0.037 C 
ATOM      2  C   LIG    1       -8.386  -3.853  11.270  0.00  0.00    -0.037 C 
ENDROOT
BRANCH   1   6
ATOM      3  C   LIG    1      -11.011   0.439  13.064  0.00  0.00    +0.117 A 
ATOM      4  C   LIG    1       -9.634   0.448  13.095  0.00  0.00    +0.046 A 
ATOM      5  C   LIG    1       -8.921  -0.749  12.916  0.00  0.00    +0.012 A 
ATOM      6  C   LIG    1       -9.552  -1.994  12.656  0.00  0.00    -0.021 A 
ATOM      7  C   LIG    1      -10.953  -1.922  12.566  0.00  0.00    +0.012 A 
ATOM      8  C   LIG    1      -11.682  -0.742  12.801  0.00  0.00    +0.046 A 
BRANCH   3   9
ATOM      9  O   LIG    1      -11.673   1.607  13.289  0.00  0.00    -0.507 OA
ATOM     10  H   LIG    1      -11.063   2.346  13.136  0.00  0.00    +0.292 HD
ENDBRANCH   3   9
ENDBRANCH   1   6
BRANCH   2  11
ATOM     11  C   LIG    1       -7.740  -5.193  11.139  0.00  0.00    -0.021 A 
ATOM     12  C   LIG    1       -6.400  -5.302  10.733  0.00  0.00    +0.012 A 
ATOM     13  C   LIG    1       -5.763  -6.548  10.673  0.00  0.00    +0.046 A 
ATOM     14  C   LIG    1       -6.436  -7.686  11.096  0.00  0.00    +0.117 A 
ATOM     15  C   LIG    1       -7.754  -7.608  11.525  0.00  0.00    +0.046 A 
ATOM     16  C   LIG    1       -8.410  -6.371  11.513  0.00  0.00    +0.012 A 
BRANCH  14  17
ATOM     17  O   LIG    1       -5.757  -8.868  11.083  0.00  0.00    -0.507 OA
ATOM     18  H   LIG    1       -5.548  -9.117  11.999  0.00  0.00    +0.292 HD
ENDBRANCH  14  17
ENDBRANCH   2  11
BRANCH   1  19
ATOM     19  C   LIG    1       -8.296  -3.837  13.871  0.00  0.00    +0.032 C 
ATOM     20  C   LIG    1       -6.885  -3.820  14.448  0.00  0.00    +0.009 C 
ENDBRANCH   1  19
BRANCH   2  21
ATOM     21  C   LIG    1       -8.716  -3.206   9.917  0.00  0.00    +0.032 C 
ATOM     22  C   LIG    1       -8.079  -1.905   9.420  0.00  0.00    +0.009 C 
ENDBRANCH   2  21
TORSDOF 6
ENDMDL
MODEL 7
REMARK VINA RESULT:      -6.5      3.069      5.498
REMARK  Name = 
REMARK                            x       y       z     vdW  Elec       q    Type
REMARK                         _______ _______ _______ _____ _____    ______ ____
ROOT
ATOM      1  C   LIG    1       -8.354  -3.596  11.358  0.00  0.00    -0.037 C 
ATOM      2  C   LIG    1       -8.724  -3.028  12.557  0.00  0.00    -0.037 C 
ENDROOT
BRANCH   1   6
ATOM      3  C   LIG    1       -6.466  -7.574  11.036  0.00  0.00    +0.117 A 
ATOM      4  C   LIG    1       -7.794  -7.444  11.380  0.00  0.00    +0.046 A 
ATOM      5  C   LIG    1       -8.369  -6.167  11.485  0.00  0.00    +0.012 A 
ATOM      6  C   LIG    1       -7.656  -4.972  11.209  0.00  0.00    -0.021 A 
ATOM      7  C   LIG    1       -6.329  -5.176  10.793  0.00  0.00    +0.012 A 
ATOM      8  C   LIG    1       -5.722  -6.445  10.740  0.00  0.00    +0.046 A 
BRANCH   3   9
ATOM      9  O   LIG    1       -5.926  -8.822  10.989  0.00  0.00    -0.507 OA
ATOM     10  H   LIG    1       -6.333  -9.364  11.683  0.00  0.00    +0.292 HD
ENDBRANCH   3   9
ENDBRANCH   1   6
BRANCH   2  11
ATOM     11  C   LIG    1       -9.571  -1.802  12.660  0.00  0.00    -0.021 A 
ATOM     12  C   LIG    1      -10.966  -1.885  12.520  0.00  0.00    +0.012 A 
ATOM     13  C   LIG    1      -11.776  -0.755  12.683  0.00  0.00    +0.046 A 
ATOM     14  C   LIG    1      -11.207   0.451  13.067  0.00  0.00    +0.117 A 
ATOM     15  C   LIG    1       -9.833   0.560  13.238  0.00  0.00    +0.046 A 
ATOM     16  C   LIG    1       -9.018  -0.555  13.001  0.00  0.00    +0.012 A 
BRANCH  14  17
ATOM     17  O   LIG    1      -12.039   1.509  13.279  0.00  0.00    -0.507 OA
ATOM     18  H   LIG    1      -12.929   1.272  12.969  0.00  0.00    +0.292 HD
ENDBRANCH  14  17
ENDBRANCH   2  11
BRANCH   1  19
ATOM     19  C   LIG    1       -8.610  -2.979   9.958  0.00  0.00    +0.032 C 
ATOM     20  C   LIG    1       -8.033  -1.657   9.461  0.00  0.00    +0.009 C 
ENDBRANCH   1  19
BRANCH   2  21
ATOM     21  C   LIG    1       -8.354  -3.624  13.923  0.00  0.00    +0.032 C 
ATOM     22  C   LIG    1       -6.920  -3.702  14.456  0.00  0.00    +0.009 C 
ENDBRANCH   2  21
TORSDOF 6
ENDMDL
MODEL 8
REMARK VINA RESULT:      -6.5      3.596      6.118
REMARK  Name = 
REMARK                            x       y       z     vdW  Elec       q    Type
REMARK                         _______ _______ _______ _____ _____    ______ ____
ROOT
ATOM      1  C   LIG    1       -9.665  -2.412  12.272  0.00  0.00    -0.037 C 
ATOM      2  C   LIG    1       -8.607  -2.578  11.406  0.00  0.00    -0.037 C 
ENDROOT
BRANCH   1   6
ATOM      3  C   LIG    1      -11.840   1.377  12.910  0.00  0.00    +0.117 A 
ATOM      4  C   LIG    1      -12.498   0.245  12.482  0.00  0.00    +0.046 A 
ATOM      5  C   LIG    1      -11.782  -0.947  12.278  0.00  0.00    +0.012 A 
ATOM      6  C   LIG    1      -10.392  -1.068  12.533  0.00  0.00    -0.021 A 
ATOM      7  C   LIG    1       -9.794   0.101  13.036  0.00  0.00    +0.012 A 
ATOM      8  C   LIG    1      -10.486   1.317  13.190  0.00  0.00    +0.046 A 
BRANCH   3   9
ATOM      9  O   LIG    1      -12.553   2.527  13.052  0.00  0.00    -0.507 OA
ATOM     10  H   LIG    1      -12.388   2.888  13.938  0.00  0.00    +0.292 HD
ENDBRANCH   3   9
ENDBRANCH   1   6
BRANCH   2  11
ATOM     11  C   LIG    1       -8.059  -3.914  11.024  0.00  0.00    -0.021 A 
ATOM     12  C   LIG    1       -8.597  -4.620   9.934  0.00  0.00    +0.012 A 
ATOM     13  C   LIG    1       -8.047  -5.840   9.523  0.00  0.00    +0.046 A 
ATOM     14  C   LIG    1       -6.906  -6.327  10.147  0.00  0.00    +0.117 A 
ATOM     15  C   LIG    1       -6.337  -5.641  11.211  0.00  0.00    +0.046 A 
ATOM     16  C   LIG    1       -6.934  -4.458  11.667  0.00  0.00    +0.012 A 
BRANCH  14  17
ATOM     17  O   LIG    1       -6.366  -7.485   9.672  0.00  0.00    -0.507 OA
ATOM     18  H   LIG    1       -5.985  -7.978  10.418  0.00  0.00    +0.292 HD
ENDBRANCH  14  17
ENDBRANCH   2  11
BRANCH   1  19
ATOM     19  C   LIG    1      -10.335  -3.543  13.096  0.00  0.00    +0.032 C 
ATOM     20  C   LIG    1      -11.147  -4.694  12.510  0.00  0.00    +0.009 C 
ENDBRANCH   1  19
BRANCH   2  21
ATOM     21  C   LIG    1       -7.907  -1.412  10.694  0.00  0.00    +0.032 C 
ATOM     22  C   LIG    1       -8.016  -1.147   9.190  0.00  0.00    +0.009 C 
ENDBRANCH   2  21
TORSDOF 6
ENDMDL
MODEL 9
REMARK VINA RESULT:      -6.4      3.584      5.876
REMARK  Name = 
REMARK                            x       y       z     vdW  Elec       q    Type
REMARK                         _______ _______ _______ _____ _____    ______ ____
ROOT
ATOM      1  C   LIG    1       -8.692  -2.475  11.418  0.00  0.00    -0.037 C 
ATOM      2  C   LIG    1       -9.722  -2.369  12.326  0.00  0.00    -0.037 C 
ENDROOT
BRANCH   1   6
ATOM      3  C   LIG    1       -6.711  -6.229  10.200  0.00  0.00    +0.117 A 
ATOM      4  C   LIG    1       -6.266  -5.513  11.289  0.00  0.00    +0.046 A 
ATOM      5  C   LIG    1       -6.907  -4.317  11.652  0.00  0.00    +0.012 A 
ATOM      6  C   LIG    1       -8.043  -3.810  10.969  0.00  0.00    -0.021 A 
ATOM      7  C   LIG    1       -8.491  -4.623   9.913  0.00  0.00    +0.012 A 
ATOM      8  C   LIG    1       -7.824  -5.792   9.502  0.00  0.00    +0.046 A 
BRANCH   3   9
ATOM      9  O   LIG    1       -6.039  -7.358   9.845  0.00  0.00    -0.507 OA
ATOM     10  H   LIG    1       -6.425  -7.706   9.026  0.00  0.00    +0.292 HD
ENDBRANCH   3   9
ENDBRANCH   1   6
BRANCH   2  11
ATOM     11  C   LIG    1      -10.460  -1.097  12.587  0.00  0.00    -0.021 A 
ATOM     12  C   LIG    1       -9.775   0.045  13.034  0.00  0.00    +0.012 A 
ATOM     13  C   LIG    1      -10.444   1.262  13.216  0.00  0.00    +0.046 A 
ATOM     14  C   LIG    1      -11.786   1.368  12.876  0.00  0.00    +0.117 A 
ATOM     15  C   LIG    1      -12.485   0.263  12.409  0.00  0.00    +0.046 A 
ATOM     16  C   LIG    1      -11.829  -0.971  12.299  0.00  0.00    +0.012 A 
BRANCH  14  17
ATOM     17  O   LIG    1      -12.382   2.587  13.007  0.00  0.00    -0.507 OA
ATOM     18  H   LIG    1      -11.919   3.086  13.701  0.00  0.00    +0.292 HD
ENDBRANCH  14  17
ENDBRANCH   2  11
BRANCH   1  19
ATOM     19  C   LIG    1       -8.038  -1.290  10.660  0.00  0.00    +0.032 C 
ATOM     20  C   LIG    1       -7.981  -1.141   9.143  0.00  0.00    +0.009 C 
ENDBRANCH   1  19
BRANCH   2  21
ATOM     21  C   LIG    1      -10.264  -3.559  13.131  0.00  0.00    +0.032 C 
ATOM     22  C   LIG    1      -11.070  -4.705  12.514  0.00  0.00    +0.009 C 
ENDBRANCH   2  21
TORSDOF 6
ENDMDL
