MODEL 1
REMARK VINA RESULT:      -8.3      0.000      0.000
REMARK  Name = 
REMARK                            x       y       z     vdW  Elec       q    Type
REMARK                         _______ _______ _______ _____ _____    ______ ____
ROOT
ATOM      1  C   LIG    1       59.156  45.812  30.454  0.00  0.00    -0.037 C 
ATOM      2  C   LIG    1       60.154  46.107  29.553  0.00  0.00    -0.037 C 
ENDROOT
BRANCH   1   6
ATOM      3  C   LIG    1       54.811  46.030  29.696  0.00  0.00    +0.117 A 
ATOM      4  C   LIG    1       55.309  45.330  30.773  0.00  0.00    +0.046 A 
ATOM      5  C   LIG    1       56.696  45.268  30.988  0.00  0.00    +0.012 A 
ATOM      6  C   LIG    1       57.637  45.936  30.163  0.00  0.00    -0.021 A 
ATOM      7  C   LIG    1       57.062  46.690  29.126  0.00  0.00    +0.012 A 
ATOM      8  C   LIG    1       55.680  46.714  28.864  0.00  0.00    +0.046 A 
BRANCH   3   9
ATOM      9  O   LIG    1       53.466  46.031  29.488  0.00  0.00    -0.507 OA
ATOM     10  H   LIG    1       53.089  45.229  29.883  0.00  0.00    +0.292 HD
ENDBRANCH   3   9
ENDBRANCH   1   6
BRANCH   2  11
ATOM     11  C   LIG    1       61.595  45.787  29.788  0.00  0.00    -0.021 A 
ATOM     12  C   LIG    1       62.221  44.750  29.077  0.00  0.00    +0.012 A 
ATOM     13  C   LIG    1       63.586  44.487  29.238  0.00  0.00    +0.046 A 
ATOM     14  C   LIG    1       64.355  45.309  30.050  0.00  0.00    +0.117 A 
ATOM     15  C   LIG    1       63.770  46.358  30.748  0.00  0.00    +0.046 A 
ATOM     16  C   LIG    1       62.390  46.572  30.641  0.00  0.00    +0.012 A 
BRANCH  14  17
ATOM     17  O   LIG    1       65.692  45.057  30.128  0.00  0.00    -0.507 OA
ATOM     18  H   LIG    1       66.122  45.797  30.589  0.00  0.00    +0.292 HD
ENDBRANCH  14  17
ENDBRANCH   2  11
BRANCH   1  19
ATOM     19  C   LIG    1       59.376  45.266  31.889  0.00  0.00    +0.032 C 
ATOM     20  C   LIG    1       59.550  46.124  33.138  0.00  0.00    +0.009 C 
ENDBRANCH   1  19
BRANCH   2  21
ATOM     21  C   LIG    1       59.893  46.746  28.181  0.00  0.00    +0.032 C 
ATOM     22  C   LIG    1       60.818  47.783  27.538  0.00  0.00    +0.009 C 
ENDBRANCH   2  21
TORSDOF 6
ENDMDL
MODEL 2
REMARK VINA RESULT:      -8.2      0.170      7.189
REMARK  Name = 
REMARK                            x       y       z     vdW  Elec       q    Type
REMARK                         _______ _______ _______ _____ _____    ______ ____
ROOT
ATOM      1  C   LIG    1       60.098  46.152  29.644  0.00  0.00    -0.037 C 
ATOM      2  C   LIG    1       59.103  45.801  30.529  0.00  0.00    -0.037 C 
ENDROOT
BRANCH   1   6
ATOM      3  C   LIG    1       64.399  45.387  30.289  0.00  0.00    +0.117 A 
ATOM      4  C   LIG    1       63.684  44.672  29.354  0.00  0.00    +0.046 A 
ATOM      5  C   LIG    1       62.314  44.928  29.173  0.00  0.00    +0.012 A 
ATOM      6  C   LIG    1       61.614  45.935  29.887  0.00  0.00    -0.021 A 
ATOM      7  C   LIG    1       62.416  46.676  30.773  0.00  0.00    +0.012 A 
ATOM      8  C   LIG    1       63.774  46.393  31.006  0.00  0.00    +0.046 A 
BRANCH   3   9
ATOM      9  O   LIG    1       65.712  45.083  30.474  0.00  0.00    -0.507 OA
ATOM     10  H   LIG    1       66.212  45.909  30.579  0.00  0.00    +0.292 HD
ENDBRANCH   3   9
ENDBRANCH   1   6
BRANCH   2  11
ATOM     11  C   LIG    1       57.649  45.835  30.187  0.00  0.00    -0.021 A 
ATOM     12  C   LIG    1       56.718  45.125  30.962  0.00  0.00    +0.012 A 
ATOM     13  C   LIG    1       55.346  45.205  30.694  0.00  0.00    +0.046 A 
ATOM     14  C   LIG    1       54.887  46.058  29.700  0.00  0.00    +0.117 A 
ATOM     15  C   LIG    1       55.781  46.792  28.932  0.00  0.00    +0.046 A 
ATOM     16  C   LIG    1       57.157  46.653  29.155  0.00  0.00    +0.012 A 
BRANCH  14  17
ATOM     17  O   LIG    1       53.540  46.155  29.515  0.00  0.00    -0.507 OA
ATOM     18  H   LIG    1       53.300  45.661  28.714  0.00  0.00    +0.292 HD
ENDBRANCH  14  17
ENDBRANCH   2  11
BRANCH   1  19
ATOM     19  C   LIG    1       59.873  46.780  28.244  0.00  0.00    +0.032 C 
ATOM     20  C   LIG    1       60.776  47.821  27.592  0.00  0.00    +0.009 C 
ENDBRANCH   1  19
BRANCH   2  21
ATOM     21  C   LIG    1       59.378  45.282  31.948  0.00  0.00    +0.032 C 
ATOM     22  C   LIG    1       59.538  46.191  33.169  0.00  0.00    +0.009 C 
ENDBRANCH   2  21
TORSDOF 6
ENDMDL
MODEL 3
REMARK VINA RESULT:      -7.9      2.176      3.309
REMARK  Name = 
REMARK                            x       y       z     vdW  Elec       q    Type
REMARK                         _______ _______ _______ _____ _____    ______ ____
ROOT
ATOM      1  C   LIG    1       61.663  46.257  31.133  0.00  0.00    -0.037 C 
ATOM      2  C   LIG    1       62.753  45.494  30.773  0.00  0.00    -0.037 C 
ENDROOT
BRANCH   1   6
ATOM      3  C   LIG    1       57.784  46.205  29.024  0.00  0.00    +0.117 A 
ATOM      4  C   LIG    1       57.946  45.557  30.229  0.00  0.00    +0.046 A 
ATOM      5  C   LIG    1       59.192  45.580  30.876  0.00  0.00    +0.012 A 
ATOM      6  C   LIG    1       60.314  46.286  30.369  0.00  0.00    -0.021 A 
ATOM      7  C   LIG    1       60.064  46.985  29.176  0.00  0.00    +0.012 A 
ATOM      8  C   LIG    1       58.838  46.923  28.487  0.00  0.00    +0.046 A 
BRANCH   3   9
ATOM      9  O   LIG    1       56.578  46.123  28.399  0.00  0.00    -0.507 OA
ATOM     10  H   LIG    1       56.478  46.892  27.815  0.00  0.00    +0.292 HD
ENDBRANCH   3   9
ENDBRANCH   1   6
BRANCH   2  11
ATOM     11  C   LIG    1       63.962  45.331  31.634  0.00  0.00    -0.021 A 
ATOM     12  C   LIG    1       65.050  46.211  31.510  0.00  0.00    +0.012 A 
ATOM     13  C   LIG    1       66.160  46.111  32.358  0.00  0.00    +0.046 A 
ATOM     14  C   LIG    1       66.157  45.182  33.390  0.00  0.00    +0.117 A 
ATOM     15  C   LIG    1       65.085  44.314  33.554  0.00  0.00    +0.046 A 
ATOM     16  C   LIG    1       64.010  44.368  32.658  0.00  0.00    +0.012 A 
BRANCH  14  17
ATOM     17  O   LIG    1       67.228  45.162  34.232  0.00  0.00    -0.507 OA
ATOM     18  H   LIG    1       68.035  45.313  33.712  0.00  0.00    +0.292 HD
ENDBRANCH  14  17
ENDBRANCH   2  11
BRANCH   1  19
ATOM     19  C   LIG    1       61.585  47.177  32.379  0.00  0.00    +0.032 C 
ATOM     20  C   LIG    1       61.284  46.709  33.799  0.00  0.00    +0.009 C 
ENDBRANCH   1  19
BRANCH   2  21
ATOM     21  C   LIG    1       62.823  44.681  29.473  0.00  0.00    +0.032 C 
ATOM     22  C   LIG    1       63.260  45.267  28.127  0.00  0.00    +0.009 C 
ENDBRANCH   2  21
TORSDOF 6
ENDMDL
MODEL 4
REMARK VINA RESULT:      -7.7      2.151      7.412
REMARK  Name = 
REMARK                            x       y       z     vdW  Elec       q    Type
REMARK                         _______ _______ _______ _____ _____    ______ ____
ROOT
ATOM      1  C   LIG    1       62.578  45.589  30.749  0.00  0.00    -0.037 C 
ATOM      2  C   LIG    1       61.455  46.305  31.102  0.00  0.00    -0.037 C 
ENDROOT
BRANCH   1   6
ATOM      3  C   LIG    1       66.106  45.119  33.363  0.00  0.00    +0.117 A 
ATOM      4  C   LIG    1       65.020  44.280  33.480  0.00  0.00    +0.046 A 
ATOM      5  C   LIG    1       63.905  44.456  32.643  0.00  0.00    +0.012 A 
ATOM      6  C   LIG    1       63.848  45.446  31.628  0.00  0.00    -0.021 A 
ATOM      7  C   LIG    1       65.015  46.221  31.512  0.00  0.00    +0.012 A 
ATOM      8  C   LIG    1       66.115  46.095  32.381  0.00  0.00    +0.046 A 
BRANCH   3   9
ATOM      9  O   LIG    1       67.150  44.954  34.220  0.00  0.00    -0.507 OA
ATOM     10  H   LIG    1       67.096  44.066  34.609  0.00  0.00    +0.292 HD
ENDBRANCH   3   9
ENDBRANCH   1   6
BRANCH   2  11
ATOM     11  C   LIG    1       60.176  46.261  30.332  0.00  0.00    -0.021 A 
ATOM     12  C   LIG    1       59.174  45.336  30.667  0.00  0.00    +0.012 A 
ATOM     13  C   LIG    1       57.944  45.330  29.997  0.00  0.00    +0.046 A 
ATOM     14  C   LIG    1       57.676  46.301  29.042  0.00  0.00    +0.117 A 
ATOM     15  C   LIG    1       58.637  47.245  28.706  0.00  0.00    +0.046 A 
ATOM     16  C   LIG    1       59.893  47.200  29.326  0.00  0.00    +0.012 A 
BRANCH  14  17
ATOM     17  O   LIG    1       56.443  46.300  28.462  0.00  0.00    -0.507 OA
ATOM     18  H   LIG    1       56.351  45.493  27.928  0.00  0.00    +0.292 HD
ENDBRANCH  14  17
ENDBRANCH   2  11
BRANCH   1  19
ATOM     19  C   LIG    1       62.747  44.774  29.441  0.00  0.00    +0.032 C 
ATOM     20  C   LIG    1       63.094  45.362  28.077  0.00  0.00    +0.009 C 
ENDBRANCH   1  19
BRANCH   2  21
ATOM     21  C   LIG    1       61.374  47.185  32.358  0.00  0.00    +0.032 C 
ATOM     22  C   LIG    1       61.071  46.642  33.757  0.00  0.00    +0.009 C 
ENDBRANCH   2  21
TORSDOF 6
ENDMDL
MODEL 5
REMARK VINA RESULT:      -7.2      2.258      7.108
REMARK  Name = 
REMARK                            x       y       z     vdW  Elec       q    Type
REMARK                         _______ _______ _______ _____ _____    ______ ____
ROOT
ATOM      1  C   LIG    1       62.172  46.087  31.869  0.00  0.00    -0.037 C 
ATOM      2  C   LIG    1       61.798  45.707  30.599  0.00  0.00    -0.037 C 
ENDROOT
BRANCH   1   6
ATOM      3  C   LIG    1       66.158  45.589  33.701  0.00  0.00    +0.117 A 
ATOM      4  C   LIG    1       65.022  45.157  34.348  0.00  0.00    +0.046 A 
ATOM      5  C   LIG    1       63.763  45.335  33.748  0.00  0.00    +0.012 A 
ATOM      6  C   LIG    1       63.593  45.911  32.463  0.00  0.00    -0.021 A 
ATOM      7  C   LIG    1       64.796  46.264  31.826  0.00  0.00    +0.012 A 
ATOM      8  C   LIG    1       66.057  46.146  32.437  0.00  0.00    +0.046 A 
BRANCH   3   9
ATOM      9  O   LIG    1       67.357  45.446  34.328  0.00  0.00    -0.507 OA
ATOM     10  H   LIG    1       67.862  44.749  33.881  0.00  0.00    +0.292 HD
ENDBRANCH   3   9
ENDBRANCH   1   6
BRANCH   2  11
ATOM     11  C   LIG    1       60.486  46.070  29.985  0.00  0.00    -0.021 A 
ATOM     12  C   LIG    1       59.388  45.199  30.082  0.00  0.00    +0.012 A 
ATOM     13  C   LIG    1       58.135  45.558  29.571  0.00  0.00    +0.046 A 
ATOM     14  C   LIG    1       57.948  46.822  29.030  0.00  0.00    +0.117 A 
ATOM     15  C   LIG    1       59.008  47.715  28.942  0.00  0.00    +0.046 A 
ATOM     16  C   LIG    1       60.277  47.325  29.387  0.00  0.00    +0.012 A 
BRANCH  14  17
ATOM     17  O   LIG    1       56.697  47.154  28.604  0.00  0.00    -0.507 OA
ATOM     18  H   LIG    1       56.046  46.720  29.181  0.00  0.00    +0.292 HD
ENDBRANCH  14  17
ENDBRANCH   2  11
BRANCH   1  19
ATOM     19  C   LIG    1       61.252  46.792  32.901  0.00  0.00    +0.032 C 
ATOM     20  C   LIG    1       60.073  46.141  33.616  0.00  0.00    +0.009 C 
ENDBRANCH   1  19
BRANCH   2  21
ATOM     21  C   LIG    1       62.711  44.915  29.652  0.00  0.00    +0.032 C 
ATOM     22  C   LIG    1       62.609  44.977  28.125  0.00  0.00    +0.009 C 
ENDBRANCH   2  21
TORSDOF 6
ENDMDL
MODEL 6
REMARK VINA RESULT:      -7.0      2.505      4.217
REMARK  Name = 
REMARK                            x       y       z     vdW  Elec       q    Type
REMARK                         _______ _______ _______ _____ _____    ______ ____
ROOT
ATOM      1  C   LIG    1       61.937  45.903  31.102  0.00  0.00    -0.037 C 
ATOM      2  C   LIG    1       62.232  46.086  32.435  0.00  0.00    -0.037 C 
ENDROOT
BRANCH   1   6
ATOM      3  C   LIG    1       58.068  46.875  29.208  0.00  0.00    +0.117 A 
ATOM      4  C   LIG    1       58.176  45.841  30.111  0.00  0.00    +0.046 A 
ATOM      5  C   LIG    1       59.420  45.545  30.694  0.00  0.00    +0.012 A 
ATOM      6  C   LIG    1       60.595  46.296  30.431  0.00  0.00    -0.021 A 
ATOM      7  C   LIG    1       60.403  47.381  29.559  0.00  0.00    +0.012 A 
ATOM      8  C   LIG    1       59.177  47.653  28.923  0.00  0.00    +0.046 A 
BRANCH   3   9
ATOM      9  O   LIG    1       56.861  47.106  28.625  0.00  0.00    -0.507 OA
ATOM     10  H   LIG    1       56.389  47.779  29.142  0.00  0.00    +0.292 HD
ENDBRANCH   3   9
ENDBRANCH   1   6
BRANCH   2  11
ATOM     11  C   LIG    1       63.596  45.887  33.009  0.00  0.00    -0.021 A 
ATOM     12  C   LIG    1       63.965  44.648  33.559  0.00  0.00    +0.012 A 
ATOM     13  C   LIG    1       65.262  44.428  34.038  0.00  0.00    +0.046 A 
ATOM     14  C   LIG    1       66.225  45.418  33.898  0.00  0.00    +0.117 A 
ATOM     15  C   LIG    1       65.898  46.645  33.337  0.00  0.00    +0.046 A 
ATOM     16  C   LIG    1       64.580  46.887  32.926  0.00  0.00    +0.012 A 
BRANCH  14  17
ATOM     17  O   LIG    1       67.491  45.139  34.318  0.00  0.00    -0.507 OA
ATOM     18  H   LIG    1       67.448  44.785  35.222  0.00  0.00    +0.292 HD
ENDBRANCH  14  17
ENDBRANCH   2  11
BRANCH   1  19
ATOM     19  C   LIG    1       62.906  45.318  30.041  0.00  0.00    +0.032 C 
ATOM     20  C   LIG    1       63.978  46.110  29.299  0.00  0.00    +0.009 C 
ENDBRANCH   1  19
BRANCH   2  21
ATOM     21  C   LIG    1       61.205  46.568  33.469  0.00  0.00    +0.032 C 
ATOM     22  C   LIG    1       61.563  46.945  34.909  0.00  0.00    +0.009 C 
ENDBRANCH   2  21
TORSDOF 6
ENDMDL
MODEL 7
REMARK VINA RESULT:      -6.8      3.714      5.855
REMARK  Name = 
REMARK                            x       y       z     vdW  Elec       q    Type
REMARK                         _______ _______ _______ _____ _____    ______ ____
ROOT
ATOM      1  C   LIG    1       62.913  46.480  31.210  0.00  0.00    -0.037 C 
ATOM      2  C   LIG    1       62.292  46.599  32.434  0.00  0.00    -0.037 C 
ENDROOT
BRANCH   1   6
ATOM      3  C   LIG    1       61.056  47.612  27.368  0.00  0.00    +0.117 A 
ATOM      4  C   LIG    1       61.923  48.464  28.015  0.00  0.00    +0.046 A 
ATOM      5  C   LIG    1       62.495  48.085  29.241  0.00  0.00    +0.012 A 
ATOM      6  C   LIG    1       62.258  46.825  29.848  0.00  0.00    -0.021 A 
ATOM      7  C   LIG    1       61.423  45.974  29.103  0.00  0.00    +0.012 A 
ATOM      8  C   LIG    1       60.798  46.362  27.903  0.00  0.00    +0.046 A 
BRANCH   3   9
ATOM      9  O   LIG    1       60.483  48.028  26.206  0.00  0.00    -0.507 OA
ATOM     10  H   LIG    1       59.636  47.566  26.094  0.00  0.00    +0.292 HD
ENDBRANCH   3   9
ENDBRANCH   1   6
BRANCH   2  11
ATOM     11  C   LIG    1       63.008  46.454  33.737  0.00  0.00    -0.021 A 
ATOM     12  C   LIG    1       63.120  47.546  34.614  0.00  0.00    +0.012 A 
ATOM     13  C   LIG    1       63.728  47.404  35.867  0.00  0.00    +0.046 A 
ATOM     14  C   LIG    1       64.156  46.153  36.288  0.00  0.00    +0.117 A 
ATOM     15  C   LIG    1       64.037  45.049  35.454  0.00  0.00    +0.046 A 
ATOM     16  C   LIG    1       63.496  45.210  34.172  0.00  0.00    +0.012 A 
BRANCH  14  17
ATOM     17  O   LIG    1       64.682  46.048  37.541  0.00  0.00    -0.507 OA
ATOM     18  H   LIG    1       65.641  46.198  37.489  0.00  0.00    +0.292 HD
ENDBRANCH  14  17
ENDBRANCH   2  11
BRANCH   1  19
ATOM     19  C   LIG    1       64.380  46.025  30.990  0.00  0.00    +0.032 C 
ATOM     20  C   LIG    1       64.915  45.366  29.723  0.00  0.00    +0.009 C 
ENDBRANCH   1  19
BRANCH   2  21
ATOM     21  C   LIG    1       60.806  46.949  32.596  0.00  0.00    +0.032 C 
ATOM     22  C   LIG    1       59.813  46.092  33.385  0.00  0.00    +0.009 C 
ENDBRANCH   2  21
TORSDOF 6
ENDMDL
MODEL 8
REMARK VINA RESULT:      -6.5      3.561      5.228
REMARK  Name = 
REMARK                            x       y       z     vdW  Elec       q    Type
REMARK                         _______ _______ _______ _____ _____    ______ ____
ROOT
ATOM      1  C   LIG    1       62.567  46.578  31.372  0.00  0.00    -0.037 C 
ATOM      2  C   LIG    1       63.613  45.685  31.450  0.00  0.00    -0.037 C 
ENDROOT
BRANCH   1   6
ATOM      3  C   LIG    1       60.909  48.229  27.627  0.00  0.00    +0.117 A 
ATOM      4  C   LIG    1       60.092  47.631  28.562  0.00  0.00    +0.046 A 
ATOM      5  C   LIG    1       60.645  47.105  29.742  0.00  0.00    +0.012 A 
ATOM      6  C   LIG    1       62.026  47.193  30.055  0.00  0.00    -0.021 A 
ATOM      7  C   LIG    1       62.792  47.877  29.096  0.00  0.00    +0.012 A 
ATOM      8  C   LIG    1       62.263  48.357  27.884  0.00  0.00    +0.046 A 
BRANCH   3   9
ATOM      9  O   LIG    1       60.350  48.685  26.474  0.00  0.00    -0.507 OA
ATOM     10  H   LIG    1       59.424  48.398  26.441  0.00  0.00    +0.292 HD
ENDBRANCH   3   9
ENDBRANCH   1   6
BRANCH   2  11
ATOM     11  C   LIG    1       63.980  44.956  32.701  0.00  0.00    -0.021 A 
ATOM     12  C   LIG    1       64.035  45.634  33.930  0.00  0.00    +0.012 A 
ATOM     13  C   LIG    1       64.311  44.949  35.120  0.00  0.00    +0.046 A 
ATOM     14  C   LIG    1       64.455  43.568  35.102  0.00  0.00    +0.117 A 
ATOM     15  C   LIG    1       64.382  42.867  33.906  0.00  0.00    +0.046 A 
ATOM     16  C   LIG    1       64.180  43.565  32.709  0.00  0.00    +0.012 A 
BRANCH  14  17
ATOM     17  O   LIG    1       64.657  42.934  36.291  0.00  0.00    -0.507 OA
ATOM     18  H   LIG    1       63.800  42.626  36.629  0.00  0.00    +0.292 HD
ENDBRANCH  14  17
ENDBRANCH   2  11
BRANCH   1  19
ATOM     19  C   LIG    1       61.728  47.084  32.575  0.00  0.00    +0.032 C 
ATOM     20  C   LIG    1       60.608  46.303  33.255  0.00  0.00    +0.009 C 
ENDBRANCH   1  19
BRANCH   2  21
ATOM     21  C   LIG    1       64.482  45.295  30.246  0.00  0.00    +0.032 C 
ATOM     22  C   LIG    1       64.056  44.279  29.183  0.00  0.00    +0.009 C 
ENDBRANCH   2  21
TORSDOF 6
ENDMDL
MODEL 9
REMARK VINA RESULT:      -6.5      3.654      6.774
REMARK  Name = 
REMARK                            x       y       z     vdW  Elec       q    Type
REMARK                         _______ _______ _______ _____ _____    ______ ____
ROOT
ATOM      1  C   LIG    1       62.113  46.576  32.446  0.00  0.00    -0.037 C 
ATOM      2  C   LIG    1       62.748  46.557  31.224  0.00  0.00    -0.037 C 
ENDROOT
BRANCH   1   6
ATOM      3  C   LIG    1       64.156  46.227  36.345  0.00  0.00    +0.117 A 
ATOM      4  C   LIG    1       63.500  47.385  35.989  0.00  0.00    +0.046 A 
ATOM      5  C   LIG    1       62.865  47.475  34.739  0.00  0.00    +0.012 A 
ATOM      6  C   LIG    1       62.822  46.400  33.814  0.00  0.00    -0.021 A 
ATOM      7  C   LIG    1       63.447  45.225  34.266  0.00  0.00    +0.012 A 
ATOM      8  C   LIG    1       64.136  45.139  35.490  0.00  0.00    +0.046 A 
BRANCH   3   9
ATOM      9  O   LIG    1       64.802  46.188  37.542  0.00  0.00    -0.507 OA
ATOM     10  H   LIG    1       65.505  45.521  37.495  0.00  0.00    +0.292 HD
ENDBRANCH   3   9
ENDBRANCH   1   6
BRANCH   2  11
ATOM     11  C   LIG    1       62.076  46.928  29.943  0.00  0.00    -0.021 A 
ATOM     12  C   LIG    1       62.393  48.133  29.294  0.00  0.00    +0.012 A 
ATOM     13  C   LIG    1       61.822  48.460  28.059  0.00  0.00    +0.046 A 
ATOM     14  C   LIG    1       60.990  47.549  27.422  0.00  0.00    +0.117 A 
ATOM     15  C   LIG    1       60.676  46.339  28.026  0.00  0.00    +0.046 A 
ATOM     16  C   LIG    1       61.191  46.048  29.296  0.00  0.00    +0.012 A 
BRANCH  14  17
ATOM     17  O   LIG    1       60.508  47.880  26.191  0.00  0.00    -0.507 OA
ATOM     18  H   LIG    1       60.469  47.076  25.646  0.00  0.00    +0.292 HD
ENDBRANCH  14  17
ENDBRANCH   2  11
BRANCH   1  19
ATOM     19  C   LIG    1       60.597  46.821  32.665  0.00  0.00    +0.032 C 
ATOM     20  C   LIG    1       59.697  45.994  33.578  0.00  0.00    +0.009 C 
ENDBRANCH   1  19
BRANCH   2  21
ATOM     21  C   LIG    1       64.232  46.204  31.048  0.00  0.00    +0.032 C 
ATOM     22  C   LIG    1       64.775  45.372  29.883  0.00  0.00    +0.009 C 
ENDBRANCH   2  21
TORSDOF 6
ENDMDL
