MODEL 1
REMARK VINA RESULT:      -8.1      0.000      0.000
REMARK  Name = 
REMARK                            x       y       z     vdW  Elec       q    Type
REMARK                         _______ _______ _______ _____ _____    ______ ____
ROOT
ATOM      1  C   LIG    1       41.509  -0.966  16.035  0.00  0.00    -0.037 C 
ATOM      2  C   LIG    1       40.473  -0.662  15.181  0.00  0.00    -0.037 C 
ENDROOT
BRANCH   1   6
ATOM      3  C   LIG    1       44.594  -4.051  15.354  0.00  0.00    +0.117 A 
ATOM      4  C   LIG    1       43.438  -4.344  16.043  0.00  0.00    +0.046 A 
ATOM      5  C   LIG    1       42.475  -3.343  16.255  0.00  0.00    +0.012 A 
ATOM      6  C   LIG    1       42.608  -2.023  15.751  0.00  0.00    -0.021 A 
ATOM      7  C   LIG    1       43.774  -1.809  14.995  0.00  0.00    +0.012 A 
ATOM      8  C   LIG    1       44.774  -2.785  14.825  0.00  0.00    +0.046 A 
BRANCH   3   9
ATOM      9  O   LIG    1       45.529  -5.029  15.207  0.00  0.00    -0.507 OA
ATOM     10  H   LIG    1       46.327  -4.774  15.697  0.00  0.00    +0.292 HD
ENDBRANCH   3   9
ENDBRANCH   1   6
BRANCH   2  11
ATOM     11  C   LIG    1       39.550   0.495  15.386  0.00  0.00    -0.021 A 
ATOM     12  C   LIG    1       38.346   0.331  16.091  0.00  0.00    +0.012 A 
ATOM     13  C   LIG    1       37.508   1.421  16.350  0.00  0.00    +0.046 A 
ATOM     14  C   LIG    1       37.903   2.699  15.977  0.00  0.00    +0.117 A 
ATOM     15  C   LIG    1       39.099   2.897  15.300  0.00  0.00    +0.046 A 
ATOM     16  C   LIG    1       39.900   1.794  14.978  0.00  0.00    +0.012 A 
BRANCH  14  17
ATOM     17  O   LIG    1       37.087   3.739  16.306  0.00  0.00    -0.507 OA
ATOM     18  H   LIG    1       37.162   3.903  17.261  0.00  0.00    +0.292 HD
ENDBRANCH  14  17
ENDBRANCH   2  11
BRANCH   1  19
ATOM     19  C   LIG    1       41.780  -0.277  17.398  0.00  0.00    +0.032 C 
ATOM     20  C   LIG    1       40.970  -0.501  18.671  0.00  0.00    +0.009 C 
ENDBRANCH   1  19
BRANCH   2  21
ATOM     21  C   LIG    1       40.182  -1.445  13.892  0.00  0.00    +0.032 C 
ATOM     22  C   LIG    1       39.222  -2.635  13.819  0.00  0.00    +0.009 C 
ENDBRANCH   2  21
TORSDOF 6
ENDMDL
MODEL 2
REMARK VINA RESULT:      -8.1      0.254      7.052
REMARK  Name = 
REMARK                            x       y       z     vdW  Elec       q    Type
REMARK                         _______ _______ _______ _____ _____    ______ ____
ROOT
ATOM      1  C   LIG    1       40.511  -0.624  15.307  0.00  0.00    -0.037 C 
ATOM      2  C   LIG    1       41.520  -0.923  16.195  0.00  0.00    -0.037 C 
ENDROOT
BRANCH   1   6
ATOM      3  C   LIG    1       37.581   2.650  15.752  0.00  0.00    +0.117 A 
ATOM      4  C   LIG    1       37.348   1.410  16.304  0.00  0.00    +0.046 A 
ATOM      5  C   LIG    1       38.291   0.381  16.141  0.00  0.00    +0.012 A 
ATOM      6  C   LIG    1       39.522   0.561  15.459  0.00  0.00    -0.021 A 
ATOM      7  C   LIG    1       39.732   1.867  14.983  0.00  0.00    +0.012 A 
ATOM      8  C   LIG    1       38.771   2.891  15.087  0.00  0.00    +0.046 A 
BRANCH   3   9
ATOM      9  O   LIG    1       36.627   3.611  15.886  0.00  0.00    -0.507 OA
ATOM     10  H   LIG    1       35.890   3.403  15.290  0.00  0.00    +0.292 HD
ENDBRANCH   3   9
ENDBRANCH   1   6
BRANCH   2  11
ATOM     11  C   LIG    1       42.579  -1.941  15.923  0.00  0.00    -0.021 A 
ATOM     12  C   LIG    1       42.432  -3.262  16.379  0.00  0.00    +0.012 A 
ATOM     13  C   LIG    1       43.384  -4.241  16.071  0.00  0.00    +0.046 A 
ATOM     14  C   LIG    1       44.450  -3.929  15.239  0.00  0.00    +0.117 A 
ATOM     15  C   LIG    1       44.610  -2.638  14.752  0.00  0.00    +0.046 A 
ATOM     16  C   LIG    1       43.695  -1.644  15.123  0.00  0.00    +0.012 A 
BRANCH  14  17
ATOM     17  O   LIG    1       45.316  -4.928  14.912  0.00  0.00    -0.507 OA
ATOM     18  H   LIG    1       45.283  -5.067  13.950  0.00  0.00    +0.292 HD
ENDBRANCH  14  17
ENDBRANCH   2  11
BRANCH   1  19
ATOM     19  C   LIG    1       40.219  -1.389  13.990  0.00  0.00    +0.032 C 
ATOM     20  C   LIG    1       39.303  -2.602  13.863  0.00  0.00    +0.009 C 
ENDBRANCH   1  19
BRANCH   2  21
ATOM     21  C   LIG    1       41.704  -0.204  17.539  0.00  0.00    +0.032 C 
ATOM     22  C   LIG    1       40.886  -0.526  18.793  0.00  0.00    +0.009 C 
ENDBRANCH   2  21
TORSDOF 6
ENDMDL
MODEL 3
REMARK VINA RESULT:      -8.1      0.532      6.798
REMARK  Name = 
REMARK                            x       y       z     vdW  Elec       q    Type
REMARK                         _______ _______ _______ _____ _____    ______ ____
ROOT
ATOM      1  C   LIG    1       41.101  -0.292  16.103  0.00  0.00    -0.037 C 
ATOM      2  C   LIG    1       41.472  -1.186  15.123  0.00  0.00    -0.037 C 
ENDROOT
BRANCH   1   6
ATOM      3  C   LIG    1       37.625   2.424  15.908  0.00  0.00    +0.117 A 
ATOM      4  C   LIG    1       38.816   2.751  15.298  0.00  0.00    +0.046 A 
ATOM      5  C   LIG    1       39.910   1.875  15.381  0.00  0.00    +0.012 A 
ATOM      6  C   LIG    1       39.848   0.619  16.040  0.00  0.00    -0.021 A 
ATOM      7  C   LIG    1       38.586   0.313  16.578  0.00  0.00    +0.012 A 
ATOM      8  C   LIG    1       37.498   1.206  16.553  0.00  0.00    +0.046 A 
BRANCH   3   9
ATOM      9  O   LIG    1       36.599   3.316  15.850  0.00  0.00    -0.507 OA
ATOM     10  H   LIG    1       35.770   2.850  16.044  0.00  0.00    +0.292 HD
ENDBRANCH   3   9
ENDBRANCH   1   6
BRANCH   2  11
ATOM     11  C   LIG    1       42.564  -2.190  15.297  0.00  0.00    -0.021 A 
ATOM     12  C   LIG    1       42.331  -3.381  16.005  0.00  0.00    +0.012 A 
ATOM     13  C   LIG    1       43.326  -4.360  16.116  0.00  0.00    +0.046 A 
ATOM     14  C   LIG    1       44.534  -4.194  15.453  0.00  0.00    +0.117 A 
ATOM     15  C   LIG    1       44.785  -3.038  14.725  0.00  0.00    +0.046 A 
ATOM     16  C   LIG    1       43.815  -2.029  14.678  0.00  0.00    +0.012 A 
BRANCH  14  17
ATOM     17  O   LIG    1       45.449  -5.201  15.533  0.00  0.00    -0.507 OA
ATOM     18  H   LIG    1       46.295  -4.828  15.831  0.00  0.00    +0.292 HD
ENDBRANCH  14  17
ENDBRANCH   2  11
BRANCH   1  19
ATOM     19  C   LIG    1       41.843  -0.076  17.448  0.00  0.00    +0.032 C 
ATOM     20  C   LIG    1       41.378  -0.601  18.802  0.00  0.00    +0.009 C 
ENDBRANCH   1  19
BRANCH   2  21
ATOM     21  C   LIG    1       40.769  -1.288  13.762  0.00  0.00    +0.032 C 
ATOM     22  C   LIG    1       39.541  -2.166  13.504  0.00  0.00    +0.009 C 
ENDBRANCH   2  21
TORSDOF 6
ENDMDL
MODEL 4
REMARK VINA RESULT:      -7.9      1.155      2.857
REMARK  Name = 
REMARK                            x       y       z     vdW  Elec       q    Type
REMARK                         _______ _______ _______ _____ _____    ______ ____
ROOT
ATOM      1  C   LIG    1       41.014  -0.520  15.802  0.00  0.00    -0.037 C 
ATOM      2  C   LIG    1       40.400  -0.118  16.967  0.00  0.00    -0.037 C 
ENDROOT
BRANCH   1   6
ATOM      3  C   LIG    1       44.087  -3.665  15.406  0.00  0.00    +0.117 A 
ATOM      4  C   LIG    1       44.365  -2.357  15.076  0.00  0.00    +0.046 A 
ATOM      5  C   LIG    1       43.367  -1.375  15.201  0.00  0.00    +0.012 A 
ATOM      6  C   LIG    1       42.069  -1.652  15.702  0.00  0.00    -0.021 A 
ATOM      7  C   LIG    1       41.873  -2.989  16.089  0.00  0.00    +0.012 A 
ATOM      8  C   LIG    1       42.843  -3.994  15.914  0.00  0.00    +0.046 A 
BRANCH   3   9
ATOM      9  O   LIG    1       45.060  -4.600  15.228  0.00  0.00    -0.507 OA
ATOM     10  H   LIG    1       45.890  -4.261  15.598  0.00  0.00    +0.292 HD
ENDBRANCH   3   9
ENDBRANCH   1   6
BRANCH   2  11
ATOM     11  C   LIG    1       39.247   0.831  17.005  0.00  0.00    -0.021 A 
ATOM     12  C   LIG    1       39.454   2.194  17.274  0.00  0.00    +0.012 A 
ATOM     13  C   LIG    1       38.391   3.104  17.244  0.00  0.00    +0.046 A 
ATOM     14  C   LIG    1       37.126   2.675  16.866  0.00  0.00    +0.117 A 
ATOM     15  C   LIG    1       36.895   1.338  16.571  0.00  0.00    +0.046 A 
ATOM     16  C   LIG    1       37.945   0.417  16.674  0.00  0.00    +0.012 A 
BRANCH  14  17
ATOM     17  O   LIG    1       36.134   3.606  16.786  0.00  0.00    -0.507 OA
ATOM     18  H   LIG    1       36.409   4.301  16.165  0.00  0.00    +0.292 HD
ENDBRANCH  14  17
ENDBRANCH   2  11
BRANCH   1  19
ATOM     19  C   LIG    1       40.724   0.057  14.391  0.00  0.00    +0.032 C 
ATOM     20  C   LIG    1       40.182  -0.741  13.210  0.00  0.00    +0.009 C 
ENDBRANCH   1  19
BRANCH   2  21
ATOM     21  C   LIG    1       40.797  -0.643  18.355  0.00  0.00    +0.032 C 
ATOM     22  C   LIG    1       42.231  -0.625  18.892  0.00  0.00    +0.009 C 
ENDBRANCH   2  21
TORSDOF 6
ENDMDL
MODEL 5
REMARK VINA RESULT:      -7.8      2.857      6.954
REMARK  Name = 
REMARK                            x       y       z     vdW  Elec       q    Type
REMARK                         _______ _______ _______ _____ _____    ______ ____
ROOT
ATOM      1  C   LIG    1       42.540  -2.150  16.471  0.00  0.00    -0.037 C 
ATOM      2  C   LIG    1       43.762  -2.715  16.179  0.00  0.00    -0.037 C 
ENDROOT
BRANCH   1   6
ATOM      3  C   LIG    1       39.369  -1.396  13.493  0.00  0.00    +0.117 A 
ATOM      4  C   LIG    1       39.285  -2.460  14.364  0.00  0.00    +0.046 A 
ATOM      5  C   LIG    1       40.311  -2.684  15.297  0.00  0.00    +0.012 A 
ATOM      6  C   LIG    1       41.439  -1.833  15.426  0.00  0.00    -0.021 A 
ATOM      7  C   LIG    1       41.429  -0.727  14.558  0.00  0.00    +0.012 A 
ATOM      8  C   LIG    1       40.439  -0.522  13.580  0.00  0.00    +0.046 A 
BRANCH   3   9
ATOM      9  O   LIG    1       38.383  -1.234  12.569  0.00  0.00    -0.507 OA
ATOM     10  H   LIG    1       38.266  -2.068  12.088  0.00  0.00    +0.292 HD
ENDBRANCH   3   9
ENDBRANCH   1   6
BRANCH   2  11
ATOM     11  C   LIG    1       44.717  -3.194  17.222  0.00  0.00    -0.021 A 
ATOM     12  C   LIG    1       45.529  -4.315  16.984  0.00  0.00    +0.012 A 
ATOM     13  C   LIG    1       46.477  -4.732  17.927  0.00  0.00    +0.046 A 
ATOM     14  C   LIG    1       46.678  -3.984  19.079  0.00  0.00    +0.117 A 
ATOM     15  C   LIG    1       45.908  -2.857  19.331  0.00  0.00    +0.046 A 
ATOM     16  C   LIG    1       44.910  -2.486  18.421  0.00  0.00    +0.012 A 
BRANCH  14  17
ATOM     17  O   LIG    1       47.656  -4.388  19.938  0.00  0.00    -0.507 OA
ATOM     18  H   LIG    1       47.615  -5.355  20.023  0.00  0.00    +0.292 HD
ENDBRANCH  14  17
ENDBRANCH   2  11
BRANCH   1  19
ATOM     19  C   LIG    1       42.042  -1.778  17.893  0.00  0.00    +0.032 C 
ATOM     20  C   LIG    1       41.633  -0.379  18.342  0.00  0.00    +0.009 C 
ENDBRANCH   1  19
BRANCH   2  21
ATOM     21  C   LIG    1       44.254  -2.966  14.747  0.00  0.00    +0.032 C 
ATOM     22  C   LIG    1       45.549  -2.379  14.178  0.00  0.00    +0.009 C 
ENDBRANCH   2  21
TORSDOF 6
ENDMDL
MODEL 6
REMARK VINA RESULT:      -7.8      1.433      7.209
REMARK  Name = 
REMARK                            x       y       z     vdW  Elec       q    Type
REMARK                         _______ _______ _______ _____ _____    ______ ____
ROOT
ATOM      1  C   LIG    1       39.806   0.516  15.872  0.00  0.00    -0.037 C 
ATOM      2  C   LIG    1       40.526  -0.291  16.724  0.00  0.00    -0.037 C 
ENDROOT
BRANCH   1   6
ATOM      3  C   LIG    1       36.811   3.510  17.121  0.00  0.00    +0.117 A 
ATOM      4  C   LIG    1       36.525   2.163  17.156  0.00  0.00    +0.046 A 
ATOM      5  C   LIG    1       37.491   1.230  16.745  0.00  0.00    +0.012 A 
ATOM      6  C   LIG    1       38.795   1.601  16.324  0.00  0.00    -0.021 A 
ATOM      7  C   LIG    1       39.047   2.983  16.381  0.00  0.00    +0.012 A 
ATOM      8  C   LIG    1       38.071   3.932  16.734  0.00  0.00    +0.046 A 
BRANCH   3   9
ATOM      9  O   LIG    1       35.837   4.390  17.480  0.00  0.00    -0.507 OA
ATOM     10  H   LIG    1       35.211   4.479  16.745  0.00  0.00    +0.292 HD
ENDBRANCH   3   9
ENDBRANCH   1   6
BRANCH   2  11
ATOM     11  C   LIG    1       41.636  -1.182  16.272  0.00  0.00    -0.021 A 
ATOM     12  C   LIG    1       41.470  -2.577  16.257  0.00  0.00    +0.012 A 
ATOM     13  C   LIG    1       42.477  -3.418  15.770  0.00  0.00    +0.046 A 
ATOM     14  C   LIG    1       43.628  -2.869  15.220  0.00  0.00    +0.117 A 
ATOM     15  C   LIG    1       43.811  -1.493  15.199  0.00  0.00    +0.046 A 
ATOM     16  C   LIG    1       42.833  -0.658  15.754  0.00  0.00    +0.012 A 
BRANCH  14  17
ATOM     17  O   LIG    1       44.554  -3.722  14.699  0.00  0.00    -0.507 OA
ATOM     18  H   LIG    1       45.429  -3.302  14.754  0.00  0.00    +0.292 HD
ENDBRANCH  14  17
ENDBRANCH   2  11
BRANCH   1  19
ATOM     19  C   LIG    1       39.917   0.510  14.324  0.00  0.00    +0.032 C 
ATOM     20  C   LIG    1       38.754   0.715  13.360  0.00  0.00    +0.009 C 
ENDBRANCH   1  19
BRANCH   2  21
ATOM     21  C   LIG    1       40.304  -0.325  18.243  0.00  0.00    +0.032 C 
ATOM     22  C   LIG    1       41.424  -0.566  19.260  0.00  0.00    +0.009 C 
ENDBRANCH   2  21
TORSDOF 6
ENDMDL
MODEL 7
REMARK VINA RESULT:      -7.8      1.224      2.513
REMARK  Name = 
REMARK                            x       y       z     vdW  Elec       q    Type
REMARK                         _______ _______ _______ _____ _____    ______ ____
ROOT
ATOM      1  C   LIG    1       41.048  -0.446  15.696  0.00  0.00    -0.037 C 
ATOM      2  C   LIG    1       40.419  -0.057  16.858  0.00  0.00    -0.037 C 
ENDROOT
BRANCH   1   6
ATOM      3  C   LIG    1       43.954  -3.766  15.522  0.00  0.00    +0.117 A 
ATOM      4  C   LIG    1       42.654  -3.981  15.922  0.00  0.00    +0.046 A 
ATOM      5  C   LIG    1       41.750  -2.907  15.978  0.00  0.00    +0.012 A 
ATOM      6  C   LIG    1       42.095  -1.585  15.596  0.00  0.00    -0.021 A 
ATOM      7  C   LIG    1       43.414  -1.446  15.129  0.00  0.00    +0.012 A 
ATOM      8  C   LIG    1       44.347  -2.500  15.124  0.00  0.00    +0.046 A 
BRANCH   3   9
ATOM      9  O   LIG    1       44.817  -4.817  15.525  0.00  0.00    -0.507 OA
ATOM     10  H   LIG    1       44.822  -5.214  16.410  0.00  0.00    +0.292 HD
ENDBRANCH   3   9
ENDBRANCH   1   6
BRANCH   2  11
ATOM     11  C   LIG    1       39.273   0.901  16.891  0.00  0.00    -0.021 A 
ATOM     12  C   LIG    1       37.959   0.448  16.684  0.00  0.00    +0.012 A 
ATOM     13  C   LIG    1       36.871   1.324  16.781  0.00  0.00    +0.046 A 
ATOM     14  C   LIG    1       37.079   2.642  17.165  0.00  0.00    +0.117 A 
ATOM     15  C   LIG    1       38.364   3.113  17.401  0.00  0.00    +0.046 A 
ATOM     16  C   LIG    1       39.456   2.252  17.230  0.00  0.00    +0.012 A 
BRANCH  14  17
ATOM     17  O   LIG    1       35.986   3.442  17.312  0.00  0.00    -0.507 OA
ATOM     18  H   LIG    1       36.217   4.180  17.901  0.00  0.00    +0.292 HD
ENDBRANCH  14  17
ENDBRANCH   2  11
BRANCH   1  19
ATOM     19  C   LIG    1       40.787   0.156  14.290  0.00  0.00    +0.032 C 
ATOM     20  C   LIG    1       40.082  -0.563  13.144  0.00  0.00    +0.009 C 
ENDBRANCH   1  19
BRANCH   2  21
ATOM     21  C   LIG    1       40.787  -0.607  18.243  0.00  0.00    +0.032 C 
ATOM     22  C   LIG    1       42.209  -0.592  18.812  0.00  0.00    +0.009 C 
ENDBRANCH   2  21
TORSDOF 6
ENDMDL
MODEL 8
REMARK VINA RESULT:      -7.6      0.493      7.207
REMARK  Name = 
REMARK                            x       y       z     vdW  Elec       q    Type
REMARK                         _______ _______ _______ _____ _____    ______ ____
ROOT
ATOM      1  C   LIG    1       40.557  -0.601  15.122  0.00  0.00    -0.037 C 
ATOM      2  C   LIG    1       41.572  -0.795  16.032  0.00  0.00    -0.037 C 
ENDROOT
BRANCH   1   6
ATOM      3  C   LIG    1       37.740   2.794  15.313  0.00  0.00    +0.117 A 
ATOM      4  C   LIG    1       39.047   2.978  14.919  0.00  0.00    +0.046 A 
ATOM      5  C   LIG    1       39.927   1.884  14.875  0.00  0.00    +0.012 A 
ATOM      6  C   LIG    1       39.527   0.557  15.180  0.00  0.00    -0.021 A 
ATOM      7  C   LIG    1       38.166   0.426  15.504  0.00  0.00    +0.012 A 
ATOM      8  C   LIG    1       37.288   1.520  15.609  0.00  0.00    +0.046 A 
BRANCH   3   9
ATOM      9  O   LIG    1       36.926   3.882  15.391  0.00  0.00    -0.507 OA
ATOM     10  H   LIG    1       36.700   4.035  16.322  0.00  0.00    +0.292 HD
ENDBRANCH   3   9
ENDBRANCH   1   6
BRANCH   2  11
ATOM     11  C   LIG    1       42.667  -1.794  15.842  0.00  0.00    -0.021 A 
ATOM     12  C   LIG    1       43.834  -1.447  15.141  0.00  0.00    +0.012 A 
ATOM     13  C   LIG    1       44.895  -2.351  15.016  0.00  0.00    +0.046 A 
ATOM     14  C   LIG    1       44.833  -3.580  15.658  0.00  0.00    +0.117 A 
ATOM     15  C   LIG    1       43.703  -3.943  16.379  0.00  0.00    +0.046 A 
ATOM     16  C   LIG    1       42.613  -3.064  16.440  0.00  0.00    +0.012 A 
BRANCH  14  17
ATOM     17  O   LIG    1       45.915  -4.403  15.565  0.00  0.00    -0.507 OA
ATOM     18  H   LIG    1       45.864  -5.066  16.274  0.00  0.00    +0.292 HD
ENDBRANCH  14  17
ENDBRANCH   2  11
BRANCH   1  19
ATOM     19  C   LIG    1       40.299  -1.474  13.866  0.00  0.00    +0.032 C 
ATOM     20  C   LIG    1       39.512  -2.780  13.851  0.00  0.00    +0.009 C 
ENDBRANCH   1  19
BRANCH   2  21
ATOM     21  C   LIG    1       41.723   0.030  17.318  0.00  0.00    +0.032 C 
ATOM     22  C   LIG    1       41.096  -0.363  18.658  0.00  0.00    +0.009 C 
ENDBRANCH   2  21
TORSDOF 6
ENDMDL
MODEL 9
REMARK VINA RESULT:      -7.6      1.432      6.992
REMARK  Name = 
REMARK                            x       y       z     vdW  Elec       q    Type
REMARK                         _______ _______ _______ _____ _____    ______ ____
ROOT
ATOM      1  C   LIG    1       39.864   0.528  16.821  0.00  0.00    -0.037 C 
ATOM      2  C   LIG    1       40.454   0.141  15.638  0.00  0.00    -0.037 C 
ENDROOT
BRANCH   1   6
ATOM      3  C   LIG    1       36.756   3.649  17.129  0.00  0.00    +0.117 A 
ATOM      4  C   LIG    1       36.418   2.315  17.065  0.00  0.00    +0.046 A 
ATOM      5  C   LIG    1       37.424   1.341  16.958  0.00  0.00    +0.012 A 
ATOM      6  C   LIG    1       38.808   1.655  16.954  0.00  0.00    -0.021 A 
ATOM      7  C   LIG    1       39.088   3.026  17.095  0.00  0.00    +0.012 A 
ATOM      8  C   LIG    1       38.090   4.017  17.144  0.00  0.00    +0.046 A 
BRANCH   3   9
ATOM      9  O   LIG    1       35.756   4.570  17.183  0.00  0.00    -0.507 OA
ATOM     10  H   LIG    1       35.223   4.406  17.978  0.00  0.00    +0.292 HD
ENDBRANCH   3   9
ENDBRANCH   1   6
BRANCH   2  11
ATOM     11  C   LIG    1       41.312  -1.075  15.507  0.00  0.00    -0.021 A 
ATOM     12  C   LIG    1       42.676  -0.955  15.192  0.00  0.00    +0.012 A 
ATOM     13  C   LIG    1       43.504  -2.082  15.134  0.00  0.00    +0.046 A 
ATOM     14  C   LIG    1       42.995  -3.330  15.469  0.00  0.00    +0.117 A 
ATOM     15  C   LIG    1       41.657  -3.478  15.807  0.00  0.00    +0.046 A 
ATOM     16  C   LIG    1       40.814  -2.358  15.792  0.00  0.00    +0.012 A 
BRANCH  14  17
ATOM     17  O   LIG    1       43.852  -4.390  15.463  0.00  0.00    -0.507 OA
ATOM     18  H   LIG    1       44.709  -4.095  15.113  0.00  0.00    +0.292 HD
ENDBRANCH  14  17
ENDBRANCH   2  11
BRANCH   1  19
ATOM     19  C   LIG    1       40.119  -0.124  18.205  0.00  0.00    +0.032 C 
ATOM     20  C   LIG    1       41.491  -0.469  18.774  0.00  0.00    +0.009 C 
ENDBRANCH   1  19
BRANCH   2  21
ATOM     21  C   LIG    1       40.253   0.885  14.310  0.00  0.00    +0.032 C 
ATOM     22  C   LIG    1       39.087   0.616  13.355  0.00  0.00    +0.009 C 
ENDBRANCH   2  21
TORSDOF 6
ENDMDL
