MODEL 1
REMARK VINA RESULT:      -7.5      0.000      0.000
REMARK  Name = 
REMARK                            x       y       z     vdW  Elec       q    Type
REMARK                         _______ _______ _______ _____ _____    ______ ____
ROOT
ATOM      1  C   LIG    1       18.496  30.023  12.136  0.00  0.00    -0.037 C 
ATOM      2  C   LIG    1       18.398  30.236  10.779  0.00  0.00    -0.037 C 
ENDROOT
BRANCH   1   6
ATOM      3  C   LIG    1       22.313  29.362  14.255  0.00  0.00    +0.117 A 
ATOM      4  C   LIG    1       21.798  30.630  14.101  0.00  0.00    +0.046 A 
ATOM      5  C   LIG    1       20.586  30.816  13.415  0.00  0.00    +0.012 A 
ATOM      6  C   LIG    1       19.819  29.742  12.894  0.00  0.00    -0.021 A 
ATOM      7  C   LIG    1       20.362  28.470  13.147  0.00  0.00    +0.012 A 
ATOM      8  C   LIG    1       21.603  28.272  13.781  0.00  0.00    +0.046 A 
BRANCH   3   9
ATOM      9  O   LIG    1       23.512  29.220  14.882  0.00  0.00    -0.507 OA
ATOM     10  H   LIG    1       24.090  29.954  14.619  0.00  0.00    +0.292 HD
ENDBRANCH   3   9
ENDBRANCH   1   6
BRANCH   2  11
ATOM     11  C   LIG    1       17.148  30.703  10.108  0.00  0.00    -0.021 A 
ATOM     12  C   LIG    1       16.271  31.582  10.765  0.00  0.00    +0.012 A 
ATOM     13  C   LIG    1       15.133  32.081  10.122  0.00  0.00    +0.046 A 
ATOM     14  C   LIG    1       14.902  31.769   8.789  0.00  0.00    +0.117 A 
ATOM     15  C   LIG    1       15.763  30.921   8.104  0.00  0.00    +0.046 A 
ATOM     16  C   LIG    1       16.861  30.366   8.774  0.00  0.00    +0.012 A 
BRANCH  14  17
ATOM     17  O   LIG    1       13.818  32.328   8.182  0.00  0.00    -0.507 OA
ATOM     18  H   LIG    1       13.620  31.825   7.374  0.00  0.00    +0.292 HD
ENDBRANCH  14  17
ENDBRANCH   2  11
BRANCH   1  19
ATOM     19  C   LIG    1       17.314  30.073  13.139  0.00  0.00    +0.032 C 
ATOM     20  C   LIG    1       17.301  29.415  14.515  0.00  0.00    +0.009 C 
ENDBRANCH   1  19
BRANCH   2  21
ATOM     21  C   LIG    1       19.578  30.071   9.811  0.00  0.00    +0.032 C 
ATOM     22  C   LIG    1       20.140  28.713   9.381  0.00  0.00    +0.009 C 
ENDBRANCH   2  21
TORSDOF 6
ENDMDL
MODEL 2
REMARK VINA RESULT:      -7.3      1.363      6.838
REMARK  Name = 
REMARK                            x       y       z     vdW  Elec       q    Type
REMARK                         _______ _______ _______ _____ _____    ______ ____
ROOT
ATOM      1  C   LIG    1       17.978  30.402  11.559  0.00  0.00    -0.037 C 
ATOM      2  C   LIG    1       18.833  29.346  11.780  0.00  0.00    -0.037 C 
ENDROOT
BRANCH   1   6
ATOM      3  C   LIG    1       14.646  30.493   8.663  0.00  0.00    +0.117 A 
ATOM      4  C   LIG    1       14.698  31.383   9.712  0.00  0.00    +0.046 A 
ATOM      5  C   LIG    1       15.764  31.329  10.626  0.00  0.00    +0.012 A 
ATOM      6  C   LIG    1       16.841  30.413  10.504  0.00  0.00    -0.021 A 
ATOM      7  C   LIG    1       16.766  29.582   9.373  0.00  0.00    +0.012 A 
ATOM      8  C   LIG    1       15.676  29.586   8.483  0.00  0.00    +0.046 A 
BRANCH   3   9
ATOM      9  O   LIG    1       13.577  30.540   7.823  0.00  0.00    -0.507 OA
ATOM     10  H   LIG    1       12.787  30.249   8.306  0.00  0.00    +0.292 HD
ENDBRANCH   3   9
ENDBRANCH   1   6
BRANCH   2  11
ATOM     11  C   LIG    1       19.783  29.284  12.932  0.00  0.00    -0.021 A 
ATOM     12  C   LIG    1       21.094  29.770  12.802  0.00  0.00    +0.012 A 
ATOM     13  C   LIG    1       21.971  29.780  13.893  0.00  0.00    +0.046 A 
ATOM     14  C   LIG    1       21.520  29.380  15.143  0.00  0.00    +0.117 A 
ATOM     15  C   LIG    1       20.221  28.918  15.310  0.00  0.00    +0.046 A 
ATOM     16  C   LIG    1       19.370  28.839  14.200  0.00  0.00    +0.012 A 
BRANCH  14  17
ATOM     17  O   LIG    1       22.387  29.469  16.191  0.00  0.00    -0.507 OA
ATOM     18  H   LIG    1       22.473  30.403  16.446  0.00  0.00    +0.292 HD
ENDBRANCH  14  17
ENDBRANCH   2  11
BRANCH   1  19
ATOM     19  C   LIG    1       17.976  31.736  12.351  0.00  0.00    +0.032 C 
ATOM     20  C   LIG    1       17.333  31.944  13.718  0.00  0.00    +0.009 C 
ENDBRANCH   1  19
BRANCH   2  21
ATOM     21  C   LIG    1       18.868  28.088  10.900  0.00  0.00    +0.032 C 
ATOM     22  C   LIG    1       19.980  27.789   9.890  0.00  0.00    +0.009 C 
ENDBRANCH   2  21
TORSDOF 6
ENDMDL
MODEL 3
REMARK VINA RESULT:      -7.2      1.762      7.065
REMARK  Name = 
REMARK                            x       y       z     vdW  Elec       q    Type
REMARK                         _______ _______ _______ _____ _____    ______ ____
ROOT
ATOM      1  C   LIG    1       18.971  28.706  11.222  0.00  0.00    -0.037 C 
ATOM      2  C   LIG    1       18.798  29.343  12.431  0.00  0.00    -0.037 C 
ENDROOT
BRANCH   1   6
ATOM      3  C   LIG    1       16.339  29.377   7.740  0.00  0.00    +0.117 A 
ATOM      4  C   LIG    1       17.124  30.392   8.242  0.00  0.00    +0.046 A 
ATOM      5  C   LIG    1       17.947  30.156   9.356  0.00  0.00    +0.012 A 
ATOM      6  C   LIG    1       18.051  28.889   9.987  0.00  0.00    -0.021 A 
ATOM      7  C   LIG    1       17.281  27.880   9.383  0.00  0.00    +0.012 A 
ATOM      8  C   LIG    1       16.409  28.115   8.304  0.00  0.00    +0.046 A 
BRANCH   3   9
ATOM      9  O   LIG    1       15.518  29.649   6.690  0.00  0.00    -0.507 OA
ATOM     10  H   LIG    1       15.861  30.425   6.219  0.00  0.00    +0.292 HD
ENDBRANCH   3   9
ENDBRANCH   1   6
BRANCH   2  11
ATOM     11  C   LIG    1       19.807  29.305  13.531  0.00  0.00    -0.021 A 
ATOM     12  C   LIG    1       21.135  29.697  13.295  0.00  0.00    +0.012 A 
ATOM     13  C   LIG    1       22.073  29.732  14.334  0.00  0.00    +0.046 A 
ATOM     14  C   LIG    1       21.672  29.452  15.633  0.00  0.00    +0.117 A 
ATOM     15  C   LIG    1       20.361  29.084  15.903  0.00  0.00    +0.046 A 
ATOM     16  C   LIG    1       19.444  28.979  14.850  0.00  0.00    +0.012 A 
BRANCH  14  17
ATOM     17  O   LIG    1       22.602  29.562  16.624  0.00  0.00    -0.507 OA
ATOM     18  H   LIG    1       22.284  29.077  17.404  0.00  0.00    +0.292 HD
ENDBRANCH  14  17
ENDBRANCH   2  11
BRANCH   1  19
ATOM     19  C   LIG    1       20.133  27.738  10.876  0.00  0.00    +0.032 C 
ATOM     20  C   LIG    1       21.126  27.930   9.734  0.00  0.00    +0.009 C 
ENDBRANCH   1  19
BRANCH   2  21
ATOM     21  C   LIG    1       17.574  30.208  12.763  0.00  0.00    +0.032 C 
ATOM     22  C   LIG    1       17.599  31.739  12.793  0.00  0.00    +0.009 C 
ENDBRANCH   2  21
TORSDOF 6
ENDMDL
MODEL 4
REMARK VINA RESULT:      -7.1      1.417      2.715
REMARK  Name = 
REMARK                            x       y       z     vdW  Elec       q    Type
REMARK                         _______ _______ _______ _____ _____    ______ ____
ROOT
ATOM      1  C   LIG    1       18.657  29.575  11.615  0.00  0.00    -0.037 C 
ATOM      2  C   LIG    1       17.788  30.622  11.402  0.00  0.00    -0.037 C 
ENDROOT
BRANCH   1   6
ATOM      3  C   LIG    1       21.455  29.367  15.024  0.00  0.00    +0.117 A 
ATOM      4  C   LIG    1       20.153  28.936  15.148  0.00  0.00    +0.046 A 
ATOM      5  C   LIG    1       19.279  29.021  14.051  0.00  0.00    +0.012 A 
ATOM      6  C   LIG    1       19.680  29.498  12.777  0.00  0.00    -0.021 A 
ATOM      7  C   LIG    1       21.038  29.853  12.696  0.00  0.00    +0.012 A 
ATOM      8  C   LIG    1       21.910  29.829  13.800  0.00  0.00    +0.046 A 
BRANCH   3   9
ATOM      9  O   LIG    1       22.264  29.316  16.117  0.00  0.00    -0.507 OA
ATOM     10  H   LIG    1       22.271  30.190  16.540  0.00  0.00    +0.292 HD
ENDBRANCH   3   9
ENDBRANCH   1   6
BRANCH   2  11
ATOM     11  C   LIG    1       16.680  30.581  10.401  0.00  0.00    -0.021 A 
ATOM     12  C   LIG    1       16.655  29.590   9.406  0.00  0.00    +0.012 A 
ATOM     13  C   LIG    1       15.586  29.499   8.505  0.00  0.00    +0.046 A 
ATOM     14  C   LIG    1       14.495  30.346   8.642  0.00  0.00    +0.117 A 
ATOM     15  C   LIG    1       14.480  31.321   9.632  0.00  0.00    +0.046 A 
ATOM     16  C   LIG    1       15.583  31.456  10.483  0.00  0.00    +0.012 A 
BRANCH  14  17
ATOM     17  O   LIG    1       13.448  30.180   7.786  0.00  0.00    -0.507 OA
ATOM     18  H   LIG    1       13.648  29.439   7.190  0.00  0.00    +0.292 HD
ENDBRANCH  14  17
ENDBRANCH   2  11
BRANCH   1  19
ATOM     19  C   LIG    1       18.728  28.281  10.761  0.00  0.00    +0.032 C 
ATOM     20  C   LIG    1       19.912  27.865   9.895  0.00  0.00    +0.009 C 
ENDBRANCH   1  19
BRANCH   2  21
ATOM     21  C   LIG    1       17.826  31.929  12.207  0.00  0.00    +0.032 C 
ATOM     22  C   LIG    1       17.177  32.098  13.583  0.00  0.00    +0.009 C 
ENDBRANCH   2  21
TORSDOF 6
ENDMDL
MODEL 5
REMARK VINA RESULT:      -7.1      0.351      7.110
REMARK  Name = 
REMARK                            x       y       z     vdW  Elec       q    Type
REMARK                         _______ _______ _______ _____ _____    ______ ____
ROOT
ATOM      1  C   LIG    1       18.502  30.051  10.741  0.00  0.00    -0.037 C 
ATOM      2  C   LIG    1       18.619  29.904  12.106  0.00  0.00    -0.037 C 
ENDROOT
BRANCH   1   6
ATOM      3  C   LIG    1       14.745  31.278   8.772  0.00  0.00    +0.117 A 
ATOM      4  C   LIG    1       15.256  31.992   9.833  0.00  0.00    +0.046 A 
ATOM      5  C   LIG    1       16.448  31.577  10.449  0.00  0.00    +0.012 A 
ATOM      6  C   LIG    1       17.200  30.459  10.004  0.00  0.00    -0.021 A 
ATOM      7  C   LIG    1       16.665  29.817   8.874  0.00  0.00    +0.012 A 
ATOM      8  C   LIG    1       15.442  30.186   8.283  0.00  0.00    +0.046 A 
BRANCH   3   9
ATOM      9  O   LIG    1       13.564  31.678   8.228  0.00  0.00    -0.507 OA
ATOM     10  H   LIG    1       13.206  32.405   8.760  0.00  0.00    +0.292 HD
ENDBRANCH   3   9
ENDBRANCH   1   6
BRANCH   2  11
ATOM     11  C   LIG    1       19.925  29.710  12.803  0.00  0.00    -0.021 A 
ATOM     12  C   LIG    1       20.668  30.816  13.247  0.00  0.00    +0.012 A 
ATOM     13  C   LIG    1       21.860  30.645  13.962  0.00  0.00    +0.046 A 
ATOM     14  C   LIG    1       22.277  29.367  14.310  0.00  0.00    +0.117 A 
ATOM     15  C   LIG    1       21.551  28.254  13.907  0.00  0.00    +0.046 A 
ATOM     16  C   LIG    1       20.400  28.427  13.128  0.00  0.00    +0.012 A 
BRANCH  14  17
ATOM     17  O   LIG    1       23.407  29.249  15.062  0.00  0.00    -0.507 OA
ATOM     18  H   LIG    1       24.078  28.775  14.544  0.00  0.00    +0.292 HD
ENDBRANCH  14  17
ENDBRANCH   2  11
BRANCH   1  19
ATOM     19  C   LIG    1       19.656  29.878   9.719  0.00  0.00    +0.032 C 
ATOM     20  C   LIG    1       20.228  28.542   9.258  0.00  0.00    +0.009 C 
ENDBRANCH   1  19
BRANCH   2  21
ATOM     21  C   LIG    1       17.425  29.979  13.069  0.00  0.00    +0.032 C 
ATOM     22  C   LIG    1       17.438  29.397  14.484  0.00  0.00    +0.009 C 
ENDBRANCH   2  21
TORSDOF 6
ENDMDL
MODEL 6
REMARK VINA RESULT:      -6.1      3.763      5.632
REMARK  Name = 
REMARK                            x       y       z     vdW  Elec       q    Type
REMARK                         _______ _______ _______ _____ _____    ______ ____
ROOT
ATOM      1  C   LIG    1       20.414  29.209   9.487  0.00  0.00    -0.037 C 
ATOM      2  C   LIG    1       21.317  28.457   8.770  0.00  0.00    -0.037 C 
ENDROOT
BRANCH   1   6
ATOM      3  C   LIG    1       19.342  28.432  13.700  0.00  0.00    +0.117 A 
ATOM      4  C   LIG    1       20.301  29.365  13.372  0.00  0.00    +0.046 A 
ATOM      5  C   LIG    1       20.631  29.588  12.025  0.00  0.00    +0.012 A 
ATOM      6  C   LIG    1       19.988  28.921  10.950  0.00  0.00    -0.021 A 
ATOM      7  C   LIG    1       18.970  28.036  11.347  0.00  0.00    +0.012 A 
ATOM      8  C   LIG    1       18.669  27.760  12.694  0.00  0.00    +0.046 A 
BRANCH   3   9
ATOM      9  O   LIG    1       19.079  28.204  15.015  0.00  0.00    -0.507 OA
ATOM     10  H   LIG    1       18.197  28.554  15.222  0.00  0.00    +0.292 HD
ENDBRANCH   3   9
ENDBRANCH   1   6
BRANCH   2  11
ATOM     11  C   LIG    1       21.859  28.870   7.441  0.00  0.00    -0.021 A 
ATOM     12  C   LIG    1       22.366  30.166   7.249  0.00  0.00    +0.012 A 
ATOM     13  C   LIG    1       22.940  30.543   6.029  0.00  0.00    +0.046 A 
ATOM     14  C   LIG    1       23.084  29.605   5.016  0.00  0.00    +0.117 A 
ATOM     15  C   LIG    1       22.615  28.309   5.184  0.00  0.00    +0.046 A 
ATOM     16  C   LIG    1       21.975  27.956   6.379  0.00  0.00    +0.012 A 
BRANCH  14  17
ATOM     17  O   LIG    1       23.707  29.996   3.869  0.00  0.00    -0.507 OA
ATOM     18  H   LIG    1       24.074  29.210   3.430  0.00  0.00    +0.292 HD
ENDBRANCH  14  17
ENDBRANCH   2  11
BRANCH   1  19
ATOM     19  C   LIG    1       19.706  30.491   8.974  0.00  0.00    +0.032 C 
ATOM     20  C   LIG    1       18.309  30.946   9.383  0.00  0.00    +0.009 C 
ENDBRANCH   1  19
BRANCH   2  21
ATOM     21  C   LIG    1       21.911  27.136   9.280  0.00  0.00    +0.032 C 
ATOM     22  C   LIG    1       21.166  25.799   9.241  0.00  0.00    +0.009 C 
ENDBRANCH   2  21
TORSDOF 6
ENDMDL
MODEL 7
REMARK VINA RESULT:      -6.1      4.095      7.088
REMARK  Name = 
REMARK                            x       y       z     vdW  Elec       q    Type
REMARK                         _______ _______ _______ _____ _____    ______ ____
ROOT
ATOM      1  C   LIG    1       21.693  28.384   8.471  0.00  0.00    -0.037 C 
ATOM      2  C   LIG    1       20.749  29.063   9.209  0.00  0.00    -0.037 C 
ENDROOT
BRANCH   1   6
ATOM      3  C   LIG    1       23.505  29.714   4.670  0.00  0.00    +0.117 A 
ATOM      4  C   LIG    1       22.791  28.538   4.743  0.00  0.00    +0.046 A 
ATOM      5  C   LIG    1       22.232  28.131   5.966  0.00  0.00    +0.012 A 
ATOM      6  C   LIG    1       22.325  28.902   7.153  0.00  0.00    -0.021 A 
ATOM      7  C   LIG    1       23.002  30.124   6.996  0.00  0.00    +0.012 A 
ATOM      8  C   LIG    1       23.618  30.516   5.792  0.00  0.00    +0.046 A 
BRANCH   3   9
ATOM      9  O   LIG    1       24.074  30.056   3.483  0.00  0.00    -0.507 OA
ATOM     10  H   LIG    1       25.004  29.777   3.491  0.00  0.00    +0.292 HD
ENDBRANCH   3   9
ENDBRANCH   1   6
BRANCH   2  11
ATOM     11  C   LIG    1       20.309  28.637  10.571  0.00  0.00    -0.021 A 
ATOM     12  C   LIG    1       20.893  29.199  11.718  0.00  0.00    +0.012 A 
ATOM     13  C   LIG    1       20.441  28.859  12.999  0.00  0.00    +0.046 A 
ATOM     14  C   LIG    1       19.348  28.015  13.143  0.00  0.00    +0.117 A 
ATOM     15  C   LIG    1       18.733  27.462  12.027  0.00  0.00    +0.046 A 
ATOM     16  C   LIG    1       19.235  27.747  10.751  0.00  0.00    +0.012 A 
BRANCH  14  17
ATOM     17  O   LIG    1       18.900  27.762  14.404  0.00  0.00    -0.507 OA
ATOM     18  H   LIG    1       17.935  27.650  14.375  0.00  0.00    +0.292 HD
ENDBRANCH  14  17
ENDBRANCH   2  11
BRANCH   1  19
ATOM     19  C   LIG    1       22.314  27.014   8.852  0.00  0.00    +0.032 C 
ATOM     20  C   LIG    1       23.747  26.586   8.551  0.00  0.00    +0.009 C 
ENDBRANCH   1  19
BRANCH   2  21
ATOM     21  C   LIG    1       20.084  30.364   8.739  0.00  0.00    +0.032 C 
ATOM     22  C   LIG    1       18.720  30.849   9.236  0.00  0.00    +0.009 C 
ENDBRANCH   2  21
TORSDOF 6
ENDMDL
MODEL 8
REMARK VINA RESULT:      -5.6      8.763     10.392
REMARK  Name = 
REMARK                            x       y       z     vdW  Elec       q    Type
REMARK                         _______ _______ _______ _____ _____    ______ ____
ROOT
ATOM      1  C   LIG    1       25.270  31.164   4.591  0.00  0.00    -0.037 C 
ATOM      2  C   LIG    1       25.821  32.126   3.775  0.00  0.00    -0.037 C 
ENDROOT
BRANCH   1   6
ATOM      3  C   LIG    1       27.345  29.001   7.833  0.00  0.00    +0.117 A 
ATOM      4  C   LIG    1       27.062  28.382   6.636  0.00  0.00    +0.046 A 
ATOM      5  C   LIG    1       26.392  29.088   5.623  0.00  0.00    +0.012 A 
ATOM      6  C   LIG    1       26.018  30.451   5.748  0.00  0.00    -0.021 A 
ATOM      7  C   LIG    1       26.400  31.045   6.963  0.00  0.00    +0.012 A 
ATOM      8  C   LIG    1       27.018  30.334   8.009  0.00  0.00    +0.046 A 
BRANCH   3   9
ATOM      9  O   LIG    1       27.952  28.275   8.812  0.00  0.00    -0.507 OA
ATOM     10  H   LIG    1       28.803  27.951   8.478  0.00  0.00    +0.292 HD
ENDBRANCH   3   9
ENDBRANCH   1   6
BRANCH   2  11
ATOM     11  C   LIG    1       25.024  32.937   2.806  0.00  0.00    -0.021 A 
ATOM     12  C   LIG    1       24.676  34.265   3.104  0.00  0.00    +0.012 A 
ATOM     13  C   LIG    1       23.989  35.056   2.176  0.00  0.00    +0.046 A 
ATOM     14  C   LIG    1       23.714  34.554   0.911  0.00  0.00    +0.117 A 
ATOM     15  C   LIG    1       24.067  33.253   0.578  0.00  0.00    +0.046 A 
ATOM     16  C   LIG    1       24.688  32.440   1.535  0.00  0.00    +0.012 A 
BRANCH  14  17
ATOM     17  O   LIG    1       23.103  35.380   0.016  0.00  0.00    -0.507 OA
ATOM     18  H   LIG    1       23.266  36.300   0.281  0.00  0.00    +0.292 HD
ENDBRANCH  14  17
ENDBRANCH   2  11
BRANCH   1  19
ATOM     19  C   LIG    1       23.804  30.662   4.523  0.00  0.00    +0.032 C 
ATOM     20  C   LIG    1       22.922  30.360   5.731  0.00  0.00    +0.009 C 
ENDBRANCH   1  19
BRANCH   2  21
ATOM     21  C   LIG    1       27.306  32.513   3.808  0.00  0.00    +0.032 C 
ATOM     22  C   LIG    1       27.878  33.612   4.709  0.00  0.00    +0.009 C 
ENDBRANCH   2  21
TORSDOF 6
ENDMDL
MODEL 9
REMARK VINA RESULT:      -5.6      3.198      5.594
REMARK  Name = 
REMARK                            x       y       z     vdW  Elec       q    Type
REMARK                         _______ _______ _______ _____ _____    ______ ____
ROOT
ATOM      1  C   LIG    1       19.805  29.422   9.795  0.00  0.00    -0.037 C 
ATOM      2  C   LIG    1       20.035  29.540  11.147  0.00  0.00    -0.037 C 
ENDROOT
BRANCH   1   6
ATOM      3  C   LIG    1       22.992  28.810   6.801  0.00  0.00    +0.117 A 
ATOM      4  C   LIG    1       22.381  27.740   7.416  0.00  0.00    +0.046 A 
ATOM      5  C   LIG    1       21.376  27.960   8.372  0.00  0.00    +0.012 A 
ATOM      6  C   LIG    1       20.910  29.254   8.720  0.00  0.00    -0.021 A 
ATOM      7  C   LIG    1       21.522  30.299   8.006  0.00  0.00    +0.012 A 
ATOM      8  C   LIG    1       22.570  30.097   7.089  0.00  0.00    +0.046 A 
BRANCH   3   9
ATOM      9  O   LIG    1       23.995  28.565   5.915  0.00  0.00    -0.507 OA
ATOM     10  H   LIG    1       23.850  27.693   5.514  0.00  0.00    +0.292 HD
ENDBRANCH   3   9
ENDBRANCH   1   6
BRANCH   2  11
ATOM     11  C   LIG    1       18.950  29.497  12.173  0.00  0.00    -0.021 A 
ATOM     12  C   LIG    1       18.767  28.355  12.970  0.00  0.00    +0.012 A 
ATOM     13  C   LIG    1       17.799  28.329  13.981  0.00  0.00    +0.046 A 
ATOM     14  C   LIG    1       17.060  29.471  14.258  0.00  0.00    +0.117 A 
ATOM     15  C   LIG    1       17.235  30.624  13.504  0.00  0.00    +0.046 A 
ATOM     16  C   LIG    1       18.153  30.622  12.445  0.00  0.00    +0.012 A 
BRANCH  14  17
ATOM     17  O   LIG    1       16.175  29.422  15.293  0.00  0.00    -0.507 OA
ATOM     18  H   LIG    1       15.770  30.300  15.398  0.00  0.00    +0.292 HD
ENDBRANCH  14  17
ENDBRANCH   2  11
BRANCH   1  19
ATOM     19  C   LIG    1       18.407  29.394   9.123  0.00  0.00    +0.032 C 
ATOM     20  C   LIG    1       17.404  28.249   9.229  0.00  0.00    +0.009 C 
ENDBRANCH   1  19
BRANCH   2  21
ATOM     21  C   LIG    1       21.438  29.671  11.757  0.00  0.00    +0.032 C 
ATOM     22  C   LIG    1       21.700  30.126  13.195  0.00  0.00    +0.009 C 
ENDBRANCH   2  21
TORSDOF 6
ENDMDL
