MODEL 1
REMARK VINA RESULT:      -9.2      0.000      0.000
REMARK  Name = 
REMARK                            x       y       z     vdW  Elec       q    Type
REMARK                         _______ _______ _______ _____ _____    ______ ____
ROOT
ATOM      1  C   LIG    1       30.063  -0.558  27.893  0.00  0.00    -0.037 C 
ATOM      2  C   LIG    1       31.156  -0.756  27.079  0.00  0.00    -0.037 C 
ENDROOT
BRANCH   1   6
ATOM      3  C   LIG    1       26.433  -3.066  28.082  0.00  0.00    +0.117 A 
ATOM      4  C   LIG    1       26.345  -1.702  27.904  0.00  0.00    +0.046 A 
ATOM      5  C   LIG    1       27.514  -0.925  27.856  0.00  0.00    +0.012 A 
ATOM      6  C   LIG    1       28.817  -1.480  27.940  0.00  0.00    -0.021 A 
ATOM      7  C   LIG    1       28.840  -2.882  28.047  0.00  0.00    +0.012 A 
ATOM      8  C   LIG    1       27.678  -3.667  28.155  0.00  0.00    +0.046 A 
BRANCH   3   9
ATOM      9  O   LIG    1       25.282  -3.785  28.172  0.00  0.00    -0.507 OA
ATOM     10  H   LIG    1       24.553  -3.252  27.816  0.00  0.00    +0.292 HD
ENDBRANCH   3   9
ENDBRANCH   1   6
BRANCH   2  11
ATOM     11  C   LIG    1       32.422   0.027  27.197  0.00  0.00    -0.021 A 
ATOM     12  C   LIG    1       32.630   1.170  26.407  0.00  0.00    +0.012 A 
ATOM     13  C   LIG    1       33.782   1.951  26.557  0.00  0.00    +0.046 A 
ATOM     14  C   LIG    1       34.697   1.644  27.555  0.00  0.00    +0.117 A 
ATOM     15  C   LIG    1       34.508   0.535  28.369  0.00  0.00    +0.046 A 
ATOM     16  C   LIG    1       33.392  -0.286  28.165  0.00  0.00    +0.012 A 
BRANCH  14  17
ATOM     17  O   LIG    1       35.771   2.469  27.710  0.00  0.00    -0.507 OA
ATOM     18  H   LIG    1       36.293   2.458  26.890  0.00  0.00    +0.292 HD
ENDBRANCH  14  17
ENDBRANCH   2  11
BRANCH   1  19
ATOM     19  C   LIG    1       29.911   0.589  28.926  0.00  0.00    +0.032 C 
ATOM     20  C   LIG    1       29.586   2.040  28.586  0.00  0.00    +0.009 C 
ENDBRANCH   1  19
BRANCH   2  21
ATOM     21  C   LIG    1       31.217  -1.842  25.995  0.00  0.00    +0.032 C 
ATOM     22  C   LIG    1       32.224  -2.995  26.004  0.00  0.00    +0.009 C 
ENDBRANCH   2  21
TORSDOF 6
ENDMDL
MODEL 2
REMARK VINA RESULT:      -9.0      0.637      6.851
REMARK  Name = 
REMARK                            x       y       z     vdW  Elec       q    Type
REMARK                         _______ _______ _______ _____ _____    ______ ____
ROOT
ATOM      1  C   LIG    1       30.755  -0.202  28.111  0.00  0.00    -0.037 C 
ATOM      2  C   LIG    1       30.413  -1.434  27.599  0.00  0.00    -0.037 C 
ENDROOT
BRANCH   1   6
ATOM      3  C   LIG    1       34.668   1.789  27.640  0.00  0.00    +0.117 A 
ATOM      4  C   LIG    1       34.421   0.952  28.707  0.00  0.00    +0.046 A 
ATOM      5  C   LIG    1       33.165   0.337  28.839  0.00  0.00    +0.012 A 
ATOM      6  C   LIG    1       32.121   0.499  27.892  0.00  0.00    -0.021 A 
ATOM      7  C   LIG    1       32.460   1.305  26.792  0.00  0.00    +0.012 A 
ATOM      8  C   LIG    1       33.693   1.974  26.676  0.00  0.00    +0.046 A 
BRANCH   3   9
ATOM      9  O   LIG    1       35.878   2.407  27.566  0.00  0.00    -0.507 OA
ATOM     10  H   LIG    1       36.112   2.522  26.631  0.00  0.00    +0.292 HD
ENDBRANCH   3   9
ENDBRANCH   1   6
BRANCH   2  11
ATOM     11  C   LIG    1       29.028  -1.992  27.655  0.00  0.00    -0.021 A 
ATOM     12  C   LIG    1       28.795  -3.268  28.193  0.00  0.00    +0.012 A 
ATOM     13  C   LIG    1       27.495  -3.773  28.314  0.00  0.00    +0.046 A 
ATOM     14  C   LIG    1       26.411  -2.976  27.972  0.00  0.00    +0.117 A 
ATOM     15  C   LIG    1       26.608  -1.701  27.460  0.00  0.00    +0.046 A 
ATOM     16  C   LIG    1       27.913  -1.227  27.271  0.00  0.00    +0.012 A 
BRANCH  14  17
ATOM     17  O   LIG    1       25.161  -3.483  28.167  0.00  0.00    -0.507 OA
ATOM     18  H   LIG    1       25.222  -4.452  28.210  0.00  0.00    +0.292 HD
ENDBRANCH  14  17
ENDBRANCH   2  11
BRANCH   1  19
ATOM     19  C   LIG    1       29.822   0.710  28.951  0.00  0.00    +0.032 C 
ATOM     20  C   LIG    1       29.155   1.986  28.448  0.00  0.00    +0.009 C 
ENDBRANCH   1  19
BRANCH   2  21
ATOM     21  C   LIG    1       31.404  -2.348  26.864  0.00  0.00    +0.032 C 
ATOM     22  C   LIG    1       31.852  -2.125  25.417  0.00  0.00    +0.009 C 
ENDBRANCH   2  21
TORSDOF 6
ENDMDL
MODEL 3
REMARK VINA RESULT:      -9.0      0.638      2.589
REMARK  Name = 
REMARK                            x       y       z     vdW  Elec       q    Type
REMARK                         _______ _______ _______ _____ _____    ______ ____
ROOT
ATOM      1  C   LIG    1       30.499  -1.318  27.875  0.00  0.00    -0.037 C 
ATOM      2  C   LIG    1       30.913  -0.093  28.350  0.00  0.00    -0.037 C 
ENDROOT
BRANCH   1   6
ATOM      3  C   LIG    1       26.405  -2.964  28.031  0.00  0.00    +0.117 A 
ATOM      4  C   LIG    1       27.502  -3.771  28.234  0.00  0.00    +0.046 A 
ATOM      5  C   LIG    1       28.795  -3.226  28.171  0.00  0.00    +0.012 A 
ATOM      6  C   LIG    1       29.043  -1.847  27.945  0.00  0.00    -0.021 A 
ATOM      7  C   LIG    1       27.882  -1.066  27.818  0.00  0.00    +0.012 A 
ATOM      8  C   LIG    1       26.583  -1.607  27.821  0.00  0.00    +0.046 A 
BRANCH   3   9
ATOM      9  O   LIG    1       25.168  -3.531  28.051  0.00  0.00    -0.507 OA
ATOM     10  H   LIG    1       24.817  -3.545  27.146  0.00  0.00    +0.292 HD
ENDBRANCH   3   9
ENDBRANCH   1   6
BRANCH   2  11
ATOM     11  C   LIG    1       32.271   0.473  28.090  0.00  0.00    -0.021 A 
ATOM     12  C   LIG    1       32.503   1.282  26.965  0.00  0.00    +0.012 A 
ATOM     13  C   LIG    1       33.752   1.875  26.749  0.00  0.00    +0.046 A 
ATOM     14  C   LIG    1       34.757   1.730  27.695  0.00  0.00    +0.117 A 
ATOM     15  C   LIG    1       34.551   0.957  28.830  0.00  0.00    +0.046 A 
ATOM     16  C   LIG    1       33.323   0.305  29.006  0.00  0.00    +0.012 A 
BRANCH  14  17
ATOM     17  O   LIG    1       35.936   2.378  27.477  0.00  0.00    -0.507 OA
ATOM     18  H   LIG    1       36.595   1.731  27.173  0.00  0.00    +0.292 HD
ENDBRANCH  14  17
ENDBRANCH   2  11
BRANCH   1  19
ATOM     19  C   LIG    1       31.403  -2.352  27.155  0.00  0.00    +0.032 C 
ATOM     20  C   LIG    1       31.845  -2.268  25.697  0.00  0.00    +0.009 C 
ENDBRANCH   1  19
BRANCH   2  21
ATOM     21  C   LIG    1       30.007   0.852  29.152  0.00  0.00    +0.032 C 
ATOM     22  C   LIG    1       29.267   2.043  28.538  0.00  0.00    +0.009 C 
ENDBRANCH   2  21
TORSDOF 6
ENDMDL
MODEL 4
REMARK VINA RESULT:      -8.9      0.702      2.609
REMARK  Name = 
REMARK                            x       y       z     vdW  Elec       q    Type
REMARK                         _______ _______ _______ _____ _____    ______ ____
ROOT
ATOM      1  C   LIG    1       30.510  -1.247  27.876  0.00  0.00    -0.037 C 
ATOM      2  C   LIG    1       30.796   0.020  28.334  0.00  0.00    -0.037 C 
ENDROOT
BRANCH   1   6
ATOM      3  C   LIG    1       26.452  -2.982  28.011  0.00  0.00    +0.117 A 
ATOM      4  C   LIG    1       26.649  -1.665  27.660  0.00  0.00    +0.046 A 
ATOM      5  C   LIG    1       27.949  -1.133  27.632  0.00  0.00    +0.012 A 
ATOM      6  C   LIG    1       29.106  -1.905  27.913  0.00  0.00    -0.021 A 
ATOM      7  C   LIG    1       28.843  -3.257  28.193  0.00  0.00    +0.012 A 
ATOM      8  C   LIG    1       27.543  -3.789  28.282  0.00  0.00    +0.046 A 
BRANCH   3   9
ATOM      9  O   LIG    1       25.177  -3.454  28.075  0.00  0.00    -0.507 OA
ATOM     10  H   LIG    1       24.616  -2.780  28.490  0.00  0.00    +0.292 HD
ENDBRANCH   3   9
ENDBRANCH   1   6
BRANCH   2  11
ATOM     11  C   LIG    1       32.105   0.701  28.103  0.00  0.00    -0.021 A 
ATOM     12  C   LIG    1       33.127   0.628  29.064  0.00  0.00    +0.012 A 
ATOM     13  C   LIG    1       34.381   1.204  28.829  0.00  0.00    +0.046 A 
ATOM     14  C   LIG    1       34.651   1.789  27.600  0.00  0.00    +0.117 A 
ATOM     15  C   LIG    1       33.669   1.857  26.620  0.00  0.00    +0.046 A 
ATOM     16  C   LIG    1       32.393   1.344  26.887  0.00  0.00    +0.012 A 
BRANCH  14  17
ATOM     17  O   LIG    1       35.905   2.279  27.390  0.00  0.00    -0.507 OA
ATOM     18  H   LIG    1       36.486   1.963  28.102  0.00  0.00    +0.292 HD
ENDBRANCH  14  17
ENDBRANCH   2  11
BRANCH   1  19
ATOM     19  C   LIG    1       31.527  -2.210  27.208  0.00  0.00    +0.032 C 
ATOM     20  C   LIG    1       31.890  -2.214  25.726  0.00  0.00    +0.009 C 
ENDBRANCH   1  19
BRANCH   2  21
ATOM     21  C   LIG    1       29.783   0.895  29.085  0.00  0.00    +0.032 C 
ATOM     22  C   LIG    1       29.079   2.104  28.463  0.00  0.00    +0.009 C 
ENDBRANCH   2  21
TORSDOF 6
ENDMDL
MODEL 5
REMARK VINA RESULT:      -8.9      0.199      7.200
REMARK  Name = 
REMARK                            x       y       z     vdW  Elec       q    Type
REMARK                         _______ _______ _______ _____ _____    ______ ____
ROOT
ATOM      1  C   LIG    1       30.961  -0.618  27.185  0.00  0.00    -0.037 C 
ATOM      2  C   LIG    1       29.834  -0.416  27.951  0.00  0.00    -0.037 C 
ENDROOT
BRANCH   1   6
ATOM      3  C   LIG    1       34.742   1.640  27.502  0.00  0.00    +0.117 A 
ATOM      4  C   LIG    1       33.773   2.004  26.593  0.00  0.00    +0.046 A 
ATOM      5  C   LIG    1       32.581   1.264  26.505  0.00  0.00    +0.012 A 
ATOM      6  C   LIG    1       32.292   0.160  27.348  0.00  0.00    -0.021 A 
ATOM      7  C   LIG    1       33.288  -0.114  28.301  0.00  0.00    +0.012 A 
ATOM      8  C   LIG    1       34.511   0.581  28.362  0.00  0.00    +0.046 A 
BRANCH   3   9
ATOM      9  O   LIG    1       35.904   2.347  27.530  0.00  0.00    -0.507 OA
ATOM     10  H   LIG    1       36.570   1.833  28.013  0.00  0.00    +0.292 HD
ENDBRANCH   3   9
ENDBRANCH   1   6
BRANCH   2  11
ATOM     11  C   LIG    1       28.640  -1.312  27.908  0.00  0.00    -0.021 A 
ATOM     12  C   LIG    1       28.782  -2.699  28.078  0.00  0.00    +0.012 A 
ATOM     13  C   LIG    1       27.663  -3.540  28.109  0.00  0.00    +0.046 A 
ATOM     14  C   LIG    1       26.388  -2.994  28.051  0.00  0.00    +0.117 A 
ATOM     15  C   LIG    1       26.214  -1.624  27.908  0.00  0.00    +0.046 A 
ATOM     16  C   LIG    1       27.337  -0.794  27.803  0.00  0.00    +0.012 A 
BRANCH  14  17
ATOM     17  O   LIG    1       25.327  -3.843  28.151  0.00  0.00    -0.507 OA
ATOM     18  H   LIG    1       24.960  -3.779  29.049  0.00  0.00    +0.292 HD
ENDBRANCH  14  17
ENDBRANCH   2  11
BRANCH   1  19
ATOM     19  C   LIG    1       31.104  -1.681  26.064  0.00  0.00    +0.032 C 
ATOM     20  C   LIG    1       32.018  -2.900  26.122  0.00  0.00    +0.009 C 
ENDBRANCH   1  19
BRANCH   2  21
ATOM     21  C   LIG    1       29.702   0.719  28.976  0.00  0.00    +0.032 C 
ATOM     22  C   LIG    1       29.389   2.171  28.600  0.00  0.00    +0.009 C 
ENDBRANCH   2  21
TORSDOF 6
ENDMDL
MODEL 6
REMARK VINA RESULT:      -8.6      0.941      6.874
REMARK  Name = 
REMARK                            x       y       z     vdW  Elec       q    Type
REMARK                         _______ _______ _______ _____ _____    ______ ____
ROOT
ATOM      1  C   LIG    1       31.097  -0.415  28.399  0.00  0.00    -0.037 C 
ATOM      2  C   LIG    1       30.428  -1.242  27.524  0.00  0.00    -0.037 C 
ENDROOT
BRANCH   1   6
ATOM      3  C   LIG    1       34.879   1.712  27.583  0.00  0.00    +0.117 A 
ATOM      4  C   LIG    1       34.864   0.550  28.323  0.00  0.00    +0.046 A 
ATOM      5  C   LIG    1       33.647  -0.104  28.576  0.00  0.00    +0.012 A 
ATOM      6  C   LIG    1       32.404   0.352  28.067  0.00  0.00    -0.021 A 
ATOM      7  C   LIG    1       32.496   1.500  27.261  0.00  0.00    +0.012 A 
ATOM      8  C   LIG    1       33.699   2.198  27.047  0.00  0.00    +0.046 A 
BRANCH   3   9
ATOM      9  O   LIG    1       36.068   2.348  27.396  0.00  0.00    -0.507 OA
ATOM     10  H   LIG    1       35.934   3.083  26.777  0.00  0.00    +0.292 HD
ENDBRANCH   3   9
ENDBRANCH   1   6
BRANCH   2  11
ATOM     11  C   LIG    1       29.072  -1.805  27.799  0.00  0.00    -0.021 A 
ATOM     12  C   LIG    1       27.930  -0.993  27.705  0.00  0.00    +0.012 A 
ATOM     13  C   LIG    1       26.649  -1.525  27.893  0.00  0.00    +0.046 A 
ATOM     14  C   LIG    1       26.492  -2.889  28.096  0.00  0.00    +0.117 A 
ATOM     15  C   LIG    1       27.600  -3.723  28.169  0.00  0.00    +0.046 A 
ATOM     16  C   LIG    1       28.884  -3.174  28.055  0.00  0.00    +0.012 A 
BRANCH  14  17
ATOM     17  O   LIG    1       25.224  -3.375  28.208  0.00  0.00    -0.507 OA
ATOM     18  H   LIG    1       25.179  -4.234  27.755  0.00  0.00    +0.292 HD
ENDBRANCH  14  17
ENDBRANCH   2  11
BRANCH   1  19
ATOM     19  C   LIG    1       30.638  -0.076  29.841  0.00  0.00    +0.032 C 
ATOM     20  C   LIG    1       31.346   0.892  30.784  0.00  0.00    +0.009 C 
ENDBRANCH   1  19
BRANCH   2  21
ATOM     21  C   LIG    1       30.977  -1.633  26.144  0.00  0.00    +0.032 C 
ATOM     22  C   LIG    1       30.731  -0.820  24.871  0.00  0.00    +0.009 C 
ENDBRANCH   2  21
TORSDOF 6
ENDMDL
MODEL 7
REMARK VINA RESULT:      -7.2      1.597      3.046
REMARK  Name = 
REMARK                            x       y       z     vdW  Elec       q    Type
REMARK                         _______ _______ _______ _____ _____    ______ ____
ROOT
ATOM      1  C   LIG    1       30.283   0.061  26.897  0.00  0.00    -0.037 C 
ATOM      2  C   LIG    1       30.992   0.569  27.963  0.00  0.00    -0.037 C 
ENDROOT
BRANCH   1   6
ATOM      3  C   LIG    1       25.964  -0.852  26.797  0.00  0.00    +0.117 A 
ATOM      4  C   LIG    1       26.891  -1.756  26.326  0.00  0.00    +0.046 A 
ATOM      5  C   LIG    1       28.260  -1.438  26.360  0.00  0.00    +0.012 A 
ATOM      6  C   LIG    1       28.759  -0.227  26.904  0.00  0.00    -0.021 A 
ATOM      7  C   LIG    1       27.769   0.619  27.434  0.00  0.00    +0.012 A 
ATOM      8  C   LIG    1       26.392   0.340  27.354  0.00  0.00    +0.046 A 
BRANCH   3   9
ATOM      9  O   LIG    1       24.644  -1.169  26.706  0.00  0.00    -0.507 OA
ATOM     10  H   LIG    1       24.564  -2.086  26.399  0.00  0.00    +0.292 HD
ENDBRANCH   3   9
ENDBRANCH   1   6
BRANCH   2  11
ATOM     11  C   LIG    1       32.411   1.025  27.865  0.00  0.00    -0.021 A 
ATOM     12  C   LIG    1       33.462   0.164  28.220  0.00  0.00    +0.012 A 
ATOM     13  C   LIG    1       34.798   0.555  28.067  0.00  0.00    +0.046 A 
ATOM     14  C   LIG    1       35.095   1.778  27.483  0.00  0.00    +0.117 A 
ATOM     15  C   LIG    1       34.078   2.642  27.099  0.00  0.00    +0.046 A 
ATOM     16  C   LIG    1       32.743   2.278  27.322  0.00  0.00    +0.012 A 
BRANCH  14  17
ATOM     17  O   LIG    1       36.408   2.091  27.293  0.00  0.00    -0.507 OA
ATOM     18  H   LIG    1       36.817   1.397  26.750  0.00  0.00    +0.292 HD
ENDBRANCH  14  17
ENDBRANCH   2  11
BRANCH   1  19
ATOM     19  C   LIG    1       30.876  -0.267  25.501  0.00  0.00    +0.032 C 
ATOM     20  C   LIG    1       31.854  -1.399  25.206  0.00  0.00    +0.009 C 
ENDBRANCH   1  19
BRANCH   2  21
ATOM     21  C   LIG    1       30.385   0.777  29.358  0.00  0.00    +0.032 C 
ATOM     22  C   LIG    1       31.218   0.888  30.638  0.00  0.00    +0.009 C 
ENDBRANCH   2  21
TORSDOF 6
ENDMDL
MODEL 8
REMARK VINA RESULT:      -6.5     10.059     11.751
REMARK  Name = 
REMARK                            x       y       z     vdW  Elec       q    Type
REMARK                         _______ _______ _______ _____ _____    ______ ____
ROOT
ATOM      1  C   LIG    1       34.267  -1.980  16.969  0.00  0.00    -0.037 C 
ATOM      2  C   LIG    1       35.149  -0.961  17.258  0.00  0.00    -0.037 C 
ENDROOT
BRANCH   1   6
ATOM      3  C   LIG    1       30.767  -3.075  19.427  0.00  0.00    +0.117 A 
ATOM      4  C   LIG    1       32.049  -3.301  19.878  0.00  0.00    +0.046 A 
ATOM      5  C   LIG    1       33.147  -2.952  19.073  0.00  0.00    +0.012 A 
ATOM      6  C   LIG    1       33.010  -2.325  17.808  0.00  0.00    -0.021 A 
ATOM      7  C   LIG    1       31.681  -2.057  17.438  0.00  0.00    +0.012 A 
ATOM      8  C   LIG    1       30.570  -2.453  18.206  0.00  0.00    +0.046 A 
BRANCH   3   9
ATOM      9  O   LIG    1       29.725  -3.468  20.209  0.00  0.00    -0.507 OA
ATOM     10  H   LIG    1       29.270  -2.679  20.542  0.00  0.00    +0.292 HD
ENDBRANCH   3   9
ENDBRANCH   1   6
BRANCH   2  11
ATOM     11  C   LIG    1       36.232  -0.523  16.328  0.00  0.00    -0.021 A 
ATOM     12  C   LIG    1       37.555  -0.956  16.520  0.00  0.00    +0.012 A 
ATOM     13  C   LIG    1       38.566  -0.608  15.616  0.00  0.00    +0.046 A 
ATOM     14  C   LIG    1       38.249   0.107  14.469  0.00  0.00    +0.117 A 
ATOM     15  C   LIG    1       36.946   0.528  14.239  0.00  0.00    +0.046 A 
ATOM     16  C   LIG    1       35.952   0.242  15.183  0.00  0.00    +0.012 A 
BRANCH  14  17
ATOM     17  O   LIG    1       39.251   0.368  13.584  0.00  0.00    -0.507 OA
ATOM     18  H   LIG    1       39.528   1.293  13.690  0.00  0.00    +0.292 HD
ENDBRANCH  14  17
ENDBRANCH   2  11
BRANCH   1  19
ATOM     19  C   LIG    1       34.357  -2.920  15.739  0.00  0.00    +0.032 C 
ATOM     20  C   LIG    1       35.435  -3.976  15.516  0.00  0.00    +0.009 C 
ENDBRANCH   1  19
BRANCH   2  21
ATOM     21  C   LIG    1       35.082  -0.126  18.544  0.00  0.00    +0.032 C 
ATOM     22  C   LIG    1       35.825  -0.488  19.833  0.00  0.00    +0.009 C 
ENDBRANCH   2  21
TORSDOF 6
ENDMDL
MODEL 9
REMARK VINA RESULT:      -6.5      3.180      5.392
REMARK  Name = 
REMARK                            x       y       z     vdW  Elec       q    Type
REMARK                         _______ _______ _______ _____ _____    ______ ____
ROOT
ATOM      1  C   LIG    1       32.382  -1.068  26.378  0.00  0.00    -0.037 C 
ATOM      2  C   LIG    1       31.571  -1.423  27.433  0.00  0.00    -0.037 C 
ENDROOT
BRANCH   1   6
ATOM      3  C   LIG    1       32.563  -3.134  22.480  0.00  0.00    +0.117 A 
ATOM      4  C   LIG    1       33.260  -3.610  23.568  0.00  0.00    +0.046 A 
ATOM      5  C   LIG    1       33.194  -2.930  24.796  0.00  0.00    +0.012 A 
ATOM      6  C   LIG    1       32.396  -1.774  24.997  0.00  0.00    -0.021 A 
ATOM      7  C   LIG    1       31.654  -1.382  23.870  0.00  0.00    +0.012 A 
ATOM      8  C   LIG    1       31.756  -2.018  22.619  0.00  0.00    +0.046 A 
BRANCH   3   9
ATOM      9  O   LIG    1       32.686  -3.788  21.293  0.00  0.00    -0.507 OA
ATOM     10  H   LIG    1       32.189  -3.301  20.616  0.00  0.00    +0.292 HD
ENDBRANCH   3   9
ENDBRANCH   1   6
BRANCH   2  11
ATOM     11  C   LIG    1       31.433  -0.605  28.675  0.00  0.00    -0.021 A 
ATOM     12  C   LIG    1       32.262  -0.844  29.783  0.00  0.00    +0.012 A 
ATOM     13  C   LIG    1       32.188  -0.040  30.927  0.00  0.00    +0.046 A 
ATOM     14  C   LIG    1       31.342   1.061  30.942  0.00  0.00    +0.117 A 
ATOM     15  C   LIG    1       30.527   1.338  29.852  0.00  0.00    +0.046 A 
ATOM     16  C   LIG    1       30.550   0.487  28.739  0.00  0.00    +0.012 A 
BRANCH  14  17
ATOM     17  O   LIG    1       31.350   1.855  32.049  0.00  0.00    -0.507 OA
ATOM     18  H   LIG    1       31.530   1.302  32.827  0.00  0.00    +0.292 HD
ENDBRANCH  14  17
ENDBRANCH   2  11
BRANCH   1  19
ATOM     19  C   LIG    1       33.380   0.120  26.374  0.00  0.00    +0.032 C 
ATOM     20  C   LIG    1       33.010   1.577  26.115  0.00  0.00    +0.009 C 
ENDBRANCH   1  19
BRANCH   2  21
ATOM     21  C   LIG    1       30.677  -2.672  27.429  0.00  0.00    +0.032 C 
ATOM     22  C   LIG    1       29.191  -2.653  27.798  0.00  0.00    +0.009 C 
ENDBRANCH   2  21
TORSDOF 6
ENDMDL
