MODEL 1
REMARK VINA RESULT:      -8.6      0.000      0.000
REMARK  Name = 
REMARK                            x       y       z     vdW  Elec       q    Type
REMARK                         _______ _______ _______ _____ _____    ______ ____
ROOT
ATOM      1  C   LIG    1       68.097  47.106  95.935  0.00  0.00    -0.037 C 
ATOM      2  C   LIG    1       67.828  47.751  97.122  0.00  0.00    -0.037 C 
ENDROOT
BRANCH   1   6
ATOM      3  C   LIG    1       68.744  49.046  92.022  0.00  0.00    +0.117 A 
ATOM      4  C   LIG    1       67.514  48.529  92.363  0.00  0.00    +0.046 A 
ATOM      5  C   LIG    1       67.335  47.909  93.610  0.00  0.00    +0.012 A 
ATOM      6  C   LIG    1       68.364  47.817  94.583  0.00  0.00    -0.021 A 
ATOM      7  C   LIG    1       69.572  48.427  94.204  0.00  0.00    +0.012 A 
ATOM      8  C   LIG    1       69.783  49.000  92.936  0.00  0.00    +0.046 A 
BRANCH   3   9
ATOM      9  O   LIG    1       68.898  49.599  90.788  0.00  0.00    -0.507 OA
ATOM     10  H   LIG    1       69.781  49.997  90.733  0.00  0.00    +0.292 HD
ENDBRANCH   3   9
ENDBRANCH   1   6
BRANCH   2  11
ATOM     11  C   LIG    1       67.776  47.054  98.443  0.00  0.00    -0.021 A 
ATOM     12  C   LIG    1       66.546  46.651  98.988  0.00  0.00    +0.012 A 
ATOM     13  C   LIG    1       66.490  45.937 100.191  0.00  0.00    +0.046 A 
ATOM     14  C   LIG    1       67.666  45.550 100.818  0.00  0.00    +0.117 A 
ATOM     15  C   LIG    1       68.898  45.913 100.291  0.00  0.00    +0.046 A 
ATOM     16  C   LIG    1       68.948  46.690  99.127  0.00  0.00    +0.012 A 
BRANCH  14  17
ATOM     17  O   LIG    1       67.567  44.800 101.951  0.00  0.00    -0.507 OA
ATOM     18  H   LIG    1       68.121  45.202 102.641  0.00  0.00    +0.292 HD
ENDBRANCH  14  17
ENDBRANCH   2  11
BRANCH   1  19
ATOM     19  C   LIG    1       68.224  45.570  95.758  0.00  0.00    +0.032 C 
ATOM     20  C   LIG    1       67.058  44.587  95.756  0.00  0.00    +0.009 C 
ENDBRANCH   1  19
BRANCH   2  21
ATOM     21  C   LIG    1       67.605  49.266  97.229  0.00  0.00    +0.032 C 
ATOM     22  C   LIG    1       68.737  50.279  97.421  0.00  0.00    +0.009 C 
ENDBRANCH   2  21
TORSDOF 6
ENDMDL
MODEL 2
REMARK VINA RESULT:      -8.6      0.270      7.171
REMARK  Name = 
REMARK                            x       y       z     vdW  Elec       q    Type
REMARK                         _______ _______ _______ _____ _____    ______ ____
ROOT
ATOM      1  C   LIG    1       67.746  47.476  96.896  0.00  0.00    -0.037 C 
ATOM      2  C   LIG    1       68.012  46.803  95.724  0.00  0.00    -0.037 C 
ENDROOT
BRANCH   1   6
ATOM      3  C   LIG    1       67.676  45.541 100.864  0.00  0.00    +0.117 A 
ATOM      4  C   LIG    1       68.865  45.924 100.282  0.00  0.00    +0.046 A 
ATOM      5  C   LIG    1       68.862  46.530  99.015  0.00  0.00    +0.012 A 
ATOM      6  C   LIG    1       67.672  46.816  98.297  0.00  0.00    -0.021 A 
ATOM      7  C   LIG    1       66.491  46.467  98.976  0.00  0.00    +0.012 A 
ATOM      8  C   LIG    1       66.481  45.807 100.218  0.00  0.00    +0.046 A 
BRANCH   3   9
ATOM      9  O   LIG    1       67.716  44.913 102.071  0.00  0.00    -0.507 OA
ATOM     10  H   LIG    1       67.749  43.955 101.923  0.00  0.00    +0.292 HD
ENDBRANCH   3   9
ENDBRANCH   1   6
BRANCH   2  11
ATOM     11  C   LIG    1       68.277  47.489  94.424  0.00  0.00    -0.021 A 
ATOM     12  C   LIG    1       67.232  47.723  93.515  0.00  0.00    +0.012 A 
ATOM     13  C   LIG    1       67.454  48.426  92.325  0.00  0.00    +0.046 A 
ATOM     14  C   LIG    1       68.705  48.970  92.070  0.00  0.00    +0.117 A 
ATOM     15  C   LIG    1       69.753  48.777  92.960  0.00  0.00    +0.046 A 
ATOM     16  C   LIG    1       69.545  48.010  94.114  0.00  0.00    +0.012 A 
BRANCH  14  17
ATOM     17  O   LIG    1       68.861  49.702  90.931  0.00  0.00    -0.507 OA
ATOM     18  H   LIG    1       69.753  50.088  90.929  0.00  0.00    +0.292 HD
ENDBRANCH  14  17
ENDBRANCH   2  11
BRANCH   1  19
ATOM     19  C   LIG    1       67.520  49.005  97.020  0.00  0.00    +0.032 C 
ATOM     20  C   LIG    1       68.625  50.048  97.155  0.00  0.00    +0.009 C 
ENDBRANCH   1  19
BRANCH   2  21
ATOM     21  C   LIG    1       68.122  45.274  95.634  0.00  0.00    +0.032 C 
ATOM     22  C   LIG    1       66.926  44.327  95.768  0.00  0.00    +0.009 C 
ENDBRANCH   2  21
TORSDOF 6
ENDMDL
MODEL 3
REMARK VINA RESULT:      -8.4      0.611      6.860
REMARK  Name = 
REMARK                            x       y       z     vdW  Elec       q    Type
REMARK                         _______ _______ _______ _____ _____    ______ ____
ROOT
ATOM      1  C   LIG    1       68.182  46.929  96.812  0.00  0.00    -0.037 C 
ATOM      2  C   LIG    1       68.182  48.241  96.395  0.00  0.00    -0.037 C 
ENDROOT
BRANCH   1   6
ATOM      3  C   LIG    1       67.405  45.523 100.925  0.00  0.00    +0.117 A 
ATOM      4  C   LIG    1       68.690  45.749 100.483  0.00  0.00    +0.046 A 
ATOM      5  C   LIG    1       68.912  46.188  99.167  0.00  0.00    +0.012 A 
ATOM      6  C   LIG    1       67.861  46.459  98.254  0.00  0.00    -0.021 A 
ATOM      7  C   LIG    1       66.573  46.279  98.788  0.00  0.00    +0.012 A 
ATOM      8  C   LIG    1       66.337  45.785 100.085  0.00  0.00    +0.046 A 
BRANCH   3   9
ATOM      9  O   LIG    1       67.226  45.053 102.189  0.00  0.00    -0.507 OA
ATOM     10  H   LIG    1       66.286  45.128 102.419  0.00  0.00    +0.292 HD
ENDBRANCH   3   9
ENDBRANCH   1   6
BRANCH   2  11
ATOM     11  C   LIG    1       68.295  48.649  94.962  0.00  0.00    -0.021 A 
ATOM     12  C   LIG    1       69.445  49.309  94.497  0.00  0.00    +0.012 A 
ATOM     13  C   LIG    1       69.592  49.634  93.144  0.00  0.00    +0.046 A 
ATOM     14  C   LIG    1       68.628  49.231  92.229  0.00  0.00    +0.117 A 
ATOM     15  C   LIG    1       67.491  48.557  92.654  0.00  0.00    +0.046 A 
ATOM     16  C   LIG    1       67.313  48.298  94.020  0.00  0.00    +0.012 A 
BRANCH  14  17
ATOM     17  O   LIG    1       68.843  49.511  90.913  0.00  0.00    -0.507 OA
ATOM     18  H   LIG    1       69.631  49.026  90.617  0.00  0.00    +0.292 HD
ENDBRANCH  14  17
ENDBRANCH   2  11
BRANCH   1  19
ATOM     19  C   LIG    1       68.458  45.700  95.906  0.00  0.00    +0.032 C 
ATOM     20  C   LIG    1       67.524  44.506  95.736  0.00  0.00    +0.009 C 
ENDBRANCH   1  19
BRANCH   2  21
ATOM     21  C   LIG    1       68.009  49.431  97.350  0.00  0.00    +0.032 C 
ATOM     22  C   LIG    1       69.061  49.854  98.379  0.00  0.00    +0.009 C 
ENDBRANCH   2  21
TORSDOF 6
ENDMDL
MODEL 4
REMARK VINA RESULT:      -8.3      0.630      2.604
REMARK  Name = 
REMARK                            x       y       z     vdW  Elec       q    Type
REMARK                         _______ _______ _______ _____ _____    ______ ____
ROOT
ATOM      1  C   LIG    1       68.396  47.959  96.378  0.00  0.00    -0.037 C 
ATOM      2  C   LIG    1       68.243  46.671  96.842  0.00  0.00    -0.037 C 
ENDROOT
BRANCH   1   6
ATOM      3  C   LIG    1       68.659  49.208  92.152  0.00  0.00    +0.117 A 
ATOM      4  C   LIG    1       69.716  49.397  93.015  0.00  0.00    +0.046 A 
ATOM      5  C   LIG    1       69.605  48.999  94.357  0.00  0.00    +0.012 A 
ATOM      6  C   LIG    1       68.453  48.359  94.881  0.00  0.00    -0.021 A 
ATOM      7  C   LIG    1       67.439  48.130  93.934  0.00  0.00    +0.012 A 
ATOM      8  C   LIG    1       67.514  48.575  92.601  0.00  0.00    +0.046 A 
BRANCH   3   9
ATOM      9  O   LIG    1       68.781  49.648  90.870  0.00  0.00    -0.507 OA
ATOM     10  H   LIG    1       67.976  50.133  90.629  0.00  0.00    +0.292 HD
ENDBRANCH   3   9
ENDBRANCH   1   6
BRANCH   2  11
ATOM     11  C   LIG    1       67.989  46.337  98.275  0.00  0.00    -0.021 A 
ATOM     12  C   LIG    1       66.676  46.263  98.769  0.00  0.00    +0.012 A 
ATOM     13  C   LIG    1       66.423  45.884 100.093  0.00  0.00    +0.046 A 
ATOM     14  C   LIG    1       67.476  45.498 100.912  0.00  0.00    +0.117 A 
ATOM     15  C   LIG    1       68.783  45.538 100.446  0.00  0.00    +0.046 A 
ATOM     16  C   LIG    1       69.038  45.988  99.144  0.00  0.00    +0.012 A 
BRANCH  14  17
ATOM     17  O   LIG    1       67.179  45.074 102.173  0.00  0.00    -0.507 OA
ATOM     18  H   LIG    1       67.818  45.466 102.791  0.00  0.00    +0.292 HD
ENDBRANCH  14  17
ENDBRANCH   2  11
BRANCH   1  19
ATOM     19  C   LIG    1       68.492  49.226  97.268  0.00  0.00    +0.032 C 
ATOM     20  C   LIG    1       69.580  49.492  98.303  0.00  0.00    +0.009 C 
ENDBRANCH   1  19
BRANCH   2  21
ATOM     21  C   LIG    1       68.261  45.437  95.928  0.00  0.00    +0.032 C 
ATOM     22  C   LIG    1       67.017  44.607  95.597  0.00  0.00    +0.009 C 
ENDBRANCH   2  21
TORSDOF 6
ENDMDL
MODEL 5
REMARK VINA RESULT:      -7.6      0.494      1.161
REMARK  Name = 
REMARK                            x       y       z     vdW  Elec       q    Type
REMARK                         _______ _______ _______ _____ _____    ______ ____
ROOT
ATOM      1  C   LIG    1       67.647  47.059  95.902  0.00  0.00    -0.037 C 
ATOM      2  C   LIG    1       67.788  47.709  97.108  0.00  0.00    -0.037 C 
ENDROOT
BRANCH   1   6
ATOM      3  C   LIG    1       68.530  48.943  92.008  0.00  0.00    +0.117 A 
ATOM      4  C   LIG    1       69.544  48.592  92.872  0.00  0.00    +0.046 A 
ATOM      5  C   LIG    1       69.237  48.002  94.110  0.00  0.00    +0.012 A 
ATOM      6  C   LIG    1       67.911  47.699  94.515  0.00  0.00    -0.021 A 
ATOM      7  C   LIG    1       66.930  48.015  93.559  0.00  0.00    +0.012 A 
ATOM      8  C   LIG    1       67.217  48.659  92.342  0.00  0.00    +0.046 A 
BRANCH   3   9
ATOM      9  O   LIG    1       68.857  49.556  90.838  0.00  0.00    -0.507 OA
ATOM     10  H   LIG    1       68.749  50.515  90.948  0.00  0.00    +0.292 HD
ENDBRANCH   3   9
ENDBRANCH   1   6
BRANCH   2  11
ATOM     11  C   LIG    1       67.724  47.016  98.429  0.00  0.00    -0.021 A 
ATOM     12  C   LIG    1       66.486  46.761  99.041  0.00  0.00    +0.012 A 
ATOM     13  C   LIG    1       66.409  46.051 100.245  0.00  0.00    +0.046 A 
ATOM     14  C   LIG    1       67.562  45.519 100.807  0.00  0.00    +0.117 A 
ATOM     15  C   LIG    1       68.799  45.734 100.213  0.00  0.00    +0.046 A 
ATOM     16  C   LIG    1       68.879  46.507  99.048  0.00  0.00    +0.012 A 
BRANCH  14  17
ATOM     17  O   LIG    1       67.434  44.779 101.944  0.00  0.00    -0.507 OA
ATOM     18  H   LIG    1       66.988  43.945 101.723  0.00  0.00    +0.292 HD
ENDBRANCH  14  17
ENDBRANCH   2  11
BRANCH   1  19
ATOM     19  C   LIG    1       67.245  45.570  95.728  0.00  0.00    +0.032 C 
ATOM     20  C   LIG    1       68.041  44.379  96.250  0.00  0.00    +0.009 C 
ENDBRANCH   1  19
BRANCH   2  21
ATOM     21  C   LIG    1       68.083  49.211  97.228  0.00  0.00    +0.032 C 
ATOM     22  C   LIG    1       69.121  49.799  98.188  0.00  0.00    +0.009 C 
ENDBRANCH   2  21
TORSDOF 6
ENDMDL
MODEL 6
REMARK VINA RESULT:      -7.2      1.115      6.874
REMARK  Name = 
REMARK                            x       y       z     vdW  Elec       q    Type
REMARK                         _______ _______ _______ _____ _____    ______ ____
ROOT
ATOM      1  C   LIG    1       67.875  46.671  96.449  0.00  0.00    -0.037 C 
ATOM      2  C   LIG    1       68.698  47.723  96.115  0.00  0.00    -0.037 C 
ENDROOT
BRANCH   1   6
ATOM      3  C   LIG    1       67.032  45.273 100.552  0.00  0.00    +0.117 A 
ATOM      4  C   LIG    1       68.140  44.828  99.864  0.00  0.00    +0.046 A 
ATOM      5  C   LIG    1       68.382  45.281  98.556  0.00  0.00    +0.012 A 
ATOM      6  C   LIG    1       67.553  46.226  97.899  0.00  0.00    -0.021 A 
ATOM      7  C   LIG    1       66.482  46.695  98.680  0.00  0.00    +0.012 A 
ATOM      8  C   LIG    1       66.194  46.207  99.968  0.00  0.00    +0.046 A 
BRANCH   3   9
ATOM      9  O   LIG    1       66.800  44.779 101.798  0.00  0.00    -0.507 OA
ATOM     10  H   LIG    1       67.442  45.168 102.412  0.00  0.00    +0.292 HD
ENDBRANCH   3   9
ENDBRANCH   1   6
BRANCH   2  11
ATOM     11  C   LIG    1       68.830  48.255  94.725  0.00  0.00    -0.021 A 
ATOM     12  C   LIG    1       69.814  47.749  93.859  0.00  0.00    +0.012 A 
ATOM     13  C   LIG    1       69.903  48.189  92.533  0.00  0.00    +0.046 A 
ATOM     14  C   LIG    1       68.960  49.080  92.038  0.00  0.00    +0.117 A 
ATOM     15  C   LIG    1       67.961  49.580  92.863  0.00  0.00    +0.046 A 
ATOM     16  C   LIG    1       67.920  49.193  94.208  0.00  0.00    +0.012 A 
BRANCH  14  17
ATOM     17  O   LIG    1       69.044  49.432  90.724  0.00  0.00    -0.507 OA
ATOM     18  H   LIG    1       69.559  48.755  90.253  0.00  0.00    +0.292 HD
ENDBRANCH  14  17
ENDBRANCH   2  11
BRANCH   1  19
ATOM     19  C   LIG    1       67.099  45.784  95.440  0.00  0.00    +0.032 C 
ATOM     20  C   LIG    1       66.047  46.287  94.457  0.00  0.00    +0.009 C 
ENDBRANCH   1  19
BRANCH   2  21
ATOM     21  C   LIG    1       69.530  48.505  97.142  0.00  0.00    +0.032 C 
ATOM     22  C   LIG    1       68.934  49.515  98.127  0.00  0.00    +0.009 C 
ENDBRANCH   2  21
TORSDOF 6
ENDMDL
MODEL 7
REMARK VINA RESULT:      -6.5     11.542     12.669
REMARK  Name = 
REMARK                            x       y       z     vdW  Elec       q    Type
REMARK                         _______ _______ _______ _____ _____    ______ ____
ROOT
ATOM      1  C   LIG    1       69.682  54.262  86.445  0.00  0.00    -0.037 C 
ATOM      2  C   LIG    1       69.388  54.856  87.652  0.00  0.00    -0.037 C 
ENDROOT
BRANCH   1   6
ATOM      3  C   LIG    1       73.125  51.645  85.557  0.00  0.00    +0.117 A 
ATOM      4  C   LIG    1       72.392  52.221  84.543  0.00  0.00    +0.046 A 
ATOM      5  C   LIG    1       71.295  53.043  84.851  0.00  0.00    +0.012 A 
ATOM      6  C   LIG    1       70.913  53.357  86.181  0.00  0.00    -0.021 A 
ATOM      7  C   LIG    1       71.744  52.798  87.167  0.00  0.00    +0.012 A 
ATOM      8  C   LIG    1       72.810  51.926  86.875  0.00  0.00    +0.046 A 
BRANCH   3   9
ATOM      9  O   LIG    1       74.152  50.816  85.226  0.00  0.00    -0.507 OA
ATOM     10  H   LIG    1       74.978  51.326  85.229  0.00  0.00    +0.292 HD
ENDBRANCH   3   9
ENDBRANCH   1   6
BRANCH   2  11
ATOM     11  C   LIG    1       68.097  55.553  87.934  0.00  0.00    -0.021 A 
ATOM     12  C   LIG    1       67.233  55.076  88.933  0.00  0.00    +0.012 A 
ATOM     13  C   LIG    1       66.054  55.760  89.253  0.00  0.00    +0.046 A 
ATOM     14  C   LIG    1       65.768  56.969  88.634  0.00  0.00    +0.117 A 
ATOM     15  C   LIG    1       66.616  57.479  87.659  0.00  0.00    +0.046 A 
ATOM     16  C   LIG    1       67.757  56.755  87.290  0.00  0.00    +0.012 A 
BRANCH  14  17
ATOM     17  O   LIG    1       64.644  57.634  89.022  0.00  0.00    -0.507 OA
ATOM     18  H   LIG    1       64.014  57.637  88.282  0.00  0.00    +0.292 HD
ENDBRANCH  14  17
ENDBRANCH   2  11
BRANCH   1  19
ATOM     19  C   LIG    1       68.813  54.359  85.163  0.00  0.00    +0.032 C 
ATOM     20  C   LIG    1       68.160  53.177  84.453  0.00  0.00    +0.009 C 
ENDBRANCH   1  19
BRANCH   2  21
ATOM     21  C   LIG    1       70.333  54.821  88.863  0.00  0.00    +0.032 C 
ATOM     22  C   LIG    1       71.333  55.933  89.192  0.00  0.00    +0.009 C 
ENDBRANCH   2  21
TORSDOF 6
ENDMDL
