MODEL 1
REMARK VINA RESULT:      -9.4      0.000      0.000
REMARK  Name = 
REMARK                            x       y       z     vdW  Elec       q    Type
REMARK                         _______ _______ _______ _____ _____    ______ ____
ROOT
ATOM      1  C   LIG    1       38.873  32.411   7.512  0.00  0.00    -0.037 C 
ATOM      2  C   LIG    1       37.995  33.471   7.548  0.00  0.00    -0.037 C 
ENDROOT
BRANCH   1   6
ATOM      3  C   LIG    1       38.887  28.968  10.276  0.00  0.00    +0.117 A 
ATOM      4  C   LIG    1       39.701  30.057  10.496  0.00  0.00    +0.046 A 
ATOM      5  C   LIG    1       39.685  31.137   9.597  0.00  0.00    +0.012 A 
ATOM      6  C   LIG    1       38.827  31.191   8.468  0.00  0.00    -0.021 A 
ATOM      7  C   LIG    1       37.971  30.083   8.342  0.00  0.00    +0.012 A 
ATOM      8  C   LIG    1       38.017  28.970   9.200  0.00  0.00    +0.046 A 
BRANCH   3   9
ATOM      9  O   LIG    1       38.961  27.918  11.139  0.00  0.00    -0.507 OA
ATOM     10  H   LIG    1       38.089  27.786  11.543  0.00  0.00    +0.292 HD
ENDBRANCH   3   9
ENDBRANCH   1   6
BRANCH   2  11
ATOM     11  C   LIG    1       37.937  34.527   6.493  0.00  0.00    -0.021 A 
ATOM     12  C   LIG    1       37.399  34.242   5.227  0.00  0.00    +0.012 A 
ATOM     13  C   LIG    1       37.276  35.240   4.254  0.00  0.00    +0.046 A 
ATOM     14  C   LIG    1       37.615  36.550   4.564  0.00  0.00    +0.117 A 
ATOM     15  C   LIG    1       38.127  36.869   5.815  0.00  0.00    +0.046 A 
ATOM     16  C   LIG    1       38.317  35.853   6.761  0.00  0.00    +0.012 A 
BRANCH  14  17
ATOM     17  O   LIG    1       37.418  37.502   3.609  0.00  0.00    -0.507 OA
ATOM     18  H   LIG    1       38.281  37.868   3.351  0.00  0.00    +0.292 HD
ENDBRANCH  14  17
ENDBRANCH   2  11
BRANCH   1  19
ATOM     19  C   LIG    1       40.023  32.233   6.486  0.00  0.00    +0.032 C 
ATOM     20  C   LIG    1       40.530  30.896   5.957  0.00  0.00    +0.009 C 
ENDBRANCH   1  19
BRANCH   2  21
ATOM     21  C   LIG    1       36.940  33.657   8.648  0.00  0.00    +0.032 C 
ATOM     22  C   LIG    1       37.281  33.960  10.109  0.00  0.00    +0.009 C 
ENDBRANCH   2  21
TORSDOF 6
ENDMDL
MODEL 2
REMARK VINA RESULT:      -9.3      0.107      7.134
REMARK  Name = 
REMARK                            x       y       z     vdW  Elec       q    Type
REMARK                         _______ _______ _______ _____ _____    ______ ____
ROOT
ATOM      1  C   LIG    1       38.021  33.417   7.630  0.00  0.00    -0.037 C 
ATOM      2  C   LIG    1       38.905  32.361   7.589  0.00  0.00    -0.037 C 
ENDROOT
BRANCH   1   6
ATOM      3  C   LIG    1       37.641  36.621   4.616  0.00  0.00    +0.117 A 
ATOM      4  C   LIG    1       38.164  36.880   5.864  0.00  0.00    +0.046 A 
ATOM      5  C   LIG    1       38.266  35.845   6.809  0.00  0.00    +0.012 A 
ATOM      6  C   LIG    1       37.892  34.505   6.532  0.00  0.00    -0.021 A 
ATOM      7  C   LIG    1       37.435  34.293   5.220  0.00  0.00    +0.012 A 
ATOM      8  C   LIG    1       37.272  35.330   4.282  0.00  0.00    +0.046 A 
BRANCH   3   9
ATOM      9  O   LIG    1       37.511  37.654   3.740  0.00  0.00    -0.507 OA
ATOM     10  H   LIG    1       38.345  37.759   3.255  0.00  0.00    +0.292 HD
ENDBRANCH   3   9
ENDBRANCH   1   6
BRANCH   2  11
ATOM     11  C   LIG    1       38.870  31.222   8.554  0.00  0.00    -0.021 A 
ATOM     12  C   LIG    1       37.981  30.152   8.362  0.00  0.00    +0.012 A 
ATOM     13  C   LIG    1       37.987  29.046   9.220  0.00  0.00    +0.046 A 
ATOM     14  C   LIG    1       38.936  28.962  10.230  0.00  0.00    +0.117 A 
ATOM     15  C   LIG    1       39.844  29.993  10.431  0.00  0.00    +0.046 A 
ATOM     16  C   LIG    1       39.787  31.131   9.616  0.00  0.00    +0.012 A 
BRANCH  14  17
ATOM     17  O   LIG    1       38.948  27.838  11.001  0.00  0.00    -0.507 OA
ATOM     18  H   LIG    1       38.656  27.086  10.459  0.00  0.00    +0.292 HD
ENDBRANCH  14  17
ENDBRANCH   2  11
BRANCH   1  19
ATOM     19  C   LIG    1       36.979  33.671   8.751  0.00  0.00    +0.032 C 
ATOM     20  C   LIG    1       37.311  33.922  10.218  0.00  0.00    +0.009 C 
ENDBRANCH   1  19
BRANCH   2  21
ATOM     21  C   LIG    1       39.991  32.210   6.514  0.00  0.00    +0.032 C 
ATOM     22  C   LIG    1       40.481  30.859   5.986  0.00  0.00    +0.009 C 
ENDBRANCH   2  21
TORSDOF 6
ENDMDL
MODEL 3
REMARK VINA RESULT:      -8.5      0.756      6.912
REMARK  Name = 
REMARK                            x       y       z     vdW  Elec       q    Type
REMARK                         _______ _______ _______ _____ _____    ______ ____
ROOT
ATOM      1  C   LIG    1       38.625  32.853   7.272  0.00  0.00    -0.037 C 
ATOM      2  C   LIG    1       38.174  32.547   8.537  0.00  0.00    -0.037 C 
ENDROOT
BRANCH   1   6
ATOM      3  C   LIG    1       37.735  36.525   4.987  0.00  0.00    +0.117 A 
ATOM      4  C   LIG    1       37.377  35.285   4.505  0.00  0.00    +0.046 A 
ATOM      5  C   LIG    1       37.679  34.131   5.246  0.00  0.00    +0.012 A 
ATOM      6  C   LIG    1       38.311  34.170   6.516  0.00  0.00    -0.021 A 
ATOM      7  C   LIG    1       38.585  35.467   6.984  0.00  0.00    +0.012 A 
ATOM      8  C   LIG    1       38.341  36.628   6.227  0.00  0.00    +0.046 A 
BRANCH   3   9
ATOM      9  O   LIG    1       37.471  37.620   4.224  0.00  0.00    -0.507 OA
ATOM     10  H   LIG    1       37.411  38.396   4.803  0.00  0.00    +0.292 HD
ENDBRANCH   3   9
ENDBRANCH   1   6
BRANCH   2  11
ATOM     11  C   LIG    1       38.654  31.367   9.317  0.00  0.00    -0.021 A 
ATOM     12  C   LIG    1       39.819  31.454  10.097  0.00  0.00    +0.012 A 
ATOM     13  C   LIG    1       40.241  30.378  10.887  0.00  0.00    +0.046 A 
ATOM     14  C   LIG    1       39.459  29.234  10.967  0.00  0.00    +0.117 A 
ATOM     15  C   LIG    1       38.289  29.127  10.227  0.00  0.00    +0.046 A 
ATOM     16  C   LIG    1       37.909  30.177   9.381  0.00  0.00    +0.012 A 
BRANCH  14  17
ATOM     17  O   LIG    1       39.872  28.237  11.798  0.00  0.00    -0.507 OA
ATOM     18  H   LIG    1       40.359  27.578  11.276  0.00  0.00    +0.292 HD
ENDBRANCH  14  17
ENDBRANCH   2  11
BRANCH   1  19
ATOM     19  C   LIG    1       39.554  31.958   6.410  0.00  0.00    +0.032 C 
ATOM     20  C   LIG    1       41.003  31.619   6.743  0.00  0.00    +0.009 C 
ENDBRANCH   1  19
BRANCH   2  21
ATOM     21  C   LIG    1       37.169  33.414   9.308  0.00  0.00    +0.032 C 
ATOM     22  C   LIG    1       37.485  34.097  10.642  0.00  0.00    +0.009 C 
ENDBRANCH   2  21
TORSDOF 6
ENDMDL
MODEL 4
REMARK VINA RESULT:      -8.5      0.706      2.627
REMARK  Name = 
REMARK                            x       y       z     vdW  Elec       q    Type
REMARK                         _______ _______ _______ _____ _____    ______ ____
ROOT
ATOM      1  C   LIG    1       38.246  32.330   8.168  0.00  0.00    -0.037 C 
ATOM      2  C   LIG    1       38.935  32.843   7.092  0.00  0.00    -0.037 C 
ENDROOT
BRANCH   1   6
ATOM      3  C   LIG    1       39.577  29.004  10.750  0.00  0.00    +0.117 A 
ATOM      4  C   LIG    1       38.678  28.792   9.728  0.00  0.00    +0.046 A 
ATOM      5  C   LIG    1       38.263  29.868   8.925  0.00  0.00    +0.012 A 
ATOM      6  C   LIG    1       38.760  31.188   9.084  0.00  0.00    -0.021 A 
ATOM      7  C   LIG    1       39.726  31.323  10.096  0.00  0.00    +0.012 A 
ATOM      8  C   LIG    1       40.107  30.268  10.945  0.00  0.00    +0.046 A 
BRANCH   3   9
ATOM      9  O   LIG    1       39.922  27.951  11.540  0.00  0.00    -0.507 OA
ATOM     10  H   LIG    1       40.842  28.065  11.827  0.00  0.00    +0.292 HD
ENDBRANCH   3   9
ENDBRANCH   1   6
BRANCH   2  11
ATOM     11  C   LIG    1       38.511  34.071   6.354  0.00  0.00    -0.021 A 
ATOM     12  C   LIG    1       37.785  33.968   5.156  0.00  0.00    +0.012 A 
ATOM     13  C   LIG    1       37.323  35.111   4.493  0.00  0.00    +0.046 A 
ATOM     14  C   LIG    1       37.512  36.363   5.062  0.00  0.00    +0.117 A 
ATOM     15  C   LIG    1       38.205  36.495   6.258  0.00  0.00    +0.046 A 
ATOM     16  C   LIG    1       38.730  35.356   6.881  0.00  0.00    +0.012 A 
BRANCH  14  17
ATOM     17  O   LIG    1       36.989  37.442   4.416  0.00  0.00    -0.507 OA
ATOM     18  H   LIG    1       36.636  37.151   3.559  0.00  0.00    +0.292 HD
ENDBRANCH  14  17
ENDBRANCH   2  11
BRANCH   1  19
ATOM     19  C   LIG    1       36.868  32.832   8.673  0.00  0.00    +0.032 C 
ATOM     20  C   LIG    1       36.640  34.102   9.487  0.00  0.00    +0.009 C 
ENDBRANCH   1  19
BRANCH   2  21
ATOM     21  C   LIG    1       40.245  32.243   6.563  0.00  0.00    +0.032 C 
ATOM     22  C   LIG    1       40.353  30.843   5.952  0.00  0.00    +0.009 C 
ENDBRANCH   2  21
TORSDOF 6
ENDMDL
MODEL 5
REMARK VINA RESULT:      -7.9      2.631      7.608
REMARK  Name = 
REMARK                            x       y       z     vdW  Elec       q    Type
REMARK                         _______ _______ _______ _____ _____    ______ ____
ROOT
ATOM      1  C   LIG    1       40.048  30.495   8.642  0.00  0.00    -0.037 C 
ATOM      2  C   LIG    1       39.648  29.204   8.378  0.00  0.00    -0.037 C 
ENDROOT
BRANCH   1   6
ATOM      3  C   LIG    1       37.736  34.148   7.745  0.00  0.00    +0.117 A 
ATOM      4  C   LIG    1       38.661  33.657   6.850  0.00  0.00    +0.046 A 
ATOM      5  C   LIG    1       39.391  32.498   7.162  0.00  0.00    +0.012 A 
ATOM      6  C   LIG    1       39.196  31.759   8.358  0.00  0.00    -0.021 A 
ATOM      7  C   LIG    1       38.188  32.271   9.194  0.00  0.00    +0.012 A 
ATOM      8  C   LIG    1       37.491  33.463   8.922  0.00  0.00    +0.046 A 
BRANCH   3   9
ATOM      9  O   LIG    1       37.080  35.299   7.434  0.00  0.00    -0.507 OA
ATOM     10  H   LIG    1       37.645  36.053   7.668  0.00  0.00    +0.292 HD
ENDBRANCH   3   9
ENDBRANCH   1   6
BRANCH   2  11
ATOM     11  C   LIG    1       40.399  27.999   8.844  0.00  0.00    -0.021 A 
ATOM     12  C   LIG    1       41.682  27.722   8.344  0.00  0.00    +0.012 A 
ATOM     13  C   LIG    1       42.423  26.635   8.824  0.00  0.00    +0.046 A 
ATOM     14  C   LIG    1       41.922  25.864   9.864  0.00  0.00    +0.117 A 
ATOM     15  C   LIG    1       40.666  26.128  10.395  0.00  0.00    +0.046 A 
ATOM     16  C   LIG    1       39.897  27.170   9.862  0.00  0.00    +0.012 A 
BRANCH  14  17
ATOM     17  O   LIG    1       42.704  24.857  10.345  0.00  0.00    -0.507 OA
ATOM     18  H   LIG    1       43.628  25.042  10.109  0.00  0.00    +0.292 HD
ENDBRANCH  14  17
ENDBRANCH   2  11
BRANCH   1  19
ATOM     19  C   LIG    1       41.391  30.900   9.304  0.00  0.00    +0.032 C 
ATOM     20  C   LIG    1       41.777  30.617  10.752  0.00  0.00    +0.009 C 
ENDBRANCH   1  19
BRANCH   2  21
ATOM     21  C   LIG    1       38.357  28.856   7.623  0.00  0.00    +0.032 C 
ATOM     22  C   LIG    1       36.961  28.938   8.246  0.00  0.00    +0.009 C 
ENDBRANCH   2  21
TORSDOF 6
ENDMDL
MODEL 6
REMARK VINA RESULT:      -7.7      2.510      7.532
REMARK  Name = 
REMARK                            x       y       z     vdW  Elec       q    Type
REMARK                         _______ _______ _______ _____ _____    ______ ____
ROOT
ATOM      1  C   LIG    1       39.012  30.370   8.697  0.00  0.00    -0.037 C 
ATOM      2  C   LIG    1       40.134  30.049   9.428  0.00  0.00    -0.037 C 
ENDROOT
BRANCH   1   6
ATOM      3  C   LIG    1       37.719  34.509   7.864  0.00  0.00    +0.117 A 
ATOM      4  C   LIG    1       38.575  33.849   7.012  0.00  0.00    +0.046 A 
ATOM      5  C   LIG    1       38.980  32.535   7.303  0.00  0.00    +0.012 A 
ATOM      6  C   LIG    1       38.512  31.814   8.432  0.00  0.00    -0.021 A 
ATOM      7  C   LIG    1       37.586  32.517   9.222  0.00  0.00    +0.012 A 
ATOM      8  C   LIG    1       37.217  33.853   8.975  0.00  0.00    +0.046 A 
BRANCH   3   9
ATOM      9  O   LIG    1       37.384  35.797   7.580  0.00  0.00    -0.507 OA
ATOM     10  H   LIG    1       37.644  36.359   8.327  0.00  0.00    +0.292 HD
ENDBRANCH   3   9
ENDBRANCH   1   6
BRANCH   2  11
ATOM     11  C   LIG    1       40.704  28.670   9.497  0.00  0.00    -0.021 A 
ATOM     12  C   LIG    1       41.667  28.248   8.566  0.00  0.00    +0.012 A 
ATOM     13  C   LIG    1       42.258  26.983   8.663  0.00  0.00    +0.046 A 
ATOM     14  C   LIG    1       41.951  26.159   9.737  0.00  0.00    +0.117 A 
ATOM     15  C   LIG    1       41.020  26.557  10.687  0.00  0.00    +0.046 A 
ATOM     16  C   LIG    1       40.377  27.794  10.546  0.00  0.00    +0.012 A 
BRANCH  14  17
ATOM     17  O   LIG    1       42.598  24.963   9.828  0.00  0.00    -0.507 OA
ATOM     18  H   LIG    1       42.347  24.415   9.065  0.00  0.00    +0.292 HD
ENDBRANCH  14  17
ENDBRANCH   2  11
BRANCH   1  19
ATOM     19  C   LIG    1       38.086  29.351   7.982  0.00  0.00    +0.032 C 
ATOM     20  C   LIG    1       36.671  28.991   8.422  0.00  0.00    +0.009 C 
ENDBRANCH   1  19
BRANCH   2  21
ATOM     21  C   LIG    1       40.959  31.084  10.207  0.00  0.00    +0.032 C 
ATOM     22  C   LIG    1       42.235  30.743  10.982  0.00  0.00    +0.009 C 
ENDBRANCH   2  21
TORSDOF 6
ENDMDL
MODEL 7
REMARK VINA RESULT:      -7.6      2.633      4.253
REMARK  Name = 
REMARK                            x       y       z     vdW  Elec       q    Type
REMARK                         _______ _______ _______ _____ _____    ______ ____
ROOT
ATOM      1  C   LIG    1       39.696  29.353   8.457  0.00  0.00    -0.037 C 
ATOM      2  C   LIG    1       40.088  30.663   8.622  0.00  0.00    -0.037 C 
ENDROOT
BRANCH   1   6
ATOM      3  C   LIG    1       41.944  25.839   9.904  0.00  0.00    +0.117 A 
ATOM      4  C   LIG    1       42.446  26.639   8.901  0.00  0.00    +0.046 A 
ATOM      5  C   LIG    1       41.708  27.746   8.452  0.00  0.00    +0.012 A 
ATOM      6  C   LIG    1       40.461  28.124   9.013  0.00  0.00    -0.021 A 
ATOM      7  C   LIG    1       40.039  27.312  10.080  0.00  0.00    +0.012 A 
ATOM      8  C   LIG    1       40.739  26.166  10.501  0.00  0.00    +0.046 A 
BRANCH   3   9
ATOM      9  O   LIG    1       42.660  24.746  10.284  0.00  0.00    -0.507 OA
ATOM     10  H   LIG    1       43.568  25.024  10.487  0.00  0.00    +0.292 HD
ENDBRANCH   3   9
ENDBRANCH   1   6
BRANCH   2  11
ATOM     11  C   LIG    1       39.232  31.830   8.253  0.00  0.00    -0.021 A 
ATOM     12  C   LIG    1       38.265  32.317   9.149  0.00  0.00    +0.012 A 
ATOM     13  C   LIG    1       37.505  33.452   8.843  0.00  0.00    +0.046 A 
ATOM     14  C   LIG    1       37.760  34.158   7.675  0.00  0.00    +0.117 A 
ATOM     15  C   LIG    1       38.726  33.716   6.781  0.00  0.00    +0.046 A 
ATOM     16  C   LIG    1       39.433  32.538   7.056  0.00  0.00    +0.012 A 
BRANCH  14  17
ATOM     17  O   LIG    1       37.042  35.294   7.448  0.00  0.00    -0.507 OA
ATOM     18  H   LIG    1       37.225  35.602   6.545  0.00  0.00    +0.292 HD
ENDBRANCH  14  17
ENDBRANCH   2  11
BRANCH   1  19
ATOM     19  C   LIG    1       38.407  28.888   7.731  0.00  0.00    +0.032 C 
ATOM     20  C   LIG    1       37.002  28.921   8.326  0.00  0.00    +0.009 C 
ENDBRANCH   1  19
BRANCH   2  21
ATOM     21  C   LIG    1       41.426  31.071   9.254  0.00  0.00    +0.032 C 
ATOM     22  C   LIG    1       41.816  30.749  10.700  0.00  0.00    +0.009 C 
ENDBRANCH   2  21
TORSDOF 6
ENDMDL
MODEL 8
REMARK VINA RESULT:      -7.6      2.567      4.173
REMARK  Name = 
REMARK                            x       y       z     vdW  Elec       q    Type
REMARK                         _______ _______ _______ _____ _____    ______ ____
ROOT
ATOM      1  C   LIG    1       40.187  30.110   9.212  0.00  0.00    -0.037 C 
ATOM      2  C   LIG    1       38.988  30.382   8.591  0.00  0.00    -0.037 C 
ENDROOT
BRANCH   1   6
ATOM      3  C   LIG    1       41.991  26.106   9.668  0.00  0.00    +0.117 A 
ATOM      4  C   LIG    1       41.050  26.565  10.562  0.00  0.00    +0.046 A 
ATOM      5  C   LIG    1       40.497  27.847  10.401  0.00  0.00    +0.012 A 
ATOM      6  C   LIG    1       40.829  28.702   9.319  0.00  0.00    -0.021 A 
ATOM      7  C   LIG    1       41.739  28.147   8.403  0.00  0.00    +0.012 A 
ATOM      8  C   LIG    1       42.345  26.889   8.583  0.00  0.00    +0.046 A 
BRANCH   3   9
ATOM      9  O   LIG    1       42.543  24.880   9.878  0.00  0.00    -0.507 OA
ATOM     10  H   LIG    1       42.069  24.228   9.337  0.00  0.00    +0.292 HD
ENDBRANCH   3   9
ENDBRANCH   1   6
BRANCH   2  11
ATOM     11  C   LIG    1       38.494  31.767   8.327  0.00  0.00    -0.021 A 
ATOM     12  C   LIG    1       37.661  32.415   9.254  0.00  0.00    +0.012 A 
ATOM     13  C   LIG    1       37.248  33.737   9.050  0.00  0.00    +0.046 A 
ATOM     14  C   LIG    1       37.729  34.450   7.960  0.00  0.00    +0.117 A 
ATOM     15  C   LIG    1       38.574  33.844   7.039  0.00  0.00    +0.046 A 
ATOM     16  C   LIG    1       38.925  32.498   7.207  0.00  0.00    +0.012 A 
BRANCH  14  17
ATOM     17  O   LIG    1       37.355  35.754   7.836  0.00  0.00    -0.507 OA
ATOM     18  H   LIG    1       37.520  36.207   8.680  0.00  0.00    +0.292 HD
ENDBRANCH  14  17
ENDBRANCH   2  11
BRANCH   1  19
ATOM     19  C   LIG    1       41.116  31.165   9.868  0.00  0.00    +0.032 C 
ATOM     20  C   LIG    1       42.207  30.860  10.890  0.00  0.00    +0.009 C 
ENDBRANCH   1  19
BRANCH   2  21
ATOM     21  C   LIG    1       38.051  29.293   8.051  0.00  0.00    +0.032 C 
ATOM     22  C   LIG    1       36.855  28.738   8.830  0.00  0.00    +0.009 C 
ENDBRANCH   2  21
TORSDOF 6
ENDMDL
MODEL 9
REMARK VINA RESULT:      -7.4      2.561      7.751
REMARK  Name = 
REMARK                            x       y       z     vdW  Elec       q    Type
REMARK                         _______ _______ _______ _____ _____    ______ ____
ROOT
ATOM      1  C   LIG    1       40.162  30.367   8.799  0.00  0.00    -0.037 C 
ATOM      2  C   LIG    1       39.733  29.078   8.575  0.00  0.00    -0.037 C 
ENDROOT
BRANCH   1   6
ATOM      3  C   LIG    1       37.904  33.957   7.570  0.00  0.00    +0.117 A 
ATOM      4  C   LIG    1       37.674  33.357   8.789  0.00  0.00    +0.046 A 
ATOM      5  C   LIG    1       38.399  32.210   9.154  0.00  0.00    +0.012 A 
ATOM      6  C   LIG    1       39.411  31.642   8.337  0.00  0.00    -0.021 A 
ATOM      7  C   LIG    1       39.647  32.342   7.141  0.00  0.00    +0.012 A 
ATOM      8  C   LIG    1       38.889  33.457   6.736  0.00  0.00    +0.046 A 
BRANCH   3   9
ATOM      9  O   LIG    1       37.152  35.037   7.226  0.00  0.00    -0.507 OA
ATOM     10  H   LIG    1       36.449  34.748   6.622  0.00  0.00    +0.292 HD
ENDBRANCH   3   9
ENDBRANCH   1   6
BRANCH   2  11
ATOM     11  C   LIG    1       40.366  27.879   9.202  0.00  0.00    -0.021 A 
ATOM     12  C   LIG    1       41.634  27.442   8.786  0.00  0.00    +0.012 A 
ATOM     13  C   LIG    1       42.267  26.363   9.413  0.00  0.00    +0.046 A 
ATOM     14  C   LIG    1       41.674  25.762  10.515  0.00  0.00    +0.117 A 
ATOM     15  C   LIG    1       40.432  26.187  10.966  0.00  0.00    +0.046 A 
ATOM     16  C   LIG    1       39.769  27.219  10.290  0.00  0.00    +0.012 A 
BRANCH  14  17
ATOM     17  O   LIG    1       42.355  24.758  11.136  0.00  0.00    -0.507 OA
ATOM     18  H   LIG    1       43.038  24.424  10.531  0.00  0.00    +0.292 HD
ENDBRANCH  14  17
ENDBRANCH   2  11
BRANCH   1  19
ATOM     19  C   LIG    1       41.439  30.763   9.587  0.00  0.00    +0.032 C 
ATOM     20  C   LIG    1       41.773  30.308  11.004  0.00  0.00    +0.009 C 
ENDBRANCH   1  19
BRANCH   2  21
ATOM     21  C   LIG    1       38.521  28.732   7.698  0.00  0.00    +0.032 C 
ATOM     22  C   LIG    1       37.070  28.835   8.175  0.00  0.00    +0.009 C 
ENDBRANCH   2  21
TORSDOF 6
ENDMDL
