MODEL 1
REMARK VINA RESULT:      -7.2      0.000      0.000
REMARK  Name = 
REMARK                            x       y       z     vdW  Elec       q    Type
REMARK                         _______ _______ _______ _____ _____    ______ ____
ROOT
ATOM      1  C   LIG    1        5.316  -1.196  19.832  0.00  0.00    -0.037 C 
ATOM      2  C   LIG    1        6.517  -1.737  20.234  0.00  0.00    -0.037 C 
ENDROOT
BRANCH   1   6
ATOM      3  C   LIG    1        1.807  -0.695  22.464  0.00  0.00    +0.117 A 
ATOM      4  C   LIG    1        2.608   0.377  22.139  0.00  0.00    +0.046 A 
ATOM      5  C   LIG    1        3.724   0.191  21.306  0.00  0.00    +0.012 A 
ATOM      6  C   LIG    1        4.060  -1.062  20.732  0.00  0.00    -0.021 A 
ATOM      7  C   LIG    1        3.163  -2.099  21.044  0.00  0.00    +0.012 A 
ATOM      8  C   LIG    1        2.075  -1.940  21.922  0.00  0.00    +0.046 A 
BRANCH   3   9
ATOM      9  O   LIG    1        0.761  -0.491  23.311  0.00  0.00    -0.507 OA
ATOM     10  H   LIG    1        0.426  -1.353  23.605  0.00  0.00    +0.292 HD
ENDBRANCH   3   9
ENDBRANCH   1   6
BRANCH   2  11
ATOM     11  C   LIG    1        7.765  -1.670  19.416  0.00  0.00    -0.021 A 
ATOM     12  C   LIG    1        8.611  -0.551  19.496  0.00  0.00    +0.012 A 
ATOM     13  C   LIG    1        9.817  -0.507  18.787  0.00  0.00    +0.046 A 
ATOM     14  C   LIG    1       10.227  -1.613  18.055  0.00  0.00    +0.117 A 
ATOM     15  C   LIG    1        9.424  -2.743  17.976  0.00  0.00    +0.046 A 
ATOM     16  C   LIG    1        8.184  -2.755  18.627  0.00  0.00    +0.012 A 
BRANCH  14  17
ATOM     17  O   LIG    1       11.438  -1.551  17.433  0.00  0.00    -0.507 OA
ATOM     18  H   LIG    1       11.643  -0.621  17.242  0.00  0.00    +0.292 HD
ENDBRANCH  14  17
ENDBRANCH   2  11
BRANCH   1  19
ATOM     19  C   LIG    1        5.030  -0.591  18.432  0.00  0.00    +0.032 C 
ATOM     20  C   LIG    1        4.823   0.892  18.142  0.00  0.00    +0.009 C 
ENDBRANCH   1  19
BRANCH   2  21
ATOM     21  C   LIG    1        6.722  -2.421  21.594  0.00  0.00    +0.032 C 
ATOM     22  C   LIG    1        6.814  -3.939  21.775  0.00  0.00    +0.009 C 
ENDBRANCH   2  21
TORSDOF 6
ENDMDL
MODEL 2
REMARK VINA RESULT:      -7.0      0.246      7.223
REMARK  Name = 
REMARK                            x       y       z     vdW  Elec       q    Type
REMARK                         _______ _______ _______ _____ _____    ______ ____
ROOT
ATOM      1  C   LIG    1        6.664  -1.599  20.266  0.00  0.00    -0.037 C 
ATOM      2  C   LIG    1        5.461  -1.064  19.863  0.00  0.00    -0.037 C 
ENDROOT
BRANCH   1   6
ATOM      3  C   LIG    1       10.411  -1.611  17.930  0.00  0.00    +0.117 A 
ATOM      4  C   LIG    1        9.595  -2.720  17.968  0.00  0.00    +0.046 A 
ATOM      5  C   LIG    1        8.412  -2.695  18.726  0.00  0.00    +0.012 A 
ATOM      6  C   LIG    1        7.975  -1.550  19.440  0.00  0.00    -0.021 A 
ATOM      7  C   LIG    1        8.814  -0.430  19.303  0.00  0.00    +0.012 A 
ATOM      8  C   LIG    1       10.030  -0.458  18.595  0.00  0.00    +0.046 A 
BRANCH   3   9
ATOM      9  O   LIG    1       11.573  -1.683  17.226  0.00  0.00    -0.507 OA
ATOM     10  H   LIG    1       12.278  -1.263  17.745  0.00  0.00    +0.292 HD
ENDBRANCH   3   9
ENDBRANCH   1   6
BRANCH   2  11
ATOM     11  C   LIG    1        4.271  -0.947  20.759  0.00  0.00    -0.021 A 
ATOM     12  C   LIG    1        3.930   0.288  21.334  0.00  0.00    +0.012 A 
ATOM     13  C   LIG    1        2.778   0.424  22.119  0.00  0.00    +0.046 A 
ATOM     14  C   LIG    1        1.915  -0.652  22.269  0.00  0.00    +0.117 A 
ATOM     15  C   LIG    1        2.213  -1.880  21.693  0.00  0.00    +0.046 A 
ATOM     16  C   LIG    1        3.403  -2.032  20.970  0.00  0.00    +0.012 A 
BRANCH  14  17
ATOM     17  O   LIG    1        0.773  -0.458  22.987  0.00  0.00    -0.507 OA
ATOM     18  H   LIG    1        0.567   0.492  22.991  0.00  0.00    +0.292 HD
ENDBRANCH  14  17
ENDBRANCH   2  11
BRANCH   1  19
ATOM     19  C   LIG    1        6.923  -2.300  21.626  0.00  0.00    +0.032 C 
ATOM     20  C   LIG    1        6.880  -3.806  21.861  0.00  0.00    +0.009 C 
ENDBRANCH   1  19
BRANCH   2  21
ATOM     21  C   LIG    1        5.224  -0.476  18.465  0.00  0.00    +0.032 C 
ATOM     22  C   LIG    1        4.538   0.870  18.214  0.00  0.00    +0.009 C 
ENDBRANCH   2  21
TORSDOF 6
ENDMDL
MODEL 3
REMARK VINA RESULT:      -6.7      3.482      7.686
REMARK  Name = 
REMARK                            x       y       z     vdW  Elec       q    Type
REMARK                         _______ _______ _______ _____ _____    ______ ____
ROOT
ATOM      1  C   LIG    1        9.302  -4.020  21.065  0.00  0.00    -0.037 C 
ATOM      2  C   LIG    1        8.256  -3.641  21.877  0.00  0.00    -0.037 C 
ENDROOT
BRANCH   1   6
ATOM      3  C   LIG    1       10.251  -2.426  17.059  0.00  0.00    +0.117 A 
ATOM      4  C   LIG    1       10.539  -3.732  17.389  0.00  0.00    +0.046 A 
ATOM      5  C   LIG    1       10.236  -4.214  18.674  0.00  0.00    +0.012 A 
ATOM      6  C   LIG    1        9.595  -3.425  19.664  0.00  0.00    -0.021 A 
ATOM      7  C   LIG    1        9.263  -2.127  19.240  0.00  0.00    +0.012 A 
ATOM      8  C   LIG    1        9.613  -1.613  17.978  0.00  0.00    +0.046 A 
BRANCH   3   9
ATOM      9  O   LIG    1       10.601  -1.977  15.823  0.00  0.00    -0.507 OA
ATOM     10  H   LIG    1       10.447  -2.685  15.178  0.00  0.00    +0.292 HD
ENDBRANCH   3   9
ENDBRANCH   1   6
BRANCH   2  11
ATOM     11  C   LIG    1        8.115  -4.082  23.297  0.00  0.00    -0.021 A 
ATOM     12  C   LIG    1        8.838  -3.443  24.317  0.00  0.00    +0.012 A 
ATOM     13  C   LIG    1        8.663  -3.801  25.659  0.00  0.00    +0.046 A 
ATOM     14  C   LIG    1        7.704  -4.745  26.001  0.00  0.00    +0.117 A 
ATOM     15  C   LIG    1        6.955  -5.377  25.017  0.00  0.00    +0.046 A 
ATOM     16  C   LIG    1        7.186  -5.069  23.670  0.00  0.00    +0.012 A 
BRANCH  14  17
ATOM     17  O   LIG    1        7.520  -5.016  27.323  0.00  0.00    -0.507 OA
ATOM     18  H   LIG    1        7.798  -5.931  27.495  0.00  0.00    +0.292 HD
ENDBRANCH  14  17
ENDBRANCH   2  11
BRANCH   1  19
ATOM     19  C   LIG    1       10.386  -5.068  21.431  0.00  0.00    +0.032 C 
ATOM     20  C   LIG    1       11.725  -4.753  22.092  0.00  0.00    +0.009 C 
ENDBRANCH   1  19
BRANCH   2  21
ATOM     21  C   LIG    1        7.146  -2.679  21.429  0.00  0.00    +0.032 C 
ATOM     22  C   LIG    1        5.881  -3.126  20.692  0.00  0.00    +0.009 C 
ENDBRANCH   2  21
TORSDOF 6
ENDMDL
MODEL 4
REMARK VINA RESULT:      -6.6      3.025      4.238
REMARK  Name = 
REMARK                            x       y       z     vdW  Elec       q    Type
REMARK                         _______ _______ _______ _____ _____    ______ ____
ROOT
ATOM      1  C   LIG    1        7.932  -2.679  20.174  0.00  0.00    -0.037 C 
ATOM      2  C   LIG    1        8.167  -3.707  21.060  0.00  0.00    -0.037 C 
ENDROOT
BRANCH   1   6
ATOM      3  C   LIG    1        4.003  -0.902  19.226  0.00  0.00    +0.117 A 
ATOM      4  C   LIG    1        4.641  -1.730  18.330  0.00  0.00    +0.046 A 
ATOM      5  C   LIG    1        5.896  -2.276  18.651  0.00  0.00    +0.012 A 
ATOM      6  C   LIG    1        6.541  -2.053  19.894  0.00  0.00    -0.021 A 
ATOM      7  C   LIG    1        5.806  -1.260  20.792  0.00  0.00    +0.012 A 
ATOM      8  C   LIG    1        4.577  -0.658  20.462  0.00  0.00    +0.046 A 
BRANCH   3   9
ATOM      9  O   LIG    1        2.812  -0.350  18.867  0.00  0.00    -0.507 OA
ATOM     10  H   LIG    1        2.910   0.062  17.994  0.00  0.00    +0.292 HD
ENDBRANCH   3   9
ENDBRANCH   1   6
BRANCH   2  11
ATOM     11  C   LIG    1        9.536  -4.153  21.458  0.00  0.00    -0.021 A 
ATOM     12  C   LIG    1       10.495  -4.468  20.482  0.00  0.00    +0.012 A 
ATOM     13  C   LIG    1       11.802  -4.820  20.842  0.00  0.00    +0.046 A 
ATOM     14  C   LIG    1       12.183  -4.782  22.177  0.00  0.00    +0.117 A 
ATOM     15  C   LIG    1       11.264  -4.450  23.163  0.00  0.00    +0.046 A 
ATOM     16  C   LIG    1        9.938  -4.171  22.805  0.00  0.00    +0.012 A 
BRANCH  14  17
ATOM     17  O   LIG    1       13.481  -5.068  22.477  0.00  0.00    -0.507 OA
ATOM     18  H   LIG    1       13.675  -4.732  23.367  0.00  0.00    +0.292 HD
ENDBRANCH  14  17
ENDBRANCH   2  11
BRANCH   1  19
ATOM     19  C   LIG    1        9.018  -1.946  19.343  0.00  0.00    +0.032 C 
ATOM     20  C   LIG    1        9.094  -0.437  19.132  0.00  0.00    +0.009 C 
ENDBRANCH   1  19
BRANCH   2  21
ATOM     21  C   LIG    1        7.048  -4.474  21.779  0.00  0.00    +0.032 C 
ATOM     22  C   LIG    1        7.034  -5.996  21.949  0.00  0.00    +0.009 C 
ENDBRANCH   2  21
TORSDOF 6
ENDMDL
MODEL 5
REMARK VINA RESULT:      -6.5      3.497      5.066
REMARK  Name = 
REMARK                            x       y       z     vdW  Elec       q    Type
REMARK                         _______ _______ _______ _____ _____    ______ ____
ROOT
ATOM      1  C   LIG    1        8.251  -3.637  21.742  0.00  0.00    -0.037 C 
ATOM      2  C   LIG    1        9.302  -4.045  20.950  0.00  0.00    -0.037 C 
ENDROOT
BRANCH   1   6
ATOM      3  C   LIG    1        7.835  -4.731  25.999  0.00  0.00    +0.117 A 
ATOM      4  C   LIG    1        8.688  -3.724  25.606  0.00  0.00    +0.046 A 
ATOM      5  C   LIG    1        8.810  -3.400  24.244  0.00  0.00    +0.012 A 
ATOM      6  C   LIG    1        8.054  -4.038  23.227  0.00  0.00    -0.021 A 
ATOM      7  C   LIG    1        7.150  -5.004  23.701  0.00  0.00    +0.012 A 
ATOM      8  C   LIG    1        7.060  -5.380  25.054  0.00  0.00    +0.046 A 
BRANCH   3   9
ATOM      9  O   LIG    1        7.775  -5.052  27.320  0.00  0.00    -0.507 OA
ATOM     10  H   LIG    1        7.146  -5.783  27.435  0.00  0.00    +0.292 HD
ENDBRANCH   3   9
ENDBRANCH   1   6
BRANCH   2  11
ATOM     11  C   LIG    1        9.574  -3.486  19.593  0.00  0.00    -0.021 A 
ATOM     12  C   LIG    1        9.365  -2.122  19.328  0.00  0.00    +0.012 A 
ATOM     13  C   LIG    1        9.683  -1.573  18.080  0.00  0.00    +0.046 A 
ATOM     14  C   LIG    1       10.286  -2.364  17.112  0.00  0.00    +0.117 A 
ATOM     15  C   LIG    1       10.528  -3.710  17.352  0.00  0.00    +0.046 A 
ATOM     16  C   LIG    1       10.141  -4.273  18.575  0.00  0.00    +0.012 A 
BRANCH  14  17
ATOM     17  O   LIG    1       10.638  -1.773  15.936  0.00  0.00    -0.507 OA
ATOM     18  H   LIG    1       10.973  -0.880  16.124  0.00  0.00    +0.292 HD
ENDBRANCH  14  17
ENDBRANCH   2  11
BRANCH   1  19
ATOM     19  C   LIG    1        7.116  -2.677  21.299  0.00  0.00    +0.032 C 
ATOM     20  C   LIG    1        5.883  -3.085  20.499  0.00  0.00    +0.009 C 
ENDBRANCH   1  19
BRANCH   2  21
ATOM     21  C   LIG    1       10.343  -5.081  21.397  0.00  0.00    +0.032 C 
ATOM     22  C   LIG    1       11.662  -4.718  22.084  0.00  0.00    +0.009 C 
ENDBRANCH   2  21
TORSDOF 6
ENDMDL
MODEL 6
REMARK VINA RESULT:      -6.5      2.981      7.167
REMARK  Name = 
REMARK                            x       y       z     vdW  Elec       q    Type
REMARK                         _______ _______ _______ _____ _____    ______ ____
ROOT
ATOM      1  C   LIG    1        8.157  -3.626  20.935  0.00  0.00    -0.037 C 
ATOM      2  C   LIG    1        7.836  -2.631  20.038  0.00  0.00    -0.037 C 
ENDROOT
BRANCH   1   6
ATOM      3  C   LIG    1       12.258  -4.815  22.059  0.00  0.00    +0.117 A 
ATOM      4  C   LIG    1       11.307  -4.554  23.020  0.00  0.00    +0.046 A 
ATOM      5  C   LIG    1       10.011  -4.169  22.638  0.00  0.00    +0.012 A 
ATOM      6  C   LIG    1        9.602  -4.070  21.283  0.00  0.00    -0.021 A 
ATOM      7  C   LIG    1       10.597  -4.420  20.353  0.00  0.00    +0.012 A 
ATOM      8  C   LIG    1       11.914  -4.751  20.720  0.00  0.00    +0.046 A 
BRANCH   3   9
ATOM      9  O   LIG    1       13.517  -5.140  22.462  0.00  0.00    -0.507 OA
ATOM     10  H   LIG    1       14.154  -4.639  21.929  0.00  0.00    +0.292 HD
ENDBRANCH   3   9
ENDBRANCH   1   6
BRANCH   2  11
ATOM     11  C   LIG    1        6.455  -2.088  19.873  0.00  0.00    -0.021 A 
ATOM     12  C   LIG    1        5.889  -1.266  20.861  0.00  0.00    +0.012 A 
ATOM     13  C   LIG    1        4.623  -0.695  20.686  0.00  0.00    +0.046 A 
ATOM     14  C   LIG    1        3.945  -0.875  19.488  0.00  0.00    +0.117 A 
ATOM     15  C   LIG    1        4.488  -1.663  18.482  0.00  0.00    +0.046 A 
ATOM     16  C   LIG    1        5.722  -2.292  18.690  0.00  0.00    +0.012 A 
BRANCH  14  17
ATOM     17  O   LIG    1        2.745  -0.248  19.335  0.00  0.00    -0.507 OA
ATOM     18  H   LIG    1        2.042  -0.841  19.648  0.00  0.00    +0.292 HD
ENDBRANCH  14  17
ENDBRANCH   2  11
BRANCH   1  19
ATOM     19  C   LIG    1        7.138  -4.437  21.778  0.00  0.00    +0.032 C 
ATOM     20  C   LIG    1        7.112  -5.957  21.902  0.00  0.00    +0.009 C 
ENDBRANCH   1  19
BRANCH   2  21
ATOM     21  C   LIG    1        8.872  -1.931  19.147  0.00  0.00    +0.032 C 
ATOM     22  C   LIG    1        9.086  -0.415  19.124  0.00  0.00    +0.009 C 
ENDBRANCH   2  21
TORSDOF 6
ENDMDL
MODEL 7
REMARK VINA RESULT:      -6.5      9.153     12.368
REMARK  Name = 
REMARK                            x       y       z     vdW  Elec       q    Type
REMARK                         _______ _______ _______ _____ _____    ______ ____
ROOT
ATOM      1  C   LIG    1       11.678  -2.379  29.045  0.00  0.00    -0.037 C 
ATOM      2  C   LIG    1       10.769  -3.407  29.166  0.00  0.00    -0.037 C 
ENDROOT
BRANCH   1   6
ATOM      3  C   LIG    1       14.250  -1.554  25.552  0.00  0.00    +0.117 A 
ATOM      4  C   LIG    1       14.795  -1.904  26.767  0.00  0.00    +0.046 A 
ATOM      5  C   LIG    1       13.957  -2.153  27.867  0.00  0.00    +0.012 A 
ATOM      6  C   LIG    1       12.541  -2.105  27.786  0.00  0.00    -0.021 A 
ATOM      7  C   LIG    1       12.046  -1.814  26.502  0.00  0.00    +0.012 A 
ATOM      8  C   LIG    1       12.874  -1.505  25.407  0.00  0.00    +0.046 A 
BRANCH   3   9
ATOM      9  O   LIG    1       15.091  -1.273  24.519  0.00  0.00    -0.507 OA
ATOM     10  H   LIG    1       15.428  -0.370  24.629  0.00  0.00    +0.292 HD
ENDBRANCH   3   9
ENDBRANCH   1   6
BRANCH   2  11
ATOM     11  C   LIG    1        9.811  -3.527  30.305  0.00  0.00    -0.021 A 
ATOM     12  C   LIG    1        8.426  -3.466  30.081  0.00  0.00    +0.012 A 
ATOM     13  C   LIG    1        7.517  -3.646  31.130  0.00  0.00    +0.046 A 
ATOM     14  C   LIG    1        7.982  -3.970  32.398  0.00  0.00    +0.117 A 
ATOM     15  C   LIG    1        9.345  -4.062  32.646  0.00  0.00    +0.046 A 
ATOM     16  C   LIG    1       10.253  -3.807  31.609  0.00  0.00    +0.012 A 
BRANCH  14  17
ATOM     17  O   LIG    1        7.061  -4.202  33.375  0.00  0.00    -0.507 OA
ATOM     18  H   LIG    1        7.515  -4.212  34.234  0.00  0.00    +0.292 HD
ENDBRANCH  14  17
ENDBRANCH   2  11
BRANCH   1  19
ATOM     19  C   LIG    1       11.961  -1.301  30.124  0.00  0.00    +0.032 C 
ATOM     20  C   LIG    1       11.485   0.147  30.064  0.00  0.00    +0.009 C 
ENDBRANCH   1  19
BRANCH   2  21
ATOM     21  C   LIG    1       10.601  -4.513  28.115  0.00  0.00    +0.032 C 
ATOM     22  C   LIG    1        9.639  -4.418  26.927  0.00  0.00    +0.009 C 
ENDBRANCH   2  21
TORSDOF 6
ENDMDL
MODEL 8
REMARK VINA RESULT:      -6.5      9.108     10.624
REMARK  Name = 
REMARK                            x       y       z     vdW  Elec       q    Type
REMARK                         _______ _______ _______ _____ _____    ______ ____
ROOT
ATOM      1  C   LIG    1       10.786  -3.444  29.041  0.00  0.00    -0.037 C 
ATOM      2  C   LIG    1       11.738  -2.450  28.981  0.00  0.00    -0.037 C 
ENDROOT
BRANCH   1   6
ATOM      3  C   LIG    1        7.924  -3.977  32.360  0.00  0.00    +0.117 A 
ATOM      4  C   LIG    1        9.282  -3.978  32.588  0.00  0.00    +0.046 A 
ATOM      5  C   LIG    1       10.173  -3.815  31.514  0.00  0.00    +0.012 A 
ATOM      6  C   LIG    1        9.744  -3.603  30.179  0.00  0.00    -0.021 A 
ATOM      7  C   LIG    1        8.349  -3.540  30.025  0.00  0.00    +0.012 A 
ATOM      8  C   LIG    1        7.444  -3.759  31.080  0.00  0.00    +0.046 A 
BRANCH   3   9
ATOM      9  O   LIG    1        7.088  -4.185  33.414  0.00  0.00    -0.507 OA
ATOM     10  H   LIG    1        6.677  -5.059  33.319  0.00  0.00    +0.292 HD
ENDBRANCH   3   9
ENDBRANCH   1   6
BRANCH   2  11
ATOM     11  C   LIG    1       12.592  -2.201  27.781  0.00  0.00    -0.021 A 
ATOM     12  C   LIG    1       12.012  -1.818  26.560  0.00  0.00    +0.012 A 
ATOM     13  C   LIG    1       12.807  -1.515  25.448  0.00  0.00    +0.046 A 
ATOM     14  C   LIG    1       14.190  -1.514  25.569  0.00  0.00    +0.117 A 
ATOM     15  C   LIG    1       14.793  -1.865  26.769  0.00  0.00    +0.046 A 
ATOM     16  C   LIG    1       13.995  -2.239  27.858  0.00  0.00    +0.012 A 
BRANCH  14  17
ATOM     17  O   LIG    1       14.924  -1.150  24.480  0.00  0.00    -0.507 OA
ATOM     18  H   LIG    1       15.569  -1.851  24.291  0.00  0.00    +0.292 HD
ENDBRANCH  14  17
ENDBRANCH   2  11
BRANCH   1  19
ATOM     19  C   LIG    1       10.566  -4.540  27.966  0.00  0.00    +0.032 C 
ATOM     20  C   LIG    1        9.562  -4.459  26.821  0.00  0.00    +0.009 C 
ENDBRANCH   1  19
BRANCH   2  21
ATOM     21  C   LIG    1       11.989  -1.451  30.119  0.00  0.00    +0.032 C 
ATOM     22  C   LIG    1       11.566   0.020  30.067  0.00  0.00    +0.009 C 
ENDBRANCH   2  21
TORSDOF 6
ENDMDL
MODEL 9
REMARK VINA RESULT:      -6.4      7.345      9.917
REMARK  Name = 
REMARK                            x       y       z     vdW  Elec       q    Type
REMARK                         _______ _______ _______ _____ _____    ______ ____
ROOT
ATOM      1  C   LIG    1       10.639  -3.620  26.263  0.00  0.00    -0.037 C 
ATOM      2  C   LIG    1        9.938  -3.910  27.412  0.00  0.00    -0.037 C 
ENDROOT
BRANCH   1   6
ATOM      3  C   LIG    1        8.973  -4.237  22.221  0.00  0.00    +0.117 A 
ATOM      4  C   LIG    1        8.218  -3.660  23.219  0.00  0.00    +0.046 A 
ATOM      5  C   LIG    1        8.768  -3.482  24.499  0.00  0.00    +0.012 A 
ATOM      6  C   LIG    1       10.104  -3.834  24.823  0.00  0.00    -0.021 A 
ATOM      7  C   LIG    1       10.842  -4.350  23.744  0.00  0.00    +0.012 A 
ATOM      8  C   LIG    1       10.288  -4.587  22.473  0.00  0.00    +0.046 A 
BRANCH   3   9
ATOM      9  O   LIG    1        8.396  -4.439  21.005  0.00  0.00    -0.507 OA
ATOM     10  H   LIG    1        7.452  -4.625  21.134  0.00  0.00    +0.292 HD
ENDBRANCH   3   9
ENDBRANCH   1   6
BRANCH   2  11
ATOM     11  C   LIG    1       10.394  -3.509  28.777  0.00  0.00    -0.021 A 
ATOM     12  C   LIG    1       10.639  -2.159  29.079  0.00  0.00    +0.012 A 
ATOM     13  C   LIG    1       11.000  -1.763  30.372  0.00  0.00    +0.046 A 
ATOM     14  C   LIG    1       11.042  -2.702  31.394  0.00  0.00    +0.117 A 
ATOM     15  C   LIG    1       10.782  -4.041  31.132  0.00  0.00    +0.046 A 
ATOM     16  C   LIG    1       10.493  -4.444  29.822  0.00  0.00    +0.012 A 
BRANCH  14  17
ATOM     17  O   LIG    1       11.334  -2.263  32.651  0.00  0.00    -0.507 OA
ATOM     18  H   LIG    1       11.938  -2.899  33.070  0.00  0.00    +0.292 HD
ENDBRANCH  14  17
ENDBRANCH   2  11
BRANCH   1  19
ATOM     19  C   LIG    1       12.058  -2.994  26.212  0.00  0.00    +0.032 C 
ATOM     20  C   LIG    1       12.363  -1.537  25.878  0.00  0.00    +0.009 C 
ENDBRANCH   1  19
BRANCH   2  21
ATOM     21  C   LIG    1        8.581  -4.629  27.416  0.00  0.00    +0.032 C 
ATOM     22  C   LIG    1        7.303  -4.027  28.005  0.00  0.00    +0.009 C 
ENDBRANCH   2  21
TORSDOF 6
ENDMDL
