MODEL 1
REMARK VINA RESULT:      -7.8      0.000      0.000
REMARK  Name = 
REMARK                            x       y       z     vdW  Elec       q    Type
REMARK                         _______ _______ _______ _____ _____    ______ ____
ROOT
ATOM      1  C   LIG    1       17.613   3.868  24.858  0.00  0.00    -0.037 C 
ATOM      2  C   LIG    1       18.355   4.295  25.937  0.00  0.00    -0.037 C 
ENDROOT
BRANCH   1   6
ATOM      3  C   LIG    1       19.341   1.983  21.259  0.00  0.00    +0.117 A 
ATOM      4  C   LIG    1       18.822   1.218  22.280  0.00  0.00    +0.046 A 
ATOM      5  C   LIG    1       18.286   1.841  23.419  0.00  0.00    +0.012 A 
ATOM      6  C   LIG    1       18.207   3.250  23.566  0.00  0.00    -0.021 A 
ATOM      7  C   LIG    1       18.687   3.972  22.459  0.00  0.00    +0.012 A 
ATOM      8  C   LIG    1       19.280   3.363  21.338  0.00  0.00    +0.046 A 
BRANCH   3   9
ATOM      9  O   LIG    1       19.897   1.349  20.190  0.00  0.00    -0.507 OA
ATOM     10  H   LIG    1       19.519   0.457  20.126  0.00  0.00    +0.292 HD
ENDBRANCH   3   9
ENDBRANCH   1   6
BRANCH   2  11
ATOM     11  C   LIG    1       17.751   4.697  27.243  0.00  0.00    -0.021 A 
ATOM     12  C   LIG    1       17.190   3.732  28.096  0.00  0.00    +0.012 A 
ATOM     13  C   LIG    1       16.683   4.086  29.352  0.00  0.00    +0.046 A 
ATOM     14  C   LIG    1       16.805   5.394  29.800  0.00  0.00    +0.117 A 
ATOM     15  C   LIG    1       17.377   6.367  28.990  0.00  0.00    +0.046 A 
ATOM     16  C   LIG    1       17.816   6.023  27.705  0.00  0.00    +0.012 A 
BRANCH  14  17
ATOM     17  O   LIG    1       16.358   5.682  31.055  0.00  0.00    -0.507 OA
ATOM     18  H   LIG    1       17.049   6.178  31.525  0.00  0.00    +0.292 HD
ENDBRANCH  14  17
ENDBRANCH   2  11
BRANCH   1  19
ATOM     19  C   LIG    1       16.065   3.890  24.769  0.00  0.00    +0.032 C 
ATOM     20  C   LIG    1       15.260   3.970  23.476  0.00  0.00    +0.009 C 
ENDBRANCH   1  19
BRANCH   2  21
ATOM     21  C   LIG    1       19.889   4.354  25.938  0.00  0.00    +0.032 C 
ATOM     22  C   LIG    1       20.695   5.506  25.331  0.00  0.00    +0.009 C 
ENDBRANCH   2  21
TORSDOF 6
ENDMDL
MODEL 2
REMARK VINA RESULT:      -7.7      0.384      7.248
REMARK  Name = 
REMARK                            x       y       z     vdW  Elec       q    Type
REMARK                         _______ _______ _______ _____ _____    ______ ____
ROOT
ATOM      1  C   LIG    1       18.377   4.335  25.664  0.00  0.00    -0.037 C 
ATOM      2  C   LIG    1       17.576   3.864  24.647  0.00  0.00    -0.037 C 
ENDROOT
BRANCH   1   6
ATOM      3  C   LIG    1       16.985   5.973  29.521  0.00  0.00    +0.117 A 
ATOM      4  C   LIG    1       17.397   6.805  28.504  0.00  0.00    +0.046 A 
ATOM      5  C   LIG    1       17.844   6.260  27.289  0.00  0.00    +0.012 A 
ATOM      6  C   LIG    1       17.857   4.866  27.025  0.00  0.00    -0.021 A 
ATOM      7  C   LIG    1       17.357   4.076  28.074  0.00  0.00    +0.012 A 
ATOM      8  C   LIG    1       16.961   4.604  29.317  0.00  0.00    +0.046 A 
BRANCH   3   9
ATOM      9  O   LIG    1       16.602   6.530  30.702  0.00  0.00    -0.507 OA
ATOM     10  H   LIG    1       17.392   6.851  31.165  0.00  0.00    +0.292 HD
ENDBRANCH   3   9
ENDBRANCH   1   6
BRANCH   2  11
ATOM     11  C   LIG    1       18.108   3.174  23.434  0.00  0.00    -0.021 A 
ATOM     12  C   LIG    1       18.664   3.915  22.378  0.00  0.00    +0.012 A 
ATOM     13  C   LIG    1       19.228   3.277  21.267  0.00  0.00    +0.046 A 
ATOM     14  C   LIG    1       19.314   1.892  21.238  0.00  0.00    +0.117 A 
ATOM     15  C   LIG    1       18.795   1.131  22.278  0.00  0.00    +0.046 A 
ATOM     16  C   LIG    1       18.166   1.772  23.353  0.00  0.00    +0.012 A 
BRANCH  14  17
ATOM     17  O   LIG    1       19.930   1.314  20.168  0.00  0.00    -0.507 OA
ATOM     18  H   LIG    1       20.071   1.992  19.487  0.00  0.00    +0.292 HD
ENDBRANCH  14  17
ENDBRANCH   2  11
BRANCH   1  19
ATOM     19  C   LIG    1       19.928   4.373  25.640  0.00  0.00    +0.032 C 
ATOM     20  C   LIG    1       20.771   5.602  25.319  0.00  0.00    +0.009 C 
ENDBRANCH   1  19
BRANCH   2  21
ATOM     21  C   LIG    1       16.043   3.946  24.672  0.00  0.00    +0.032 C 
ATOM     22  C   LIG    1       15.174   4.000  23.412  0.00  0.00    +0.009 C 
ENDBRANCH   2  21
TORSDOF 6
ENDMDL
MODEL 3
REMARK VINA RESULT:      -7.4      9.247     11.567
REMARK  Name = 
REMARK                            x       y       z     vdW  Elec       q    Type
REMARK                         _______ _______ _______ _____ _____    ______ ____
ROOT
ATOM      1  C   LIG    1        8.242   4.367  27.164  0.00  0.00    -0.037 C 
ATOM      2  C   LIG    1        7.057   5.016  26.900  0.00  0.00    -0.037 C 
ENDROOT
BRANCH   1   6
ATOM      3  C   LIG    1        8.812   0.021  27.694  0.00  0.00    +0.117 A 
ATOM      4  C   LIG    1        9.748   0.920  28.155  0.00  0.00    +0.046 A 
ATOM      5  C   LIG    1        9.548   2.298  27.966  0.00  0.00    +0.012 A 
ATOM      6  C   LIG    1        8.389   2.834  27.350  0.00  0.00    -0.021 A 
ATOM      7  C   LIG    1        7.440   1.869  26.968  0.00  0.00    +0.012 A 
ATOM      8  C   LIG    1        7.653   0.484  27.098  0.00  0.00    +0.046 A 
BRANCH   3   9
ATOM      9  O   LIG    1        9.057  -1.309  27.850  0.00  0.00    -0.507 OA
ATOM     10  H   LIG    1        8.620  -1.793  27.131  0.00  0.00    +0.292 HD
ENDBRANCH   3   9
ENDBRANCH   1   6
BRANCH   2  11
ATOM     11  C   LIG    1        6.976   6.460  26.527  0.00  0.00    -0.021 A 
ATOM     12  C   LIG    1        7.150   6.863  25.193  0.00  0.00    +0.012 A 
ATOM     13  C   LIG    1        7.008   8.205  24.820  0.00  0.00    +0.046 A 
ATOM     14  C   LIG    1        6.611   9.144  25.762  0.00  0.00    +0.117 A 
ATOM     15  C   LIG    1        6.408   8.773  27.085  0.00  0.00    +0.046 A 
ATOM     16  C   LIG    1        6.623   7.443  27.468  0.00  0.00    +0.012 A 
BRANCH  14  17
ATOM     17  O   LIG    1        6.421  10.426  25.342  0.00  0.00    -0.507 OA
ATOM     18  H   LIG    1        5.730  10.834  25.891  0.00  0.00    +0.292 HD
ENDBRANCH  14  17
ENDBRANCH   2  11
BRANCH   1  19
ATOM     19  C   LIG    1        9.632   5.047  27.275  0.00  0.00    +0.032 C 
ATOM     20  C   LIG    1       10.584   5.297  26.110  0.00  0.00    +0.009 C 
ENDBRANCH   1  19
BRANCH   2  21
ATOM     21  C   LIG    1        5.690   4.316  26.905  0.00  0.00    +0.032 C 
ATOM     22  C   LIG    1        4.731   4.334  28.099  0.00  0.00    +0.009 C 
ENDBRANCH   2  21
TORSDOF 6
ENDMDL
MODEL 4
REMARK VINA RESULT:      -7.4      0.709      2.360
REMARK  Name = 
REMARK                            x       y       z     vdW  Elec       q    Type
REMARK                         _______ _______ _______ _____ _____    ______ ____
ROOT
ATOM      1  C   LIG    1       18.674   3.779  25.026  0.00  0.00    -0.037 C 
ATOM      2  C   LIG    1       17.468   4.015  25.648  0.00  0.00    -0.037 C 
ENDROOT
BRANCH   1   6
ATOM      3  C   LIG    1       19.175   1.794  21.114  0.00  0.00    +0.117 A 
ATOM      4  C   LIG    1       18.849   1.070  22.240  0.00  0.00    +0.046 A 
ATOM      5  C   LIG    1       18.704   1.724  23.475  0.00  0.00    +0.012 A 
ATOM      6  C   LIG    1       18.836   3.128  23.628  0.00  0.00    -0.021 A 
ATOM      7  C   LIG    1       19.096   3.816  22.430  0.00  0.00    +0.012 A 
ATOM      8  C   LIG    1       19.302   3.170  21.197  0.00  0.00    +0.046 A 
BRANCH   3   9
ATOM      9  O   LIG    1       19.356   1.126  19.942  0.00  0.00    -0.507 OA
ATOM     10  H   LIG    1       19.298   0.173  20.115  0.00  0.00    +0.292 HD
ENDBRANCH   3   9
ENDBRANCH   1   6
BRANCH   2  11
ATOM     11  C   LIG    1       17.331   4.822  26.897  0.00  0.00    -0.021 A 
ATOM     12  C   LIG    1       17.231   4.190  28.148  0.00  0.00    +0.012 A 
ATOM     13  C   LIG    1       17.172   4.936  29.330  0.00  0.00    +0.046 A 
ATOM     14  C   LIG    1       17.293   6.318  29.280  0.00  0.00    +0.117 A 
ATOM     15  C   LIG    1       17.417   6.971  28.061  0.00  0.00    +0.046 A 
ATOM     16  C   LIG    1       17.402   6.226  26.875  0.00  0.00    +0.012 A 
BRANCH  14  17
ATOM     17  O   LIG    1       17.296   7.001  30.460  0.00  0.00    -0.507 OA
ATOM     18  H   LIG    1       18.208   7.038  30.795  0.00  0.00    +0.292 HD
ENDBRANCH  14  17
ENDBRANCH   2  11
BRANCH   1  19
ATOM     19  C   LIG    1       20.066   4.163  25.594  0.00  0.00    +0.032 C 
ATOM     20  C   LIG    1       20.690   5.552  25.525  0.00  0.00    +0.009 C 
ENDBRANCH   1  19
BRANCH   2  21
ATOM     21  C   LIG    1       16.123   3.521  25.097  0.00  0.00    +0.032 C 
ATOM     22  C   LIG    1       15.538   3.971  23.755  0.00  0.00    +0.009 C 
ENDBRANCH   2  21
TORSDOF 6
ENDMDL
MODEL 5
REMARK VINA RESULT:      -7.3      9.378     12.106
REMARK  Name = 
REMARK                            x       y       z     vdW  Elec       q    Type
REMARK                         _______ _______ _______ _____ _____    ______ ____
ROOT
ATOM      1  C   LIG    1        7.814   4.819  26.651  0.00  0.00    -0.037 C 
ATOM      2  C   LIG    1        6.978   3.748  26.877  0.00  0.00    -0.037 C 
ENDROOT
BRANCH   1   6
ATOM      3  C   LIG    1        6.553   8.926  25.633  0.00  0.00    +0.117 A 
ATOM      4  C   LIG    1        7.003   8.061  24.661  0.00  0.00    +0.046 A 
ATOM      5  C   LIG    1        7.407   6.762  25.010  0.00  0.00    +0.012 A 
ATOM      6  C   LIG    1        7.338   6.261  26.336  0.00  0.00    -0.021 A 
ATOM      7  C   LIG    1        6.803   7.167  27.268  0.00  0.00    +0.012 A 
ATOM      8  C   LIG    1        6.449   8.490  26.943  0.00  0.00    +0.046 A 
BRANCH   3   9
ATOM      9  O   LIG    1        6.215  10.193  25.270  0.00  0.00    -0.507 OA
ATOM     10  H   LIG    1        6.180  10.747  26.066  0.00  0.00    +0.292 HD
ENDBRANCH   3   9
ENDBRANCH   1   6
BRANCH   2  11
ATOM     11  C   LIG    1        7.456   2.423  27.374  0.00  0.00    -0.021 A 
ATOM     12  C   LIG    1        7.884   1.434  26.472  0.00  0.00    +0.012 A 
ATOM     13  C   LIG    1        8.398   0.215  26.929  0.00  0.00    +0.046 A 
ATOM     14  C   LIG    1        8.564   0.004  28.291  0.00  0.00    +0.117 A 
ATOM     15  C   LIG    1        8.173   0.971  29.207  0.00  0.00    +0.046 A 
ATOM     16  C   LIG    1        7.590   2.160  28.749  0.00  0.00    +0.012 A 
BRANCH  14  17
ATOM     17  O   LIG    1        9.129  -1.170  28.689  0.00  0.00    -0.507 OA
ATOM     18  H   LIG    1        9.350  -1.692  27.900  0.00  0.00    +0.292 HD
ENDBRANCH  14  17
ENDBRANCH   2  11
BRANCH   1  19
ATOM     19  C   LIG    1        9.363   4.776  26.715  0.00  0.00    +0.032 C 
ATOM     20  C   LIG    1       10.190   4.817  27.996  0.00  0.00    +0.009 C 
ENDBRANCH   1  19
BRANCH   2  21
ATOM     21  C   LIG    1        5.455   3.812  26.696  0.00  0.00    +0.032 C 
ATOM     22  C   LIG    1        4.495   4.349  27.762  0.00  0.00    +0.009 C 
ENDBRANCH   2  21
TORSDOF 6
ENDMDL
MODEL 6
REMARK VINA RESULT:      -7.3      9.209     11.728
REMARK  Name = 
REMARK                            x       y       z     vdW  Elec       q    Type
REMARK                         _______ _______ _______ _____ _____    ______ ____
ROOT
ATOM      1  C   LIG    1        7.116   4.923  26.923  0.00  0.00    -0.037 C 
ATOM      2  C   LIG    1        8.304   4.325  27.279  0.00  0.00    -0.037 C 
ENDROOT
BRANCH   1   6
ATOM      3  C   LIG    1        6.611   9.135  25.696  0.00  0.00    +0.117 A 
ATOM      4  C   LIG    1        6.443   8.753  27.009  0.00  0.00    +0.046 A 
ATOM      5  C   LIG    1        6.600   7.406  27.373  0.00  0.00    +0.012 A 
ATOM      6  C   LIG    1        6.973   6.394  26.452  0.00  0.00    -0.021 A 
ATOM      7  C   LIG    1        7.201   6.859  25.145  0.00  0.00    +0.012 A 
ATOM      8  C   LIG    1        6.990   8.195  24.753  0.00  0.00    +0.046 A 
BRANCH   3   9
ATOM      9  O   LIG    1        6.405  10.439  25.367  0.00  0.00    -0.507 OA
ATOM     10  H   LIG    1        6.365  10.964  26.182  0.00  0.00    +0.292 HD
ENDBRANCH   3   9
ENDBRANCH   1   6
BRANCH   2  11
ATOM     11  C   LIG    1        8.443   2.859  27.534  0.00  0.00    -0.021 A 
ATOM     12  C   LIG    1        7.744   1.929  26.746  0.00  0.00    +0.012 A 
ATOM     13  C   LIG    1        7.919   0.553  26.930  0.00  0.00    +0.046 A 
ATOM     14  C   LIG    1        8.853   0.093  27.848  0.00  0.00    +0.117 A 
ATOM     15  C   LIG    1        9.577   0.988  28.625  0.00  0.00    +0.046 A 
ATOM     16  C   LIG    1        9.346   2.363  28.490  0.00  0.00    +0.012 A 
BRANCH  14  17
ATOM     17  O   LIG    1        9.039  -1.253  27.949  0.00  0.00    -0.507 OA
ATOM     18  H   LIG    1        9.991  -1.431  28.022  0.00  0.00    +0.292 HD
ENDBRANCH  14  17
ENDBRANCH   2  11
BRANCH   1  19
ATOM     19  C   LIG    1        5.733   4.222  26.892  0.00  0.00    +0.032 C 
ATOM     20  C   LIG    1        4.677   4.311  27.989  0.00  0.00    +0.009 C 
ENDBRANCH   1  19
BRANCH   2  21
ATOM     21  C   LIG    1        9.632   5.087  27.399  0.00  0.00    +0.032 C 
ATOM     22  C   LIG    1       10.672   5.164  26.278  0.00  0.00    +0.009 C 
ENDBRANCH   2  21
TORSDOF 6
ENDMDL
MODEL 7
REMARK VINA RESULT:      -7.2      0.669      6.802
REMARK  Name = 
REMARK                            x       y       z     vdW  Elec       q    Type
REMARK                         _______ _______ _______ _____ _____    ______ ____
ROOT
ATOM      1  C   LIG    1       17.543   3.994  25.637  0.00  0.00    -0.037 C 
ATOM      2  C   LIG    1       18.729   3.713  24.995  0.00  0.00    -0.037 C 
ENDROOT
BRANCH   1   6
ATOM      3  C   LIG    1       17.097   6.306  29.372  0.00  0.00    +0.117 A 
ATOM      4  C   LIG    1       17.052   4.930  29.380  0.00  0.00    +0.046 A 
ATOM      5  C   LIG    1       17.188   4.216  28.178  0.00  0.00    +0.012 A 
ATOM      6  C   LIG    1       17.416   4.846  26.927  0.00  0.00    -0.021 A 
ATOM      7  C   LIG    1       17.524   6.245  26.997  0.00  0.00    +0.012 A 
ATOM      8  C   LIG    1       17.332   6.976  28.184  0.00  0.00    +0.046 A 
BRANCH   3   9
ATOM      9  O   LIG    1       16.915   6.970  30.546  0.00  0.00    -0.507 OA
ATOM     10  H   LIG    1       17.774   7.296  30.856  0.00  0.00    +0.292 HD
ENDBRANCH   3   9
ENDBRANCH   1   6
BRANCH   2  11
ATOM     11  C   LIG    1       18.803   3.065  23.652  0.00  0.00    -0.021 A 
ATOM     12  C   LIG    1       19.118   3.822  22.511  0.00  0.00    +0.012 A 
ATOM     13  C   LIG    1       19.258   3.214  21.258  0.00  0.00    +0.046 A 
ATOM     14  C   LIG    1       19.164   1.833  21.147  0.00  0.00    +0.117 A 
ATOM     15  C   LIG    1       18.878   1.054  22.261  0.00  0.00    +0.046 A 
ATOM     16  C   LIG    1       18.665   1.674  23.499  0.00  0.00    +0.012 A 
BRANCH  14  17
ATOM     17  O   LIG    1       19.372   1.277  19.921  0.00  0.00    -0.507 OA
ATOM     18  H   LIG    1       20.326   1.287  19.733  0.00  0.00    +0.292 HD
ENDBRANCH  14  17
ENDBRANCH   2  11
BRANCH   1  19
ATOM     19  C   LIG    1       16.137   3.547  25.158  0.00  0.00    +0.032 C 
ATOM     20  C   LIG    1       15.501   3.928  23.826  0.00  0.00    +0.009 C 
ENDBRANCH   1  19
BRANCH   2  21
ATOM     21  C   LIG    1       20.106   4.084  25.564  0.00  0.00    +0.032 C 
ATOM     22  C   LIG    1       20.705   5.492  25.489  0.00  0.00    +0.009 C 
ENDBRANCH   2  21
TORSDOF 6
ENDMDL
MODEL 8
REMARK VINA RESULT:      -7.2      9.377     11.623
REMARK  Name = 
REMARK                            x       y       z     vdW  Elec       q    Type
REMARK                         _______ _______ _______ _____ _____    ______ ____
ROOT
ATOM      1  C   LIG    1        7.038   3.852  26.802  0.00  0.00    -0.037 C 
ATOM      2  C   LIG    1        7.835   4.949  26.556  0.00  0.00    -0.037 C 
ENDROOT
BRANCH   1   6
ATOM      3  C   LIG    1        8.560  -0.004  28.320  0.00  0.00    +0.117 A 
ATOM      4  C   LIG    1        8.153   0.988  29.185  0.00  0.00    +0.046 A 
ATOM      5  C   LIG    1        7.681   2.210  28.678  0.00  0.00    +0.012 A 
ATOM      6  C   LIG    1        7.555   2.474  27.290  0.00  0.00    -0.021 A 
ATOM      7  C   LIG    1        7.917   1.397  26.462  0.00  0.00    +0.012 A 
ATOM      8  C   LIG    1        8.447   0.190  26.954  0.00  0.00    +0.046 A 
BRANCH   3   9
ATOM      9  O   LIG    1        9.057  -1.158  28.842  0.00  0.00    -0.507 OA
ATOM     10  H   LIG    1        8.791  -1.219  29.773  0.00  0.00    +0.292 HD
ENDBRANCH   3   9
ENDBRANCH   1   6
BRANCH   2  11
ATOM     11  C   LIG    1        7.294   6.314  26.284  0.00  0.00    -0.021 A 
ATOM     12  C   LIG    1        6.841   7.125  27.338  0.00  0.00    +0.012 A 
ATOM     13  C   LIG    1        6.397   8.432  27.104  0.00  0.00    +0.046 A 
ATOM     14  C   LIG    1        6.476   8.967  25.826  0.00  0.00    +0.117 A 
ATOM     15  C   LIG    1        6.941   8.199  24.767  0.00  0.00    +0.046 A 
ATOM     16  C   LIG    1        7.315   6.868  24.993  0.00  0.00    +0.012 A 
BRANCH  14  17
ATOM     17  O   LIG    1        6.094  10.264  25.654  0.00  0.00    -0.507 OA
ATOM     18  H   LIG    1        6.442  10.581  24.803  0.00  0.00    +0.292 HD
ENDBRANCH  14  17
ENDBRANCH   2  11
BRANCH   1  19
ATOM     19  C   LIG    1        5.492   3.822  26.678  0.00  0.00    +0.032 C 
ATOM     20  C   LIG    1        4.515   4.329  27.734  0.00  0.00    +0.009 C 
ENDBRANCH   1  19
BRANCH   2  21
ATOM     21  C   LIG    1        9.369   4.902  26.588  0.00  0.00    +0.032 C 
ATOM     22  C   LIG    1       10.193   4.935  27.879  0.00  0.00    +0.009 C 
ENDBRANCH   2  21
TORSDOF 6
ENDMDL
MODEL 9
REMARK VINA RESULT:      -7.0      1.979      7.468
REMARK  Name = 
REMARK                            x       y       z     vdW  Elec       q    Type
REMARK                         _______ _______ _______ _____ _____    ______ ____
ROOT
ATOM      1  C   LIG    1       18.082   5.964  27.693  0.00  0.00    -0.037 C 
ATOM      2  C   LIG    1       17.471   4.742  27.523  0.00  0.00    -0.037 C 
ENDROOT
BRANCH   1   6
ATOM      3  C   LIG    1       18.510   8.102  31.533  0.00  0.00    +0.117 A 
ATOM      4  C   LIG    1       17.339   8.169  30.810  0.00  0.00    +0.046 A 
ATOM      5  C   LIG    1       17.230   7.487  29.586  0.00  0.00    +0.012 A 
ATOM      6  C   LIG    1       18.268   6.678  29.057  0.00  0.00    -0.021 A 
ATOM      7  C   LIG    1       19.407   6.592  29.876  0.00  0.00    +0.012 A 
ATOM      8  C   LIG    1       19.553   7.316  31.074  0.00  0.00    +0.046 A 
BRANCH   3   9
ATOM      9  O   LIG    1       18.601   8.812  32.690  0.00  0.00    -0.507 OA
ATOM     10  H   LIG    1       17.897   8.520  33.291  0.00  0.00    +0.292 HD
ENDBRANCH   3   9
ENDBRANCH   1   6
BRANCH   2  11
ATOM     11  C   LIG    1       17.484   3.988  26.233  0.00  0.00    -0.021 A 
ATOM     12  C   LIG    1       16.336   3.934  25.427  0.00  0.00    +0.012 A 
ATOM     13  C   LIG    1       16.356   3.289  24.184  0.00  0.00    +0.046 A 
ATOM     14  C   LIG    1       17.546   2.762  23.701  0.00  0.00    +0.117 A 
ATOM     15  C   LIG    1       18.705   2.821  24.464  0.00  0.00    +0.046 A 
ATOM     16  C   LIG    1       18.662   3.401  25.739  0.00  0.00    +0.012 A 
BRANCH  14  17
ATOM     17  O   LIG    1       17.537   2.202  22.459  0.00  0.00    -0.507 OA
ATOM     18  H   LIG    1       16.690   2.410  22.030  0.00  0.00    +0.292 HD
ENDBRANCH  14  17
ENDBRANCH   2  11
BRANCH   1  19
ATOM     19  C   LIG    1       18.723   6.811  26.562  0.00  0.00    +0.032 C 
ATOM     20  C   LIG    1       20.222   6.965  26.322  0.00  0.00    +0.009 C 
ENDBRANCH   1  19
BRANCH   2  21
ATOM     21  C   LIG    1       16.755   3.990  28.655  0.00  0.00    +0.032 C 
ATOM     22  C   LIG    1       15.977   2.687  28.450  0.00  0.00    +0.009 C 
ENDBRANCH   2  21
TORSDOF 6
ENDMDL
