MODEL 1
REMARK VINA RESULT:      -2.4      0.000      0.000
REMARK  Name = 
REMARK                            x       y       z     vdW  Elec       q    Type
REMARK                         _______ _______ _______ _____ _____    ______ ____
ROOT
ATOM      1  C   LIG    1       17.144   3.512  52.042  0.00  0.00    -0.037 C 
ATOM      2  C   LIG    1       16.833   4.837  52.251  0.00  0.00    -0.037 C 
ENDROOT
BRANCH   1   6
ATOM      3  C   LIG    1       14.588   0.044  53.011  0.00  0.00    +0.117 A 
ATOM      4  C   LIG    1       15.755   0.280  53.703  0.00  0.00    +0.046 A 
ATOM      5  C   LIG    1       16.556   1.386  53.370  0.00  0.00    +0.012 A 
ATOM      6  C   LIG    1       16.204   2.322  52.364  0.00  0.00    -0.021 A 
ATOM      7  C   LIG    1       14.968   2.065  51.746  0.00  0.00    +0.012 A 
ATOM      8  C   LIG    1       14.184   0.930  52.028  0.00  0.00    +0.046 A 
BRANCH   3   9
ATOM      9  O   LIG    1       13.859  -1.061  53.325  0.00  0.00    -0.507 OA
ATOM     10  H   LIG    1       13.269  -0.845  54.064  0.00  0.00    +0.292 HD
ENDBRANCH   3   9
ENDBRANCH   1   6
BRANCH   2  11
ATOM     11  C   LIG    1       17.670   5.967  51.748  0.00  0.00    -0.021 A 
ATOM     12  C   LIG    1       18.736   6.463  52.517  0.00  0.00    +0.012 A 
ATOM     13  C   LIG    1       19.570   7.475  52.026  0.00  0.00    +0.046 A 
ATOM     14  C   LIG    1       19.395   7.945  50.731  0.00  0.00    +0.117 A 
ATOM     15  C   LIG    1       18.365   7.458  49.938  0.00  0.00    +0.046 A 
ATOM     16  C   LIG    1       17.488   6.498  50.459  0.00  0.00    +0.012 A 
BRANCH  14  17
ATOM     17  O   LIG    1       20.270   8.883  50.271  0.00  0.00    -0.507 OA
ATOM     18  H   LIG    1       21.153   8.482  50.212  0.00  0.00    +0.292 HD
ENDBRANCH  14  17
ENDBRANCH   2  11
BRANCH   1  19
ATOM     19  C   LIG    1       18.461   2.989  51.412  0.00  0.00    +0.032 C 
ATOM     20  C   LIG    1       18.847   3.126  49.942  0.00  0.00    +0.009 C 
ENDBRANCH   1  19
BRANCH   2  21
ATOM     21  C   LIG    1       15.562   5.303  52.977  0.00  0.00    +0.032 C 
ATOM     22  C   LIG    1       15.142   6.770  53.097  0.00  0.00    +0.009 C 
ENDBRANCH   2  21
TORSDOF 6
ENDMDL
MODEL 2
REMARK VINA RESULT:      -2.4      0.814      2.673
REMARK  Name = 
REMARK                            x       y       z     vdW  Elec       q    Type
REMARK                         _______ _______ _______ _____ _____    ______ ____
ROOT
ATOM      1  C   LIG    1       16.170   4.051  52.411  0.00  0.00    -0.037 C 
ATOM      2  C   LIG    1       17.381   4.187  51.769  0.00  0.00    -0.037 C 
ENDROOT
BRANCH   1   6
ATOM      3  C   LIG    1       14.223   0.162  53.176  0.00  0.00    +0.117 A 
ATOM      4  C   LIG    1       15.158   0.671  54.049  0.00  0.00    +0.046 A 
ATOM      5  C   LIG    1       15.771   1.907  53.780  0.00  0.00    +0.012 A 
ATOM      6  C   LIG    1       15.443   2.702  52.651  0.00  0.00    -0.021 A 
ATOM      7  C   LIG    1       14.431   2.162  51.839  0.00  0.00    +0.012 A 
ATOM      8  C   LIG    1       13.851   0.900  52.065  0.00  0.00    +0.046 A 
BRANCH   3   9
ATOM      9  O   LIG    1       13.683  -1.058  53.440  0.00  0.00    -0.507 OA
ATOM     10  H   LIG    1       12.803  -1.105  53.033  0.00  0.00    +0.292 HD
ENDBRANCH   3   9
ENDBRANCH   1   6
BRANCH   2  11
ATOM     11  C   LIG    1       18.151   5.466  51.729  0.00  0.00    -0.021 A 
ATOM     12  C   LIG    1       17.850   6.451  50.774  0.00  0.00    +0.012 A 
ATOM     13  C   LIG    1       18.518   7.681  50.771  0.00  0.00    +0.046 A 
ATOM     14  C   LIG    1       19.437   7.969  51.771  0.00  0.00    +0.117 A 
ATOM     15  C   LIG    1       19.740   7.024  52.743  0.00  0.00    +0.046 A 
ATOM     16  C   LIG    1       19.123   5.767  52.699  0.00  0.00    +0.012 A 
BRANCH  14  17
ATOM     17  O   LIG    1       20.016   9.202  51.768  0.00  0.00    -0.507 OA
ATOM     18  H   LIG    1       19.438   9.818  52.249  0.00  0.00    +0.292 HD
ENDBRANCH  14  17
ENDBRANCH   2  11
BRANCH   1  19
ATOM     19  C   LIG    1       15.353   5.210  53.038  0.00  0.00    +0.032 C 
ATOM     20  C   LIG    1       15.603   5.817  54.416  0.00  0.00    +0.009 C 
ENDBRANCH   1  19
BRANCH   2  21
ATOM     21  C   LIG    1       18.101   3.025  51.069  0.00  0.00    +0.032 C 
ATOM     22  C   LIG    1       19.116   3.213  49.938  0.00  0.00    +0.009 C 
ENDBRANCH   2  21
TORSDOF 6
ENDMDL
MODEL 3
REMARK VINA RESULT:      -2.3      2.343      3.060
REMARK  Name = 
REMARK                            x       y       z     vdW  Elec       q    Type
REMARK                         _______ _______ _______ _____ _____    ______ ____
ROOT
ATOM      1  C   LIG    1       18.579   4.343  52.171  0.00  0.00    -0.037 C 
ATOM      2  C   LIG    1       18.926   5.247  51.192  0.00  0.00    -0.037 C 
ENDROOT
BRANCH   1   6
ATOM      3  C   LIG    1       14.638   2.371  52.442  0.00  0.00    +0.117 A 
ATOM      4  C   LIG    1       15.721   1.720  51.893  0.00  0.00    +0.046 A 
ATOM      5  C   LIG    1       16.963   2.372  51.810  0.00  0.00    +0.012 A 
ATOM      6  C   LIG    1       17.184   3.681  52.309  0.00  0.00    -0.021 A 
ATOM      7  C   LIG    1       16.060   4.262  52.922  0.00  0.00    +0.012 A 
ATOM      8  C   LIG    1       14.796   3.645  52.960  0.00  0.00    +0.046 A 
BRANCH   3   9
ATOM      9  O   LIG    1       13.438   1.730  52.465  0.00  0.00    -0.507 OA
ATOM     10  H   LIG    1       13.565   0.842  52.836  0.00  0.00    +0.292 HD
ENDBRANCH   3   9
ENDBRANCH   1   6
BRANCH   2  11
ATOM     11  C   LIG    1       20.327   5.713  50.961  0.00  0.00    -0.021 A 
ATOM     12  C   LIG    1       20.818   6.850  51.623  0.00  0.00    +0.012 A 
ATOM     13  C   LIG    1       22.149   7.256  51.468  0.00  0.00    +0.046 A 
ATOM     14  C   LIG    1       23.022   6.483  50.715  0.00  0.00    +0.117 A 
ATOM     15  C   LIG    1       22.573   5.339  50.068  0.00  0.00    +0.046 A 
ATOM     16  C   LIG    1       21.223   4.978  50.166  0.00  0.00    +0.012 A 
BRANCH  14  17
ATOM     17  O   LIG    1       24.324   6.878  50.644  0.00  0.00    -0.507 OA
ATOM     18  H   LIG    1       24.351   7.845  50.545  0.00  0.00    +0.292 HD
ENDBRANCH  14  17
ENDBRANCH   2  11
BRANCH   1  19
ATOM     19  C   LIG    1       19.532   3.802  53.270  0.00  0.00    +0.032 C 
ATOM     20  C   LIG    1       20.506   2.642  53.094  0.00  0.00    +0.009 C 
ENDBRANCH   1  19
BRANCH   2  21
ATOM     21  C   LIG    1       17.921   5.836  50.191  0.00  0.00    +0.032 C 
ATOM     22  C   LIG    1       17.026   7.040  50.495  0.00  0.00    +0.009 C 
ENDBRANCH   2  21
TORSDOF 6
ENDMDL
MODEL 4
REMARK VINA RESULT:      -2.3      0.629      7.176
REMARK  Name = 
REMARK                            x       y       z     vdW  Elec       q    Type
REMARK                         _______ _______ _______ _____ _____    ______ ____
ROOT
ATOM      1  C   LIG    1       16.909   4.870  52.280  0.00  0.00    -0.037 C 
ATOM      2  C   LIG    1       17.200   3.568  51.938  0.00  0.00    -0.037 C 
ENDROOT
BRANCH   1   6
ATOM      3  C   LIG    1       18.833   8.474  50.606  0.00  0.00    +0.117 A 
ATOM      4  C   LIG    1       19.311   7.884  51.755  0.00  0.00    +0.046 A 
ATOM      5  C   LIG    1       18.676   6.743  52.274  0.00  0.00    +0.012 A 
ATOM      6  C   LIG    1       17.567   6.121  51.643  0.00  0.00    -0.021 A 
ATOM      7  C   LIG    1       17.175   6.728  50.438  0.00  0.00    +0.012 A 
ATOM      8  C   LIG    1       17.763   7.904  49.938  0.00  0.00    +0.046 A 
BRANCH   3   9
ATOM      9  O   LIG    1       19.440   9.605  50.156  0.00  0.00    -0.507 OA
ATOM     10  H   LIG    1       20.086   9.897  50.818  0.00  0.00    +0.292 HD
ENDBRANCH   3   9
ENDBRANCH   1   6
BRANCH   2  11
ATOM     11  C   LIG    1       16.411   2.395  52.419  0.00  0.00    -0.021 A 
ATOM     12  C   LIG    1       15.187   2.063  51.816  0.00  0.00    +0.012 A 
ATOM     13  C   LIG    1       14.473   0.926  52.213  0.00  0.00    +0.046 A 
ATOM     14  C   LIG    1       15.015   0.067  53.159  0.00  0.00    +0.117 A 
ATOM     15  C   LIG    1       16.235   0.355  53.756  0.00  0.00    +0.046 A 
ATOM     16  C   LIG    1       16.911   1.532  53.410  0.00  0.00    +0.012 A 
BRANCH  14  17
ATOM     17  O   LIG    1       14.317  -1.062  53.468  0.00  0.00    -0.507 OA
ATOM     18  H   LIG    1       14.937  -1.726  53.816  0.00  0.00    +0.292 HD
ENDBRANCH  14  17
ENDBRANCH   2  11
BRANCH   1  19
ATOM     19  C   LIG    1       15.847   5.306  53.324  0.00  0.00    +0.032 C 
ATOM     20  C   LIG    1       14.422   5.740  52.998  0.00  0.00    +0.009 C 
ENDBRANCH   1  19
BRANCH   2  21
ATOM     21  C   LIG    1       18.334   3.181  50.977  0.00  0.00    +0.032 C 
ATOM     22  C   LIG    1       19.813   3.157  51.375  0.00  0.00    +0.009 C 
ENDBRANCH   2  21
TORSDOF 6
ENDMDL
MODEL 5
REMARK VINA RESULT:      -2.2      2.315      3.401
REMARK  Name = 
REMARK                            x       y       z     vdW  Elec       q    Type
REMARK                         _______ _______ _______ _____ _____    ______ ____
ROOT
ATOM      1  C   LIG    1       16.352   3.391  53.514  0.00  0.00    -0.037 C 
ATOM      2  C   LIG    1       17.348   4.140  52.927  0.00  0.00    -0.037 C 
ENDROOT
BRANCH   1   6
ATOM      3  C   LIG    1       14.078   0.246  51.408  0.00  0.00    +0.117 A 
ATOM      4  C   LIG    1       15.274  -0.038  52.029  0.00  0.00    +0.046 A 
ATOM      5  C   LIG    1       15.984   0.981  52.685  0.00  0.00    +0.012 A 
ATOM      6  C   LIG    1       15.508   2.314  52.785  0.00  0.00    -0.021 A 
ATOM      7  C   LIG    1       14.249   2.522  52.194  0.00  0.00    +0.012 A 
ATOM      8  C   LIG    1       13.555   1.526  51.484  0.00  0.00    +0.046 A 
BRANCH   3   9
ATOM      9  O   LIG    1       13.439  -0.752  50.741  0.00  0.00    -0.507 OA
ATOM     10  H   LIG    1       12.673  -0.377  50.277  0.00  0.00    +0.292 HD
ENDBRANCH   3   9
ENDBRANCH   1   6
BRANCH   2  11
ATOM     11  C   LIG    1       18.277   5.021  53.696  0.00  0.00    -0.021 A 
ATOM     12  C   LIG    1       19.472   4.507  54.225  0.00  0.00    +0.012 A 
ATOM     13  C   LIG    1       20.383   5.338  54.888  0.00  0.00    +0.046 A 
ATOM     14  C   LIG    1       20.146   6.704  54.958  0.00  0.00    +0.117 A 
ATOM     15  C   LIG    1       18.984   7.246  54.423  0.00  0.00    +0.046 A 
ATOM     16  C   LIG    1       18.041   6.400  53.826  0.00  0.00    +0.012 A 
BRANCH  14  17
ATOM     17  O   LIG    1       21.090   7.485  55.554  0.00  0.00    -0.507 OA
ATOM     18  H   LIG    1       21.907   6.968  55.649  0.00  0.00    +0.292 HD
ENDBRANCH  14  17
ENDBRANCH   2  11
BRANCH   1  19
ATOM     19  C   LIG    1       15.937   3.465  55.007  0.00  0.00    +0.032 C 
ATOM     20  C   LIG    1       16.599   2.690  56.142  0.00  0.00    +0.009 C 
ENDBRANCH   1  19
BRANCH   2  21
ATOM     21  C   LIG    1       17.650   4.110  51.422  0.00  0.00    +0.032 C 
ATOM     22  C   LIG    1       18.623   3.122  50.771  0.00  0.00    +0.009 C 
ENDBRANCH   2  21
TORSDOF 6
ENDMDL
MODEL 6
REMARK VINA RESULT:      -2.2      3.113      4.374
REMARK  Name = 
REMARK                            x       y       z     vdW  Elec       q    Type
REMARK                         _______ _______ _______ _____ _____    ______ ____
ROOT
ATOM      1  C   LIG    1       18.980   3.629  51.539  0.00  0.00    -0.037 C 
ATOM      2  C   LIG    1       20.072   3.299  52.312  0.00  0.00    -0.037 C 
ENDROOT
BRANCH   1   6
ATOM      3  C   LIG    1       14.791   3.060  52.812  0.00  0.00    +0.117 A 
ATOM      4  C   LIG    1       15.428   4.268  52.990  0.00  0.00    +0.046 A 
ATOM      5  C   LIG    1       16.765   4.422  52.585  0.00  0.00    +0.012 A 
ATOM      6  C   LIG    1       17.503   3.391  51.948  0.00  0.00    -0.021 A 
ATOM      7  C   LIG    1       16.774   2.209  51.730  0.00  0.00    +0.012 A 
ATOM      8  C   LIG    1       15.455   2.022  52.183  0.00  0.00    +0.046 A 
BRANCH   3   9
ATOM      9  O   LIG    1       13.512   2.929  53.258  0.00  0.00    -0.507 OA
ATOM     10  H   LIG    1       13.324   3.649  53.881  0.00  0.00    +0.292 HD
ENDBRANCH   3   9
ENDBRANCH   1   6
BRANCH   2  11
ATOM     11  C   LIG    1       21.467   3.720  51.986  0.00  0.00    -0.021 A 
ATOM     12  C   LIG    1       22.336   2.847  51.311  0.00  0.00    +0.012 A 
ATOM     13  C   LIG    1       23.623   3.254  50.939  0.00  0.00    +0.046 A 
ATOM     14  C   LIG    1       24.024   4.564  51.166  0.00  0.00    +0.117 A 
ATOM     15  C   LIG    1       23.179   5.458  51.810  0.00  0.00    +0.046 A 
ATOM     16  C   LIG    1       21.920   5.025  52.247  0.00  0.00    +0.012 A 
BRANCH  14  17
ATOM     17  O   LIG    1       25.260   4.937  50.730  0.00  0.00    -0.507 OA
ATOM     18  H   LIG    1       25.418   4.532  49.860  0.00  0.00    +0.292 HD
ENDBRANCH  14  17
ENDBRANCH   2  11
BRANCH   1  19
ATOM     19  C   LIG    1       19.039   4.330  50.157  0.00  0.00    +0.032 C 
ATOM     20  C   LIG    1       19.054   5.840  49.938  0.00  0.00    +0.009 C 
ENDBRANCH   1  19
BRANCH   2  21
ATOM     21  C   LIG    1       19.970   2.509  53.624  0.00  0.00    +0.032 C 
ATOM     22  C   LIG    1       19.742   0.996  53.689  0.00  0.00    +0.009 C 
ENDBRANCH   2  21
TORSDOF 6
ENDMDL
MODEL 7
REMARK VINA RESULT:      -2.1      1.765      3.414
REMARK  Name = 
REMARK                            x       y       z     vdW  Elec       q    Type
REMARK                         _______ _______ _______ _____ _____    ______ ____
ROOT
ATOM      1  C   LIG    1       16.871   5.183  52.143  0.00  0.00    -0.037 C 
ATOM      2  C   LIG    1       17.530   5.778  51.090  0.00  0.00    -0.037 C 
ENDROOT
BRANCH   1   6
ATOM      3  C   LIG    1       16.984   0.893  53.182  0.00  0.00    +0.117 A 
ATOM      4  C   LIG    1       15.930   1.423  52.471  0.00  0.00    +0.046 A 
ATOM      5  C   LIG    1       15.912   2.793  52.160  0.00  0.00    +0.012 A 
ATOM      6  C   LIG    1       16.965   3.679  52.508  0.00  0.00    -0.021 A 
ATOM      7  C   LIG    1       18.043   3.063  53.167  0.00  0.00    +0.012 A 
ATOM      8  C   LIG    1       18.047   1.705  53.536  0.00  0.00    +0.046 A 
BRANCH   3   9
ATOM      9  O   LIG    1       16.948  -0.427  53.509  0.00  0.00    -0.507 OA
ATOM     10  H   LIG    1       17.056  -0.514  54.469  0.00  0.00    +0.292 HD
ENDBRANCH   3   9
ENDBRANCH   1   6
BRANCH   2  11
ATOM     11  C   LIG    1       17.583   7.256  50.883  0.00  0.00    -0.021 A 
ATOM     12  C   LIG    1       16.623   7.899  50.083  0.00  0.00    +0.012 A 
ATOM     13  C   LIG    1       16.622   9.292  49.938  0.00  0.00    +0.046 A 
ATOM     14  C   LIG    1       17.529  10.061  50.654  0.00  0.00    +0.117 A 
ATOM     15  C   LIG    1       18.475   9.456  51.471  0.00  0.00    +0.046 A 
ATOM     16  C   LIG    1       18.520   8.059  51.557  0.00  0.00    +0.012 A 
BRANCH  14  17
ATOM     17  O   LIG    1       17.450  11.416  50.534  0.00  0.00    -0.507 OA
ATOM     18  H   LIG    1       18.033  11.821  51.197  0.00  0.00    +0.292 HD
ENDBRANCH  14  17
ENDBRANCH   2  11
BRANCH   1  19
ATOM     19  C   LIG    1       15.964   5.919  53.164  0.00  0.00    +0.032 C 
ATOM     20  C   LIG    1       14.541   6.395  52.891  0.00  0.00    +0.009 C 
ENDBRANCH   1  19
BRANCH   2  21
ATOM     21  C   LIG    1       18.331   4.992  50.042  0.00  0.00    +0.032 C 
ATOM     22  C   LIG    1       19.808   4.622  50.204  0.00  0.00    +0.009 C 
ENDBRANCH   2  21
TORSDOF 6
ENDMDL
MODEL 8
REMARK VINA RESULT:      -2.1      3.301      6.813
REMARK  Name = 
REMARK                            x       y       z     vdW  Elec       q    Type
REMARK                         _______ _______ _______ _____ _____    ______ ____
ROOT
ATOM      1  C   LIG    1       19.810   3.822  51.650  0.00  0.00    -0.037 C 
ATOM      2  C   LIG    1       19.055   3.481  52.750  0.00  0.00    -0.037 C 
ENDROOT
BRANCH   1   6
ATOM      3  C   LIG    1       24.219   4.006  51.499  0.00  0.00    +0.117 A 
ATOM      4  C   LIG    1       23.471   5.130  51.773  0.00  0.00    +0.046 A 
ATOM      5  C   LIG    1       22.069   5.048  51.807  0.00  0.00    +0.012 A 
ATOM      6  C   LIG    1       21.360   3.835  51.611  0.00  0.00    -0.021 A 
ATOM      7  C   LIG    1       22.183   2.713  51.409  0.00  0.00    +0.012 A 
ATOM      8  C   LIG    1       23.585   2.790  51.314  0.00  0.00    +0.046 A 
BRANCH   3   9
ATOM      9  O   LIG    1       25.572   4.128  51.425  0.00  0.00    -0.507 OA
ATOM     10  H   LIG    1       25.903   4.447  52.280  0.00  0.00    +0.292 HD
ENDBRANCH   3   9
ENDBRANCH   1   6
BRANCH   2  11
ATOM     11  C   LIG    1       17.575   3.282  52.703  0.00  0.00    -0.021 A 
ATOM     12  C   LIG    1       16.704   4.326  53.054  0.00  0.00    +0.012 A 
ATOM     13  C   LIG    1       15.316   4.174  52.947  0.00  0.00    +0.046 A 
ATOM     14  C   LIG    1       14.790   3.007  52.412  0.00  0.00    +0.117 A 
ATOM     15  C   LIG    1       15.626   1.965  52.033  0.00  0.00    +0.046 A 
ATOM     16  C   LIG    1       17.010   2.093  52.211  0.00  0.00    +0.012 A 
BRANCH  14  17
ATOM     17  O   LIG    1       13.438   2.926  52.265  0.00  0.00    -0.507 OA
ATOM     18  H   LIG    1       13.158   2.015  52.454  0.00  0.00    +0.292 HD
ENDBRANCH  14  17
ENDBRANCH   2  11
BRANCH   1  19
ATOM     19  C   LIG    1       19.244   4.207  50.258  0.00  0.00    +0.032 C 
ATOM     20  C   LIG    1       18.507   5.503  49.938  0.00  0.00    +0.009 C 
ENDBRANCH   1  19
BRANCH   2  21
ATOM     21  C   LIG    1       19.656   3.211  54.137  0.00  0.00    +0.032 C 
ATOM     22  C   LIG    1       19.952   1.809  54.677  0.00  0.00    +0.009 C 
ENDBRANCH   2  21
TORSDOF 6
ENDMDL
MODEL 9
REMARK VINA RESULT:      -2.0      3.400      6.858
REMARK  Name = 
REMARK                            x       y       z     vdW  Elec       q    Type
REMARK                         _______ _______ _______ _____ _____    ______ ____
ROOT
ATOM      1  C   LIG    1       14.695   5.190  54.053  0.00  0.00    -0.037 C 
ATOM      2  C   LIG    1       14.241   3.902  54.230  0.00  0.00    -0.037 C 
ENDROOT
BRANCH   1   6
ATOM      3  C   LIG    1       14.525   8.319  57.164  0.00  0.00    +0.117 A 
ATOM      4  C   LIG    1       15.659   7.558  56.985  0.00  0.00    +0.046 A 
ATOM      5  C   LIG    1       15.685   6.562  55.994  0.00  0.00    +0.012 A 
ATOM      6  C   LIG    1       14.599   6.316  55.116  0.00  0.00    -0.021 A 
ATOM      7  C   LIG    1       13.501   7.174  55.302  0.00  0.00    +0.012 A 
ATOM      8  C   LIG    1       13.438   8.135  56.327  0.00  0.00    +0.046 A 
BRANCH   3   9
ATOM      9  O   LIG    1       14.514   9.243  58.163  0.00  0.00    -0.507 OA
ATOM     10  H   LIG    1       13.653   9.691  58.164  0.00  0.00    +0.292 HD
ENDBRANCH   3   9
ENDBRANCH   1   6
BRANCH   2  11
ATOM     11  C   LIG    1       14.526   2.791  53.274  0.00  0.00    -0.021 A 
ATOM     12  C   LIG    1       13.611   2.474  52.255  0.00  0.00    +0.012 A 
ATOM     13  C   LIG    1       13.899   1.482  51.311  0.00  0.00    +0.046 A 
ATOM     14  C   LIG    1       15.136   0.852  51.327  0.00  0.00    +0.117 A 
ATOM     15  C   LIG    1       16.071   1.160  52.307  0.00  0.00    +0.046 A 
ATOM     16  C   LIG    1       15.751   2.101  53.294  0.00  0.00    +0.012 A 
BRANCH  14  17
ATOM     17  O   LIG    1       15.399  -0.061  50.351  0.00  0.00    -0.507 OA
ATOM     18  H   LIG    1       15.911  -0.791  50.737  0.00  0.00    +0.292 HD
ENDBRANCH  14  17
ENDBRANCH   2  11
BRANCH   1  19
ATOM     19  C   LIG    1       15.415   5.721  52.786  0.00  0.00    +0.032 C 
ATOM     20  C   LIG    1       16.902   5.557  52.487  0.00  0.00    +0.009 C 
ENDBRANCH   1  19
BRANCH   2  21
ATOM     21  C   LIG    1       13.438   3.451  55.459  0.00  0.00    +0.032 C 
ATOM     22  C   LIG    1       14.079   3.006  56.776  0.00  0.00    +0.009 C 
ENDBRANCH   2  21
TORSDOF 6
ENDMDL
