MODEL 1
REMARK VINA RESULT:      -8.8      0.000      0.000
REMARK  Name = 
REMARK                            x       y       z     vdW  Elec       q    Type
REMARK                         _______ _______ _______ _____ _____    ______ ____
ROOT
ATOM      1  C   LIG    1       26.117   2.701  17.908  0.00  0.00    -0.037 C 
ATOM      2  C   LIG    1       26.544   1.423  18.192  0.00  0.00    -0.037 C 
ENDROOT
BRANCH   1   6
ATOM      3  C   LIG    1       24.000   3.915  14.228  0.00  0.00    +0.117 A 
ATOM      4  C   LIG    1       25.343   3.608  14.206  0.00  0.00    +0.046 A 
ATOM      5  C   LIG    1       25.996   3.233  15.392  0.00  0.00    +0.012 A 
ATOM      6  C   LIG    1       25.328   3.108  16.637  0.00  0.00    -0.021 A 
ATOM      7  C   LIG    1       23.947   3.364  16.578  0.00  0.00    +0.012 A 
ATOM      8  C   LIG    1       23.291   3.797  15.410  0.00  0.00    +0.046 A 
BRANCH   3   9
ATOM      9  O   LIG    1       23.408   4.321  13.072  0.00  0.00    -0.507 OA
ATOM     10  H   LIG    1       23.904   5.075  12.716  0.00  0.00    +0.292 HD
ENDBRANCH   3   9
ENDBRANCH   1   6
BRANCH   2  11
ATOM     11  C   LIG    1       27.121   1.022  19.510  0.00  0.00    -0.021 A 
ATOM     12  C   LIG    1       26.395   0.199  20.386  0.00  0.00    +0.012 A 
ATOM     13  C   LIG    1       26.952  -0.239  21.593  0.00  0.00    +0.046 A 
ATOM     14  C   LIG    1       28.269   0.075  21.898  0.00  0.00    +0.117 A 
ATOM     15  C   LIG    1       29.022   0.868  21.041  0.00  0.00    +0.046 A 
ATOM     16  C   LIG    1       28.436   1.365  19.870  0.00  0.00    +0.012 A 
BRANCH  14  17
ATOM     17  O   LIG    1       28.793  -0.426  23.052  0.00  0.00    -0.507 OA
ATOM     18  H   LIG    1       29.743  -0.583  22.920  0.00  0.00    +0.292 HD
ENDBRANCH  14  17
ENDBRANCH   2  11
BRANCH   1  19
ATOM     19  C   LIG    1       26.311   3.936  18.827  0.00  0.00    +0.032 C 
ATOM     20  C   LIG    1       25.547   4.196  20.122  0.00  0.00    +0.009 C 
ENDBRANCH   1  19
BRANCH   2  21
ATOM     21  C   LIG    1       26.425   0.253  17.204  0.00  0.00    +0.032 C 
ATOM     22  C   LIG    1       26.896  -1.170  17.512  0.00  0.00    +0.009 C 
ENDBRANCH   2  21
TORSDOF 6
ENDMDL
MODEL 2
REMARK VINA RESULT:      -8.8      0.127      7.187
REMARK  Name = 
REMARK                            x       y       z     vdW  Elec       q    Type
REMARK                         _______ _______ _______ _____ _____    ______ ____
ROOT
ATOM      1  C   LIG    1       26.488   1.540  18.089  0.00  0.00    -0.037 C 
ATOM      2  C   LIG    1       26.109   2.841  17.841  0.00  0.00    -0.037 C 
ENDROOT
BRANCH   1   6
ATOM      3  C   LIG    1       28.269   0.092  21.860  0.00  0.00    +0.117 A 
ATOM      4  C   LIG    1       28.972   0.926  21.018  0.00  0.00    +0.046 A 
ATOM      5  C   LIG    1       28.387   1.366  19.819  0.00  0.00    +0.012 A 
ATOM      6  C   LIG    1       27.064   1.027  19.434  0.00  0.00    -0.021 A 
ATOM      7  C   LIG    1       26.376   0.235  20.370  0.00  0.00    +0.012 A 
ATOM      8  C   LIG    1       26.968  -0.261  21.546  0.00  0.00    +0.046 A 
BRANCH   3   9
ATOM      9  O   LIG    1       28.881  -0.355  22.991  0.00  0.00    -0.507 OA
ATOM     10  H   LIG    1       29.571  -0.990  22.741  0.00  0.00    +0.292 HD
ENDBRANCH   3   9
ENDBRANCH   1   6
BRANCH   2  11
ATOM     11  C   LIG    1       25.374   3.264  16.612  0.00  0.00    -0.021 A 
ATOM     12  C   LIG    1       26.043   3.373  15.382  0.00  0.00    +0.012 A 
ATOM     13  C   LIG    1       25.351   3.701  14.210  0.00  0.00    +0.046 A 
ATOM     14  C   LIG    1       23.971   3.844  14.243  0.00  0.00    +0.117 A 
ATOM     15  C   LIG    1       23.277   3.718  15.439  0.00  0.00    +0.046 A 
ATOM     16  C   LIG    1       23.982   3.463  16.622  0.00  0.00    +0.012 A 
BRANCH  14  17
ATOM     17  O   LIG    1       23.329   4.098  13.068  0.00  0.00    -0.507 OA
ATOM     18  H   LIG    1       22.391   3.867  13.169  0.00  0.00    +0.292 HD
ENDBRANCH  14  17
ENDBRANCH   2  11
BRANCH   1  19
ATOM     19  C   LIG    1       26.362   0.363  17.086  0.00  0.00    +0.032 C 
ATOM     20  C   LIG    1       26.865  -1.056  17.329  0.00  0.00    +0.009 C 
ENDBRANCH   1  19
BRANCH   2  21
ATOM     21  C   LIG    1       26.352   3.993  18.826  0.00  0.00    +0.032 C 
ATOM     22  C   LIG    1       25.592   4.158  20.145  0.00  0.00    +0.009 C 
ENDBRANCH   2  21
TORSDOF 6
ENDMDL
MODEL 3
REMARK VINA RESULT:      -8.7      1.858      3.461
REMARK  Name = 
REMARK                            x       y       z     vdW  Elec       q    Type
REMARK                         _______ _______ _______ _____ _____    ______ ____
ROOT
ATOM      1  C   LIG    1       27.802   1.200  20.089  0.00  0.00    -0.037 C 
ATOM      2  C   LIG    1       27.719  -0.121  20.468  0.00  0.00    -0.037 C 
ENDROOT
BRANCH   1   6
ATOM      3  C   LIG    1       25.170   3.198  17.160  0.00  0.00    +0.117 A 
ATOM      4  C   LIG    1       25.539   3.828  18.327  0.00  0.00    +0.046 A 
ATOM      5  C   LIG    1       26.370   3.169  19.248  0.00  0.00    +0.012 A 
ATOM      6  C   LIG    1       26.900   1.872  19.021  0.00  0.00    -0.021 A 
ATOM      7  C   LIG    1       26.545   1.313  17.781  0.00  0.00    +0.012 A 
ATOM      8  C   LIG    1       25.667   1.937  16.876  0.00  0.00    +0.046 A 
BRANCH   3   9
ATOM      9  O   LIG    1       24.326   3.844  16.311  0.00  0.00    -0.507 OA
ATOM     10  H   LIG    1       24.057   3.229  15.610  0.00  0.00    +0.292 HD
ENDBRANCH   3   9
ENDBRANCH   1   6
BRANCH   2  11
ATOM     11  C   LIG    1       28.458  -0.690  21.635  0.00  0.00    -0.021 A 
ATOM     12  C   LIG    1       29.722  -1.278  21.462  0.00  0.00    +0.012 A 
ATOM     13  C   LIG    1       30.453  -1.752  22.557  0.00  0.00    +0.046 A 
ATOM     14  C   LIG    1       29.963  -1.570  23.844  0.00  0.00    +0.117 A 
ATOM     15  C   LIG    1       28.728  -0.970  24.049  0.00  0.00    +0.046 A 
ATOM     16  C   LIG    1       27.966  -0.564  22.946  0.00  0.00    +0.012 A 
BRANCH  14  17
ATOM     17  O   LIG    1       30.737  -1.987  24.885  0.00  0.00    -0.507 OA
ATOM     18  H   LIG    1       30.222  -2.608  25.426  0.00  0.00    +0.292 HD
ENDBRANCH  14  17
ENDBRANCH   2  11
BRANCH   1  19
ATOM     19  C   LIG    1       28.774   2.247  20.694  0.00  0.00    +0.032 C 
ATOM     20  C   LIG    1       30.295   2.142  20.684  0.00  0.00    +0.009 C 
ENDBRANCH   1  19
BRANCH   2  21
ATOM     21  C   LIG    1       26.816  -1.146  19.766  0.00  0.00    +0.032 C 
ATOM     22  C   LIG    1       27.117  -1.740  18.387  0.00  0.00    +0.009 C 
ENDBRANCH   2  21
TORSDOF 6
ENDMDL
MODEL 4
REMARK VINA RESULT:      -8.6      0.661      6.816
REMARK  Name = 
REMARK                            x       y       z     vdW  Elec       q    Type
REMARK                         _______ _______ _______ _____ _____    ______ ____
ROOT
ATOM      1  C   LIG    1       26.467   2.607  18.682  0.00  0.00    -0.037 C 
ATOM      2  C   LIG    1       25.880   2.004  17.591  0.00  0.00    -0.037 C 
ENDROOT
BRANCH   1   6
ATOM      3  C   LIG    1       28.863   0.504  21.738  0.00  0.00    +0.117 A 
ATOM      4  C   LIG    1       29.418   1.496  20.959  0.00  0.00    +0.046 A 
ATOM      5  C   LIG    1       28.638   2.144  19.987  0.00  0.00    +0.012 A 
ATOM      6  C   LIG    1       27.263   1.859  19.783  0.00  0.00    -0.021 A 
ATOM      7  C   LIG    1       26.739   0.891  20.657  0.00  0.00    +0.012 A 
ATOM      8  C   LIG    1       27.522   0.192  21.595  0.00  0.00    +0.046 A 
BRANCH   3   9
ATOM      9  O   LIG    1       29.657  -0.137  22.637  0.00  0.00    -0.507 OA
ATOM     10  H   LIG    1       29.877  -1.015  22.287  0.00  0.00    +0.292 HD
ENDBRANCH   3   9
ENDBRANCH   1   6
BRANCH   2  11
ATOM     11  C   LIG    1       25.296   2.766  16.447  0.00  0.00    -0.021 A 
ATOM     12  C   LIG    1       26.014   2.913  15.248  0.00  0.00    +0.012 A 
ATOM     13  C   LIG    1       25.450   3.565  14.145  0.00  0.00    +0.046 A 
ATOM     14  C   LIG    1       24.134   4.004  14.202  0.00  0.00    +0.117 A 
ATOM     15  C   LIG    1       23.390   3.851  15.365  0.00  0.00    +0.046 A 
ATOM     16  C   LIG    1       23.983   3.265  16.491  0.00  0.00    +0.012 A 
BRANCH  14  17
ATOM     17  O   LIG    1       23.604   4.574  13.084  0.00  0.00    -0.507 OA
ATOM     18  H   LIG    1       24.010   4.163  12.303  0.00  0.00    +0.292 HD
ENDBRANCH  14  17
ENDBRANCH   2  11
BRANCH   1  19
ATOM     19  C   LIG    1       26.472   4.131  18.970  0.00  0.00    +0.032 C 
ATOM     20  C   LIG    1       25.744   4.809  20.126  0.00  0.00    +0.009 C 
ENDBRANCH   1  19
BRANCH   2  21
ATOM     21  C   LIG    1       25.809   0.482  17.404  0.00  0.00    +0.032 C 
ATOM     22  C   LIG    1       27.030  -0.397  17.120  0.00  0.00    +0.009 C 
ENDBRANCH   2  21
TORSDOF 6
ENDMDL
MODEL 5
REMARK VINA RESULT:      -8.6      0.645      2.640
REMARK  Name = 
REMARK                            x       y       z     vdW  Elec       q    Type
REMARK                         _______ _______ _______ _____ _____    ______ ____
ROOT
ATOM      1  C   LIG    1       25.995   2.009  17.749  0.00  0.00    -0.037 C 
ATOM      2  C   LIG    1       26.581   2.655  18.815  0.00  0.00    -0.037 C 
ENDROOT
BRANCH   1   6
ATOM      3  C   LIG    1       24.113   3.983  14.277  0.00  0.00    +0.117 A 
ATOM      4  C   LIG    1       23.425   3.821  15.459  0.00  0.00    +0.046 A 
ATOM      5  C   LIG    1       24.043   3.181  16.547  0.00  0.00    +0.012 A 
ATOM      6  C   LIG    1       25.383   2.718  16.513  0.00  0.00    -0.021 A 
ATOM      7  C   LIG    1       26.053   2.979  15.304  0.00  0.00    +0.012 A 
ATOM      8  C   LIG    1       25.429   3.565  14.187  0.00  0.00    +0.046 A 
BRANCH   3   9
ATOM      9  O   LIG    1       23.472   4.564  13.226  0.00  0.00    -0.507 OA
ATOM     10  H   LIG    1       23.051   3.869  12.695  0.00  0.00    +0.292 HD
ENDBRANCH   3   9
ENDBRANCH   1   6
BRANCH   2  11
ATOM     11  C   LIG    1       27.338   1.947  19.890  0.00  0.00    -0.021 A 
ATOM     12  C   LIG    1       26.713   0.962  20.673  0.00  0.00    +0.012 A 
ATOM     13  C   LIG    1       27.431   0.244  21.636  0.00  0.00    +0.046 A 
ATOM     14  C   LIG    1       28.798   0.446  21.770  0.00  0.00    +0.117 A 
ATOM     15  C   LIG    1       29.450   1.395  20.994  0.00  0.00    +0.046 A 
ATOM     16  C   LIG    1       28.714   2.164  20.083  0.00  0.00    +0.012 A 
BRANCH  14  17
ATOM     17  O   LIG    1       29.470  -0.321  22.674  0.00  0.00    -0.507 OA
ATOM     18  H   LIG    1       29.805   0.254  23.382  0.00  0.00    +0.292 HD
ENDBRANCH  14  17
ENDBRANCH   2  11
BRANCH   1  19
ATOM     19  C   LIG    1       25.887   0.470  17.582  0.00  0.00    +0.032 C 
ATOM     20  C   LIG    1       27.043  -0.457  17.220  0.00  0.00    +0.009 C 
ENDBRANCH   1  19
BRANCH   2  21
ATOM     21  C   LIG    1       26.568   4.180  18.988  0.00  0.00    +0.032 C 
ATOM     22  C   LIG    1       25.726   4.909  20.040  0.00  0.00    +0.009 C 
ENDBRANCH   2  21
TORSDOF 6
ENDMDL
MODEL 6
REMARK VINA RESULT:      -8.6      1.839      7.752
REMARK  Name = 
REMARK                            x       y       z     vdW  Elec       q    Type
REMARK                         _______ _______ _______ _____ _____    ______ ____
ROOT
ATOM      1  C   LIG    1       27.710   0.023  20.400  0.00  0.00    -0.037 C 
ATOM      2  C   LIG    1       27.755   1.345  20.016  0.00  0.00    -0.037 C 
ENDROOT
BRANCH   1   6
ATOM      3  C   LIG    1       30.002  -1.623  23.797  0.00  0.00    +0.117 A 
ATOM      4  C   LIG    1       28.773  -1.032  23.990  0.00  0.00    +0.046 A 
ATOM      5  C   LIG    1       28.066  -0.508  22.895  0.00  0.00    +0.012 A 
ATOM      6  C   LIG    1       28.538  -0.590  21.559  0.00  0.00    -0.021 A 
ATOM      7  C   LIG    1       29.762  -1.268  21.421  0.00  0.00    +0.012 A 
ATOM      8  C   LIG    1       30.508  -1.746  22.515  0.00  0.00    +0.046 A 
BRANCH   3   9
ATOM      9  O   LIG    1       30.682  -2.078  24.884  0.00  0.00    -0.507 OA
ATOM     10  H   LIG    1       31.406  -1.461  25.079  0.00  0.00    +0.292 HD
ENDBRANCH   3   9
ENDBRANCH   1   6
BRANCH   2  11
ATOM     11  C   LIG    1       26.803   1.949  19.036  0.00  0.00    -0.021 A 
ATOM     12  C   LIG    1       26.267   3.228  19.258  0.00  0.00    +0.012 A 
ATOM     13  C   LIG    1       25.430   3.833  18.313  0.00  0.00    +0.046 A 
ATOM     14  C   LIG    1       25.185   3.198  17.103  0.00  0.00    +0.117 A 
ATOM     15  C   LIG    1       25.720   1.944  16.844  0.00  0.00    +0.046 A 
ATOM     16  C   LIG    1       26.497   1.310  17.822  0.00  0.00    +0.012 A 
BRANCH  14  17
ATOM     17  O   LIG    1       24.417   3.851  16.186  0.00  0.00    -0.507 OA
ATOM     18  H   LIG    1       24.559   4.808  16.285  0.00  0.00    +0.292 HD
ENDBRANCH  14  17
ENDBRANCH   2  11
BRANCH   1  19
ATOM     19  C   LIG    1       26.798  -1.063  19.772  0.00  0.00    +0.032 C 
ATOM     20  C   LIG    1       27.064  -1.778  18.451  0.00  0.00    +0.009 C 
ENDBRANCH   1  19
BRANCH   2  21
ATOM     21  C   LIG    1       28.751   2.359  20.595  0.00  0.00    +0.032 C 
ATOM     22  C   LIG    1       30.271   2.227  20.462  0.00  0.00    +0.009 C 
ENDBRANCH   2  21
TORSDOF 6
ENDMDL
MODEL 7
REMARK VINA RESULT:      -8.1      1.777      7.464
REMARK  Name = 
REMARK                            x       y       z     vdW  Elec       q    Type
REMARK                         _______ _______ _______ _____ _____    ______ ____
ROOT
ATOM      1  C   LIG    1       28.120   0.846  20.516  0.00  0.00    -0.037 C 
ATOM      2  C   LIG    1       27.004   0.626  19.740  0.00  0.00    -0.037 C 
ENDROOT
BRANCH   1   6
ATOM      3  C   LIG    1       29.819  -2.002  23.431  0.00  0.00    +0.117 A 
ATOM      4  C   LIG    1       28.774  -1.172  23.776  0.00  0.00    +0.046 A 
ATOM      5  C   LIG    1       28.257  -0.268  22.833  0.00  0.00    +0.012 A 
ATOM      6  C   LIG    1       28.731  -0.186  21.498  0.00  0.00    -0.021 A 
ATOM      7  C   LIG    1       29.747  -1.108  21.190  0.00  0.00    +0.012 A 
ATOM      8  C   LIG    1       30.314  -1.978  22.139  0.00  0.00    +0.046 A 
BRANCH   3   9
ATOM      9  O   LIG    1       30.329  -2.832  24.381  0.00  0.00    -0.507 OA
ATOM     10  H   LIG    1       29.701  -2.885  25.119  0.00  0.00    +0.292 HD
ENDBRANCH   3   9
ENDBRANCH   1   6
BRANCH   2  11
ATOM     11  C   LIG    1       26.557   1.556  18.659  0.00  0.00    -0.021 A 
ATOM     12  C   LIG    1       26.345   1.082  17.354  0.00  0.00    +0.012 A 
ATOM     13  C   LIG    1       25.860   1.928  16.349  0.00  0.00    +0.046 A 
ATOM     14  C   LIG    1       25.508   3.235  16.660  0.00  0.00    +0.117 A 
ATOM     15  C   LIG    1       25.683   3.726  17.947  0.00  0.00    +0.046 A 
ATOM     16  C   LIG    1       26.237   2.897  18.931  0.00  0.00    +0.012 A 
BRANCH  14  17
ATOM     17  O   LIG    1       24.979   4.004  15.667  0.00  0.00    -0.507 OA
ATOM     18  H   LIG    1       24.116   4.341  15.961  0.00  0.00    +0.292 HD
ENDBRANCH  14  17
ENDBRANCH   2  11
BRANCH   1  19
ATOM     19  C   LIG    1       28.978   2.139  20.506  0.00  0.00    +0.032 C 
ATOM     20  C   LIG    1       30.459   2.212  20.862  0.00  0.00    +0.009 C 
ENDBRANCH   1  19
BRANCH   2  21
ATOM     21  C   LIG    1       26.124  -0.626  19.861  0.00  0.00    +0.032 C 
ATOM     22  C   LIG    1       26.362  -1.912  19.064  0.00  0.00    +0.009 C 
ENDBRANCH   2  21
TORSDOF 6
ENDMDL
MODEL 8
REMARK VINA RESULT:      -8.1      1.405      6.969
REMARK  Name = 
REMARK                            x       y       z     vdW  Elec       q    Type
REMARK                         _______ _______ _______ _____ _____    ______ ____
ROOT
ATOM      1  C   LIG    1       27.262   1.545  20.073  0.00  0.00    -0.037 C 
ATOM      2  C   LIG    1       26.821   1.040  18.870  0.00  0.00    -0.037 C 
ENDROOT
BRANCH   1   6
ATOM      3  C   LIG    1       30.119  -0.525  22.727  0.00  0.00    +0.117 A 
ATOM      4  C   LIG    1       30.543   0.451  21.853  0.00  0.00    +0.046 A 
ATOM      5  C   LIG    1       29.616   1.090  21.012  0.00  0.00    +0.012 A 
ATOM      6  C   LIG    1       28.225   0.809  21.041  0.00  0.00    -0.021 A 
ATOM      7  C   LIG    1       27.848  -0.143  22.003  0.00  0.00    +0.012 A 
ATOM      8  C   LIG    1       28.772  -0.832  22.811  0.00  0.00    +0.046 A 
BRANCH   3   9
ATOM      9  O   LIG    1       31.049  -1.158  23.494  0.00  0.00    -0.507 OA
ATOM     10  H   LIG    1       31.865  -1.255  22.978  0.00  0.00    +0.292 HD
ENDBRANCH   3   9
ENDBRANCH   1   6
BRANCH   2  11
ATOM     11  C   LIG    1       26.060   1.847  17.870  0.00  0.00    -0.021 A 
ATOM     12  C   LIG    1       25.248   2.916  18.284  0.00  0.00    +0.012 A 
ATOM     13  C   LIG    1       24.585   3.722  17.352  0.00  0.00    +0.046 A 
ATOM     14  C   LIG    1       24.791   3.518  15.994  0.00  0.00    +0.117 A 
ATOM     15  C   LIG    1       25.606   2.485  15.552  0.00  0.00    +0.046 A 
ATOM     16  C   LIG    1       26.209   1.634  16.488  0.00  0.00    +0.012 A 
BRANCH  14  17
ATOM     17  O   LIG    1       24.178   4.367  15.122  0.00  0.00    -0.507 OA
ATOM     18  H   LIG    1       24.587   4.263  14.247  0.00  0.00    +0.292 HD
ENDBRANCH  14  17
ENDBRANCH   2  11
BRANCH   1  19
ATOM     19  C   LIG    1       26.909   2.944  20.642  0.00  0.00    +0.032 C 
ATOM     20  C   LIG    1       25.650   3.277  21.437  0.00  0.00    +0.009 C 
ENDBRANCH   1  19
BRANCH   2  21
ATOM     21  C   LIG    1       27.109  -0.392  18.398  0.00  0.00    +0.032 C 
ATOM     22  C   LIG    1       26.431  -1.633  18.984  0.00  0.00    +0.009 C 
ENDBRANCH   2  21
TORSDOF 6
ENDMDL
MODEL 9
REMARK VINA RESULT:      -8.0      1.853      3.945
REMARK  Name = 
REMARK                            x       y       z     vdW  Elec       q    Type
REMARK                         _______ _______ _______ _____ _____    ______ ____
ROOT
ATOM      1  C   LIG    1       27.210   0.630  20.099  0.00  0.00    -0.037 C 
ATOM      2  C   LIG    1       28.287   1.008  20.870  0.00  0.00    -0.037 C 
ENDROOT
BRANCH   1   6
ATOM      3  C   LIG    1       25.525   3.046  16.810  0.00  0.00    +0.117 A 
ATOM      4  C   LIG    1       25.715   3.587  18.062  0.00  0.00    +0.046 A 
ATOM      5  C   LIG    1       26.245   2.795  19.095  0.00  0.00    +0.012 A 
ATOM      6  C   LIG    1       26.645   1.447  18.908  0.00  0.00    -0.021 A 
ATOM      7  C   LIG    1       26.493   0.977  17.592  0.00  0.00    +0.012 A 
ATOM      8  C   LIG    1       25.910   1.739  16.563  0.00  0.00    +0.046 A 
BRANCH   3   9
ATOM      9  O   LIG    1       24.965   3.824  15.844  0.00  0.00    -0.507 OA
ATOM     10  H   LIG    1       25.335   3.567  14.984  0.00  0.00    +0.292 HD
ENDBRANCH   3   9
ENDBRANCH   1   6
BRANCH   2  11
ATOM     11  C   LIG    1       28.934   0.111  21.875  0.00  0.00    -0.021 A 
ATOM     12  C   LIG    1       30.322  -0.099  21.854  0.00  0.00    +0.012 A 
ATOM     13  C   LIG    1       30.948  -0.881  22.831  0.00  0.00    +0.046 A 
ATOM     14  C   LIG    1       30.203  -1.394  23.885  0.00  0.00    +0.117 A 
ATOM     15  C   LIG    1       28.832  -1.183  23.947  0.00  0.00    +0.046 A 
ATOM     16  C   LIG    1       28.199  -0.462  22.927  0.00  0.00    +0.012 A 
BRANCH  14  17
ATOM     17  O   LIG    1       30.863  -2.094  24.850  0.00  0.00    -0.507 OA
ATOM     18  H   LIG    1       31.108  -2.963  24.491  0.00  0.00    +0.292 HD
ENDBRANCH  14  17
ENDBRANCH   2  11
BRANCH   1  19
ATOM     19  C   LIG    1       26.412  -0.691  20.259  0.00  0.00    +0.032 C 
ATOM     20  C   LIG    1       26.334  -1.802  19.218  0.00  0.00    +0.009 C 
ENDBRANCH   1  19
BRANCH   2  21
ATOM     21  C   LIG    1       28.979   2.372  20.744  0.00  0.00    +0.032 C 
ATOM     22  C   LIG    1       30.214   2.622  19.874  0.00  0.00    +0.009 C 
ENDBRANCH   2  21
TORSDOF 6
ENDMDL
