MODEL 1
REMARK VINA RESULT:      -9.3      0.000      0.000
REMARK  Name = 
REMARK                            x       y       z     vdW  Elec       q    Type
REMARK                         _______ _______ _______ _____ _____    ______ ____
ROOT
ATOM      1  C   LIG    1        4.200  18.139  30.874  0.00  0.00    -0.037 C 
ATOM      2  C   LIG    1        3.727  19.010  29.917  0.00  0.00    -0.037 C 
ENDROOT
BRANCH   1   6
ATOM      3  C   LIG    1        1.614  15.946  33.702  0.00  0.00    +0.117 A 
ATOM      4  C   LIG    1        1.967  15.395  32.490  0.00  0.00    +0.046 A 
ATOM      5  C   LIG    1        2.783  16.117  31.603  0.00  0.00    +0.012 A 
ATOM      6  C   LIG    1        3.315  17.396  31.908  0.00  0.00    -0.021 A 
ATOM      7  C   LIG    1        2.978  17.871  33.187  0.00  0.00    +0.012 A 
ATOM      8  C   LIG    1        2.114  17.186  34.062  0.00  0.00    +0.046 A 
BRANCH   3   9
ATOM      9  O   LIG    1        0.783  15.243  34.518  0.00  0.00    -0.507 OA
ATOM     10  H   LIG    1        0.835  15.616  35.412  0.00  0.00    +0.292 HD
ENDBRANCH   3   9
ENDBRANCH   1   6
BRANCH   2  11
ATOM     11  C   LIG    1        4.571  19.553  28.810  0.00  0.00    -0.021 A 
ATOM     12  C   LIG    1        5.293  20.745  28.983  0.00  0.00    +0.012 A 
ATOM     13  C   LIG    1        6.141  21.227  27.979  0.00  0.00    +0.046 A 
ATOM     14  C   LIG    1        6.337  20.480  26.825  0.00  0.00    +0.117 A 
ATOM     15  C   LIG    1        5.656  19.285  26.635  0.00  0.00    +0.046 A 
ATOM     16  C   LIG    1        4.753  18.844  27.610  0.00  0.00    +0.012 A 
BRANCH  14  17
ATOM     17  O   LIG    1        7.221  20.954  25.902  0.00  0.00    -0.507 OA
ATOM     18  H   LIG    1        8.078  20.518  26.041  0.00  0.00    +0.292 HD
ENDBRANCH  14  17
ENDBRANCH   2  11
BRANCH   1  19
ATOM     19  C   LIG    1        5.684  17.722  31.051  0.00  0.00    +0.032 C 
ATOM     20  C   LIG    1        6.831  18.673  31.372  0.00  0.00    +0.009 C 
ENDBRANCH   1  19
BRANCH   2  21
ATOM     21  C   LIG    1        2.266  19.476  29.847  0.00  0.00    +0.032 C 
ATOM     22  C   LIG    1        1.636  20.446  30.850  0.00  0.00    +0.009 C 
ENDBRANCH   2  21
TORSDOF 6
ENDMDL
MODEL 2
REMARK VINA RESULT:      -9.2      0.108      7.124
REMARK  Name = 
REMARK                            x       y       z     vdW  Elec       q    Type
REMARK                         _______ _______ _______ _____ _____    ______ ____
ROOT
ATOM      1  C   LIG    1        3.797  18.972  29.954  0.00  0.00    -0.037 C 
ATOM      2  C   LIG    1        4.208  18.080  30.920  0.00  0.00    -0.037 C 
ENDROOT
BRANCH   1   6
ATOM      3  C   LIG    1        6.422  20.504  26.752  0.00  0.00    +0.117 A 
ATOM      4  C   LIG    1        5.734  19.321  26.599  0.00  0.00    +0.046 A 
ATOM      5  C   LIG    1        4.911  18.849  27.636  0.00  0.00    +0.012 A 
ATOM      6  C   LIG    1        4.710  19.560  28.847  0.00  0.00    -0.021 A 
ATOM      7  C   LIG    1        5.382  20.793  28.911  0.00  0.00    +0.012 A 
ATOM      8  C   LIG    1        6.254  21.250  27.906  0.00  0.00    +0.046 A 
BRANCH   3   9
ATOM      9  O   LIG    1        7.248  20.910  25.749  0.00  0.00    -0.507 OA
ATOM     10  H   LIG    1        6.767  20.854  24.908  0.00  0.00    +0.292 HD
ENDBRANCH   3   9
ENDBRANCH   1   6
BRANCH   2  11
ATOM     11  C   LIG    1        3.268  17.377  31.844  0.00  0.00    -0.021 A 
ATOM     12  C   LIG    1        2.785  16.095  31.531  0.00  0.00    +0.012 A 
ATOM     13  C   LIG    1        1.959  15.399  32.421  0.00  0.00    +0.046 A 
ATOM     14  C   LIG    1        1.673  15.943  33.665  0.00  0.00    +0.117 A 
ATOM     15  C   LIG    1        2.155  17.198  34.014  0.00  0.00    +0.046 A 
ATOM     16  C   LIG    1        2.920  17.923  33.091  0.00  0.00    +0.012 A 
BRANCH  14  17
ATOM     17  O   LIG    1        0.919  15.202  34.526  0.00  0.00    -0.507 OA
ATOM     18  H   LIG    1        0.744  15.733  35.321  0.00  0.00    +0.292 HD
ENDBRANCH  14  17
ENDBRANCH   2  11
BRANCH   1  19
ATOM     19  C   LIG    1        2.349  19.502  29.781  0.00  0.00    +0.032 C 
ATOM     20  C   LIG    1        1.635  20.438  30.751  0.00  0.00    +0.009 C 
ENDBRANCH   1  19
BRANCH   2  21
ATOM     21  C   LIG    1        5.673  17.666  31.118  0.00  0.00    +0.032 C 
ATOM     22  C   LIG    1        6.804  18.657  31.405  0.00  0.00    +0.009 C 
ENDBRANCH   2  21
TORSDOF 6
ENDMDL
MODEL 3
REMARK VINA RESULT:      -9.1      1.937      7.674
REMARK  Name = 
REMARK                            x       y       z     vdW  Elec       q    Type
REMARK                         _______ _______ _______ _____ _____    ______ ____
ROOT
ATOM      1  C   LIG    1        5.681  19.910  27.623  0.00  0.00    -0.037 C 
ATOM      2  C   LIG    1        5.639  19.793  28.994  0.00  0.00    -0.037 C 
ENDROOT
BRANCH   1   6
ATOM      3  C   LIG    1        8.853  21.999  25.372  0.00  0.00    +0.117 A 
ATOM      4  C   LIG    1        8.658  20.643  25.230  0.00  0.00    +0.046 A 
ATOM      5  C   LIG    1        7.648  19.999  25.964  0.00  0.00    +0.012 A 
ATOM      6  C   LIG    1        6.765  20.689  26.834  0.00  0.00    -0.021 A 
ATOM      7  C   LIG    1        6.969  22.079  26.879  0.00  0.00    +0.012 A 
ATOM      8  C   LIG    1        8.014  22.728  26.195  0.00  0.00    +0.046 A 
BRANCH   3   9
ATOM      9  O   LIG    1        9.870  22.584  24.683  0.00  0.00    -0.507 OA
ATOM     10  H   LIG    1        9.805  22.325  23.750  0.00  0.00    +0.292 HD
ENDBRANCH   3   9
ENDBRANCH   1   6
BRANCH   2  11
ATOM     11  C   LIG    1        4.705  18.875  29.713  0.00  0.00    -0.021 A 
ATOM     12  C   LIG    1        5.113  17.578  30.068  0.00  0.00    +0.012 A 
ATOM     13  C   LIG    1        4.272  16.733  30.802  0.00  0.00    +0.046 A 
ATOM     14  C   LIG    1        3.048  17.205  31.257  0.00  0.00    +0.117 A 
ATOM     15  C   LIG    1        2.627  18.490  30.944  0.00  0.00    +0.046 A 
ATOM     16  C   LIG    1        3.440  19.307  30.147  0.00  0.00    +0.012 A 
BRANCH  14  17
ATOM     17  O   LIG    1        2.290  16.371  32.024  0.00  0.00    -0.507 OA
ATOM     18  H   LIG    1        2.814  16.093  32.793  0.00  0.00    +0.292 HD
ENDBRANCH  14  17
ENDBRANCH   2  11
BRANCH   1  19
ATOM     19  C   LIG    1        4.682  19.250  26.636  0.00  0.00    +0.032 C 
ATOM     20  C   LIG    1        4.510  17.748  26.433  0.00  0.00    +0.009 C 
ENDBRANCH   1  19
BRANCH   2  21
ATOM     21  C   LIG    1        6.585  20.552  29.936  0.00  0.00    +0.032 C 
ATOM     22  C   LIG    1        8.075  20.232  30.082  0.00  0.00    +0.009 C 
ENDBRANCH   2  21
TORSDOF 6
ENDMDL
MODEL 4
REMARK VINA RESULT:      -9.0      1.962      3.427
REMARK  Name = 
REMARK                            x       y       z     vdW  Elec       q    Type
REMARK                         _______ _______ _______ _____ _____    ______ ____
ROOT
ATOM      1  C   LIG    1        5.749  19.827  28.889  0.00  0.00    -0.037 C 
ATOM      2  C   LIG    1        5.686  19.977  27.521  0.00  0.00    -0.037 C 
ENDROOT
BRANCH   1   6
ATOM      3  C   LIG    1        3.101  17.169  31.216  0.00  0.00    +0.117 A 
ATOM      4  C   LIG    1        4.370  16.770  30.859  0.00  0.00    +0.046 A 
ATOM      5  C   LIG    1        5.191  17.630  30.110  0.00  0.00    +0.012 A 
ATOM      6  C   LIG    1        4.795  18.938  29.726  0.00  0.00    -0.021 A 
ATOM      7  C   LIG    1        3.519  19.311  30.183  0.00  0.00    +0.012 A 
ATOM      8  C   LIG    1        2.663  18.439  30.883  0.00  0.00    +0.046 A 
BRANCH   3   9
ATOM      9  O   LIG    1        2.313  16.295  31.900  0.00  0.00    -0.507 OA
ATOM     10  H   LIG    1        1.444  16.703  32.040  0.00  0.00    +0.292 HD
ENDBRANCH   3   9
ENDBRANCH   1   6
BRANCH   2  11
ATOM     11  C   LIG    1        6.736  20.676  26.721  0.00  0.00    -0.021 A 
ATOM     12  C   LIG    1        6.935  22.059  26.859  0.00  0.00    +0.012 A 
ATOM     13  C   LIG    1        7.961  22.713  26.166  0.00  0.00    +0.046 A 
ATOM     14  C   LIG    1        8.848  21.976  25.392  0.00  0.00    +0.117 A 
ATOM     15  C   LIG    1        8.693  20.603  25.255  0.00  0.00    +0.046 A 
ATOM     16  C   LIG    1        7.620  19.964  25.891  0.00  0.00    +0.012 A 
BRANCH  14  17
ATOM     17  O   LIG    1        9.872  22.643  24.788  0.00  0.00    -0.507 OA
ATOM     18  H   LIG    1        9.983  23.504  25.225  0.00  0.00    +0.292 HD
ENDBRANCH  14  17
ENDBRANCH   2  11
BRANCH   1  19
ATOM     19  C   LIG    1        6.807  20.483  29.815  0.00  0.00    +0.032 C 
ATOM     20  C   LIG    1        8.303  20.185  29.789  0.00  0.00    +0.009 C 
ENDBRANCH   1  19
BRANCH   2  21
ATOM     21  C   LIG    1        4.557  19.395  26.659  0.00  0.00    +0.032 C 
ATOM     22  C   LIG    1        4.370  17.897  26.403  0.00  0.00    +0.009 C 
ENDBRANCH   2  21
TORSDOF 6
ENDMDL
MODEL 5
REMARK VINA RESULT:      -8.7      2.153      7.331
REMARK  Name = 
REMARK                            x       y       z     vdW  Elec       q    Type
REMARK                         _______ _______ _______ _____ _____    ______ ____
ROOT
ATOM      1  C   LIG    1        5.760  20.347  28.434  0.00  0.00    -0.037 C 
ATOM      2  C   LIG    1        4.465  19.934  28.211  0.00  0.00    -0.037 C 
ENDROOT
BRANCH   1   6
ATOM      3  C   LIG    1        8.578  21.694  25.314  0.00  0.00    +0.117 A 
ATOM      4  C   LIG    1        8.291  20.357  25.481  0.00  0.00    +0.046 A 
ATOM      5  C   LIG    1        7.397  19.952  26.487  0.00  0.00    +0.012 A 
ATOM      6  C   LIG    1        6.723  20.867  27.336  0.00  0.00    -0.021 A 
ATOM      7  C   LIG    1        7.004  22.218  27.068  0.00  0.00    +0.012 A 
ATOM      8  C   LIG    1        7.941  22.635  26.103  0.00  0.00    +0.046 A 
BRANCH   3   9
ATOM      9  O   LIG    1        9.484  22.050  24.363  0.00  0.00    -0.507 OA
ATOM     10  H   LIG    1        9.006  22.312  23.560  0.00  0.00    +0.292 HD
ENDBRANCH   3   9
ENDBRANCH   1   6
BRANCH   2  11
ATOM     11  C   LIG    1        3.498  19.631  29.309  0.00  0.00    -0.021 A 
ATOM     12  C   LIG    1        2.644  20.631  29.804  0.00  0.00    +0.012 A 
ATOM     13  C   LIG    1        1.687  20.342  30.783  0.00  0.00    +0.046 A 
ATOM     14  C   LIG    1        1.519  19.035  31.219  0.00  0.00    +0.117 A 
ATOM     15  C   LIG    1        2.332  18.020  30.731  0.00  0.00    +0.046 A 
ATOM     16  C   LIG    1        3.337  18.326  29.806  0.00  0.00    +0.012 A 
BRANCH  14  17
ATOM     17  O   LIG    1        0.532  18.787  32.125  0.00  0.00    -0.507 OA
ATOM     18  H   LIG    1       -0.268  18.515  31.646  0.00  0.00    +0.292 HD
ENDBRANCH  14  17
ENDBRANCH   2  11
BRANCH   1  19
ATOM     19  C   LIG    1        6.457  20.403  29.819  0.00  0.00    +0.032 C 
ATOM     20  C   LIG    1        6.868  19.189  30.645  0.00  0.00    +0.009 C 
ENDBRANCH   1  19
BRANCH   2  21
ATOM     21  C   LIG    1        3.852  19.794  26.810  0.00  0.00    +0.032 C 
ATOM     22  C   LIG    1        3.755  18.465  26.056  0.00  0.00    +0.009 C 
ENDBRANCH   2  21
TORSDOF 6
ENDMDL
MODEL 6
REMARK VINA RESULT:      -8.7      2.094      4.092
REMARK  Name = 
REMARK                            x       y       z     vdW  Elec       q    Type
REMARK                         _______ _______ _______ _____ _____    ______ ____
ROOT
ATOM      1  C   LIG    1        5.087  19.619  27.841  0.00  0.00    -0.037 C 
ATOM      2  C   LIG    1        6.406  19.978  28.011  0.00  0.00    -0.037 C 
ENDROOT
BRANCH   1   6
ATOM      3  C   LIG    1        2.502  18.043  31.055  0.00  0.00    +0.117 A 
ATOM      4  C   LIG    1        2.376  19.342  30.616  0.00  0.00    +0.046 A 
ATOM      5  C   LIG    1        3.216  19.823  29.598  0.00  0.00    +0.012 A 
ATOM      6  C   LIG    1        4.185  19.016  28.949  0.00  0.00    -0.021 A 
ATOM      7  C   LIG    1        4.215  17.682  29.392  0.00  0.00    +0.012 A 
ATOM      8  C   LIG    1        3.421  17.202  30.450  0.00  0.00    +0.046 A 
BRANCH   3   9
ATOM      9  O   LIG    1        1.706  17.621  32.075  0.00  0.00    -0.507 OA
ATOM     10  H   LIG    1        1.901  18.153  32.863  0.00  0.00    +0.292 HD
ENDBRANCH   3   9
ENDBRANCH   1   6
BRANCH   2  11
ATOM     11  C   LIG    1        7.189  20.739  26.992  0.00  0.00    -0.021 A 
ATOM     12  C   LIG    1        7.271  22.140  27.056  0.00  0.00    +0.012 A 
ATOM     13  C   LIG    1        8.057  22.859  26.148  0.00  0.00    +0.046 A 
ATOM     14  C   LIG    1        8.832  22.179  25.218  0.00  0.00    +0.117 A 
ATOM     15  C   LIG    1        8.792  20.793  25.145  0.00  0.00    +0.046 A 
ATOM     16  C   LIG    1        7.947  20.082  26.007  0.00  0.00    +0.012 A 
BRANCH  14  17
ATOM     17  O   LIG    1        9.633  22.915  24.397  0.00  0.00    -0.507 OA
ATOM     18  H   LIG    1        9.184  23.024  23.542  0.00  0.00    +0.292 HD
ENDBRANCH  14  17
ENDBRANCH   2  11
BRANCH   1  19
ATOM     19  C   LIG    1        4.271  19.797  26.534  0.00  0.00    +0.032 C 
ATOM     20  C   LIG    1        3.503  18.689  25.820  0.00  0.00    +0.009 C 
ENDBRANCH   1  19
BRANCH   2  21
ATOM     21  C   LIG    1        7.204  19.684  29.289  0.00  0.00    +0.032 C 
ATOM     22  C   LIG    1        7.091  20.514  30.571  0.00  0.00    +0.009 C 
ENDBRANCH   2  21
TORSDOF 6
ENDMDL
MODEL 7
REMARK VINA RESULT:      -8.7      0.646      6.709
REMARK  Name = 
REMARK                            x       y       z     vdW  Elec       q    Type
REMARK                         _______ _______ _______ _____ _____    ______ ____
ROOT
ATOM      1  C   LIG    1        4.503  18.271  30.155  0.00  0.00    -0.037 C 
ATOM      2  C   LIG    1        3.180  18.280  30.539  0.00  0.00    -0.037 C 
ENDROOT
BRANCH   1   6
ATOM      3  C   LIG    1        6.351  20.967  27.187  0.00  0.00    +0.117 A 
ATOM      4  C   LIG    1        5.886  19.723  26.822  0.00  0.00    +0.046 A 
ATOM      5  C   LIG    1        5.309  18.880  27.787  0.00  0.00    +0.012 A 
ATOM      6  C   LIG    1        5.136  19.260  29.143  0.00  0.00    -0.021 A 
ATOM      7  C   LIG    1        5.564  20.567  29.434  0.00  0.00    +0.012 A 
ATOM      8  C   LIG    1        6.196  21.400  28.493  0.00  0.00    +0.046 A 
BRANCH   3   9
ATOM      9  O   LIG    1        6.947  21.742  26.240  0.00  0.00    -0.507 OA
ATOM     10  H   LIG    1        7.596  21.203  25.761  0.00  0.00    +0.292 HD
ENDBRANCH   3   9
ENDBRANCH   1   6
BRANCH   2  11
ATOM     11  C   LIG    1        2.644  17.451  31.661  0.00  0.00    -0.021 A 
ATOM     12  C   LIG    1        2.059  18.062  32.782  0.00  0.00    +0.012 A 
ATOM     13  C   LIG    1        1.491  17.295  33.807  0.00  0.00    +0.046 A 
ATOM     14  C   LIG    1        1.432  15.914  33.682  0.00  0.00    +0.117 A 
ATOM     15  C   LIG    1        1.980  15.282  32.574  0.00  0.00    +0.046 A 
ATOM     16  C   LIG    1        2.613  16.048  31.586  0.00  0.00    +0.012 A 
BRANCH  14  17
ATOM     17  O   LIG    1        0.812  15.211  34.672  0.00  0.00    -0.507 OA
ATOM     18  H   LIG    1        0.377  15.839  35.273  0.00  0.00    +0.292 HD
ENDBRANCH  14  17
ENDBRANCH   2  11
BRANCH   1  19
ATOM     19  C   LIG    1        5.588  17.305  30.699  0.00  0.00    +0.032 C 
ATOM     20  C   LIG    1        6.929  17.732  31.287  0.00  0.00    +0.009 C 
ENDBRANCH   1  19
BRANCH   2  21
ATOM     21  C   LIG    1        2.119  19.183  29.895  0.00  0.00    +0.032 C 
ATOM     22  C   LIG    1        1.654  20.511  30.498  0.00  0.00    +0.009 C 
ENDBRANCH   2  21
TORSDOF 6
ENDMDL
MODEL 8
REMARK VINA RESULT:      -8.6      0.474      7.140
REMARK  Name = 
REMARK                            x       y       z     vdW  Elec       q    Type
REMARK                         _______ _______ _______ _____ _____    ______ ____
ROOT
ATOM      1  C   LIG    1        3.962  18.981  30.194  0.00  0.00    -0.037 C 
ATOM      2  C   LIG    1        4.348  17.908  30.967  0.00  0.00    -0.037 C 
ENDROOT
BRANCH   1   6
ATOM      3  C   LIG    1        6.342  20.841  26.974  0.00  0.00    +0.117 A 
ATOM      4  C   LIG    1        6.345  21.361  28.249  0.00  0.00    +0.046 A 
ATOM      5  C   LIG    1        5.573  20.757  29.255  0.00  0.00    +0.012 A 
ATOM      6  C   LIG    1        4.801  19.586  29.039  0.00  0.00    -0.021 A 
ATOM      7  C   LIG    1        4.898  19.064  27.737  0.00  0.00    +0.012 A 
ATOM      8  C   LIG    1        5.620  19.691  26.705  0.00  0.00    +0.046 A 
BRANCH   3   9
ATOM      9  O   LIG    1        7.063  21.477  26.010  0.00  0.00    -0.507 OA
ATOM     10  H   LIG    1        7.162  22.409  26.260  0.00  0.00    +0.292 HD
ENDBRANCH   3   9
ENDBRANCH   1   6
BRANCH   2  11
ATOM     11  C   LIG    1        3.439  17.222  31.933  0.00  0.00    -0.021 A 
ATOM     12  C   LIG    1        3.104  17.832  33.153  0.00  0.00    +0.012 A 
ATOM     13  C   LIG    1        2.199  17.230  34.036  0.00  0.00    +0.046 A 
ATOM     14  C   LIG    1        1.560  16.053  33.672  0.00  0.00    +0.117 A 
ATOM     15  C   LIG    1        1.852  15.437  32.462  0.00  0.00    +0.046 A 
ATOM     16  C   LIG    1        2.813  16.004  31.614  0.00  0.00    +0.012 A 
BRANCH  14  17
ATOM     17  O   LIG    1        0.638  15.536  34.532  0.00  0.00    -0.507 OA
ATOM     18  H   LIG    1       -0.205  15.432  34.059  0.00  0.00    +0.292 HD
ENDBRANCH  14  17
ENDBRANCH   2  11
BRANCH   1  19
ATOM     19  C   LIG    1        2.612  19.735  30.318  0.00  0.00    +0.032 C 
ATOM     20  C   LIG    1        1.234  19.087  30.241  0.00  0.00    +0.009 C 
ENDBRANCH   1  19
BRANCH   2  21
ATOM     21  C   LIG    1        5.738  17.261  30.881  0.00  0.00    +0.032 C 
ATOM     22  C   LIG    1        7.028  17.961  31.317  0.00  0.00    +0.009 C 
ENDBRANCH   2  21
TORSDOF 6
ENDMDL
MODEL 9
REMARK VINA RESULT:      -8.4      1.747      7.399
REMARK  Name = 
REMARK                            x       y       z     vdW  Elec       q    Type
REMARK                         _______ _______ _______ _____ _____    ______ ____
ROOT
ATOM      1  C   LIG    1        5.930  19.833  28.501  0.00  0.00    -0.037 C 
ATOM      2  C   LIG    1        4.930  18.921  28.248  0.00  0.00    -0.037 C 
ENDROOT
BRANCH   1   6
ATOM      3  C   LIG    1        8.321  21.897  25.416  0.00  0.00    +0.117 A 
ATOM      4  C   LIG    1        7.630  22.609  26.371  0.00  0.00    +0.046 A 
ATOM      5  C   LIG    1        6.869  21.930  27.338  0.00  0.00    +0.012 A 
ATOM      6  C   LIG    1        6.802  20.515  27.415  0.00  0.00    -0.021 A 
ATOM      7  C   LIG    1        7.586  19.847  26.458  0.00  0.00    +0.012 A 
ATOM      8  C   LIG    1        8.306  20.513  25.449  0.00  0.00    +0.046 A 
BRANCH   3   9
ATOM      9  O   LIG    1        9.010  22.585  24.466  0.00  0.00    -0.507 OA
ATOM     10  H   LIG    1        9.164  21.999  23.707  0.00  0.00    +0.292 HD
ENDBRANCH   3   9
ENDBRANCH   1   6
BRANCH   2  11
ATOM     11  C   LIG    1        3.976  18.435  29.290  0.00  0.00    -0.021 A 
ATOM     12  C   LIG    1        4.261  17.279  30.034  0.00  0.00    +0.012 A 
ATOM     13  C   LIG    1        3.409  16.853  31.060  0.00  0.00    +0.046 A 
ATOM     14  C   LIG    1        2.307  17.624  31.405  0.00  0.00    +0.117 A 
ATOM     15  C   LIG    1        2.012  18.786  30.704  0.00  0.00    +0.046 A 
ATOM     16  C   LIG    1        2.826  19.168  29.630  0.00  0.00    +0.012 A 
BRANCH  14  17
ATOM     17  O   LIG    1        1.541  17.207  32.453  0.00  0.00    -0.507 OA
ATOM     18  H   LIG    1        2.081  17.230  33.261  0.00  0.00    +0.292 HD
ENDBRANCH  14  17
ENDBRANCH   2  11
BRANCH   1  19
ATOM     19  C   LIG    1        6.323  20.366  29.904  0.00  0.00    +0.032 C 
ATOM     20  C   LIG    1        7.044  19.560  30.980  0.00  0.00    +0.009 C 
ENDBRANCH   1  19
BRANCH   2  21
ATOM     21  C   LIG    1        4.648  18.342  26.854  0.00  0.00    +0.032 C 
ATOM     22  C   LIG    1        3.634  18.940  25.875  0.00  0.00    +0.009 C 
ENDBRANCH   2  21
TORSDOF 6
ENDMDL
