MODEL 1
REMARK VINA RESULT:      -8.8      0.000      0.000
REMARK  Name = 
REMARK                            x       y       z     vdW  Elec       q    Type
REMARK                         _______ _______ _______ _____ _____    ______ ____
ROOT
ATOM      1  C   LIG    1       21.662 -16.147  18.308  0.00  0.00    -0.037 C 
ATOM      2  C   LIG    1       22.717 -17.031  18.345  0.00  0.00    -0.037 C 
ENDROOT
BRANCH   1   6
ATOM      3  C   LIG    1       17.395 -17.108  18.910  0.00  0.00    +0.117 A 
ATOM      4  C   LIG    1       17.790 -15.848  18.517  0.00  0.00    +0.046 A 
ATOM      5  C   LIG    1       19.154 -15.564  18.340  0.00  0.00    +0.012 A 
ATOM      6  C   LIG    1       20.174 -16.536  18.507  0.00  0.00    -0.021 A 
ATOM      7  C   LIG    1       19.701 -17.818  18.837  0.00  0.00    +0.012 A 
ATOM      8  C   LIG    1       18.344 -18.102  19.074  0.00  0.00    +0.046 A 
BRANCH   3   9
ATOM      9  O   LIG    1       16.070 -17.338  19.119  0.00  0.00    -0.507 OA
ATOM     10  H   LIG    1       15.958 -18.250  19.430  0.00  0.00    +0.292 HD
ENDBRANCH   3   9
ENDBRANCH   1   6
BRANCH   2  11
ATOM     11  C   LIG    1       24.148 -16.604  18.352  0.00  0.00    -0.021 A 
ATOM     12  C   LIG    1       24.845 -16.464  19.563  0.00  0.00    +0.012 A 
ATOM     13  C   LIG    1       26.205 -16.131  19.579  0.00  0.00    +0.046 A 
ATOM     14  C   LIG    1       26.900 -16.014  18.383  0.00  0.00    +0.117 A 
ATOM     15  C   LIG    1       26.244 -16.170  17.169  0.00  0.00    +0.046 A 
ATOM     16  C   LIG    1       24.868 -16.430  17.157  0.00  0.00    +0.012 A 
BRANCH  14  17
ATOM     17  O   LIG    1       28.236 -15.754  18.445  0.00  0.00    -0.507 OA
ATOM     18  H   LIG    1       28.466 -15.134  17.733  0.00  0.00    +0.292 HD
ENDBRANCH  14  17
ENDBRANCH   2  11
BRANCH   1  19
ATOM     19  C   LIG    1       21.784 -14.613  18.105  0.00  0.00    +0.032 C 
ATOM     20  C   LIG    1       21.844 -13.908  16.754  0.00  0.00    +0.009 C 
ENDBRANCH   1  19
BRANCH   2  21
ATOM     21  C   LIG    1       22.540 -18.553  18.441  0.00  0.00    +0.032 C 
ATOM     22  C   LIG    1       23.650 -19.559  18.123  0.00  0.00    +0.009 C 
ENDBRANCH   2  21
TORSDOF 6
ENDMDL
MODEL 2
REMARK VINA RESULT:      -8.7      0.335      1.128
REMARK  Name = 
REMARK                            x       y       z     vdW  Elec       q    Type
REMARK                         _______ _______ _______ _____ _____    ______ ____
ROOT
ATOM      1  C   LIG    1       21.975 -16.180  18.425  0.00  0.00    -0.037 C 
ATOM      2  C   LIG    1       22.968 -17.135  18.416  0.00  0.00    -0.037 C 
ENDROOT
BRANCH   1   6
ATOM      3  C   LIG    1       17.637 -16.892  18.842  0.00  0.00    +0.117 A 
ATOM      4  C   LIG    1       18.121 -15.654  18.480  0.00  0.00    +0.046 A 
ATOM      5  C   LIG    1       19.507 -15.450  18.362  0.00  0.00    +0.012 A 
ATOM      6  C   LIG    1       20.460 -16.482  18.560  0.00  0.00    -0.021 A 
ATOM      7  C   LIG    1       19.899 -17.737  18.856  0.00  0.00    +0.012 A 
ATOM      8  C   LIG    1       18.518 -17.942  19.034  0.00  0.00    +0.046 A 
BRANCH   3   9
ATOM      9  O   LIG    1       16.294 -17.045  18.994  0.00  0.00    -0.507 OA
ATOM     10  H   LIG    1       15.990 -17.747  18.397  0.00  0.00    +0.292 HD
ENDBRANCH   3   9
ENDBRANCH   1   6
BRANCH   2  11
ATOM     11  C   LIG    1       24.424 -16.807  18.489  0.00  0.00    -0.021 A 
ATOM     12  C   LIG    1       25.161 -16.572  17.317  0.00  0.00    +0.012 A 
ATOM     13  C   LIG    1       26.509 -16.197  17.376  0.00  0.00    +0.046 A 
ATOM     14  C   LIG    1       27.109 -15.975  18.608  0.00  0.00    +0.117 A 
ATOM     15  C   LIG    1       26.400 -16.175  19.784  0.00  0.00    +0.046 A 
ATOM     16  C   LIG    1       25.073 -16.622  19.722  0.00  0.00    +0.012 A 
BRANCH  14  17
ATOM     17  O   LIG    1       28.403 -15.547  18.618  0.00  0.00    -0.507 OA
ATOM     18  H   LIG    1       28.477 -14.794  19.227  0.00  0.00    +0.292 HD
ENDBRANCH  14  17
ENDBRANCH   2  11
BRANCH   1  19
ATOM     19  C   LIG    1       22.203 -14.648  18.349  0.00  0.00    +0.032 C 
ATOM     20  C   LIG    1       22.123 -13.811  17.076  0.00  0.00    +0.009 C 
ENDBRANCH   1  19
BRANCH   2  21
ATOM     21  C   LIG    1       22.689 -18.644  18.386  0.00  0.00    +0.032 C 
ATOM     22  C   LIG    1       23.787 -19.711  18.360  0.00  0.00    +0.009 C 
ENDBRANCH   2  21
TORSDOF 6
ENDMDL
MODEL 3
REMARK VINA RESULT:      -8.5      0.143      7.183
REMARK  Name = 
REMARK                            x       y       z     vdW  Elec       q    Type
REMARK                         _______ _______ _______ _____ _____    ______ ____
ROOT
ATOM      1  C   LIG    1       22.704 -17.001  18.327  0.00  0.00    -0.037 C 
ATOM      2  C   LIG    1       21.683 -16.078  18.287  0.00  0.00    -0.037 C 
ENDROOT
BRANCH   1   6
ATOM      3  C   LIG    1       27.017 -16.060  18.403  0.00  0.00    +0.117 A 
ATOM      4  C   LIG    1       26.334 -16.159  17.212  0.00  0.00    +0.046 A 
ATOM      5  C   LIG    1       24.963 -16.469  17.213  0.00  0.00    +0.012 A 
ATOM      6  C   LIG    1       24.212 -16.649  18.403  0.00  0.00    -0.021 A 
ATOM      7  C   LIG    1       24.951 -16.463  19.584  0.00  0.00    +0.012 A 
ATOM      8  C   LIG    1       26.335 -16.211  19.598  0.00  0.00    +0.046 A 
BRANCH   3   9
ATOM      9  O   LIG    1       28.354 -15.807  18.367  0.00  0.00    -0.507 OA
ATOM     10  H   LIG    1       28.502 -14.985  17.873  0.00  0.00    +0.292 HD
ENDBRANCH   3   9
ENDBRANCH   1   6
BRANCH   2  11
ATOM     11  C   LIG    1       20.240 -16.442  18.418  0.00  0.00    -0.021 A 
ATOM     12  C   LIG    1       19.861 -17.762  18.714  0.00  0.00    +0.012 A 
ATOM     13  C   LIG    1       18.517 -18.100  18.907  0.00  0.00    +0.046 A 
ATOM     14  C   LIG    1       17.546 -17.108  18.886  0.00  0.00    +0.117 A 
ATOM     15  C   LIG    1       17.892 -15.790  18.620  0.00  0.00    +0.046 A 
ATOM     16  C   LIG    1       19.229 -15.467  18.355  0.00  0.00    +0.012 A 
BRANCH  14  17
ATOM     17  O   LIG    1       16.258 -17.471  19.144  0.00  0.00    -0.507 OA
ATOM     18  H   LIG    1       15.901 -16.882  19.830  0.00  0.00    +0.292 HD
ENDBRANCH  14  17
ENDBRANCH   2  11
BRANCH   1  19
ATOM     19  C   LIG    1       22.520 -18.542  18.348  0.00  0.00    +0.032 C 
ATOM     20  C   LIG    1       23.639 -19.563  18.173  0.00  0.00    +0.009 C 
ENDBRANCH   1  19
BRANCH   2  21
ATOM     21  C   LIG    1       21.915 -14.566  18.159  0.00  0.00    +0.032 C 
ATOM     22  C   LIG    1       21.810 -13.799  16.838  0.00  0.00    +0.009 C 
ENDBRANCH   2  21
TORSDOF 6
ENDMDL
MODEL 4
REMARK VINA RESULT:      -8.3      2.565      7.543
REMARK  Name = 
REMARK                            x       y       z     vdW  Elec       q    Type
REMARK                         _______ _______ _______ _____ _____    ______ ____
ROOT
ATOM      1  C   LIG    1       25.703 -14.644  19.142  0.00  0.00    -0.037 C 
ATOM      2  C   LIG    1       24.777 -15.660  19.047  0.00  0.00    -0.037 C 
ENDROOT
BRANCH   1   6
ATOM      3  C   LIG    1       29.934 -15.059  20.332  0.00  0.00    +0.117 A 
ATOM      4  C   LIG    1       29.055 -14.314  21.087  0.00  0.00    +0.046 A 
ATOM      5  C   LIG    1       27.715 -14.190  20.683  0.00  0.00    +0.012 A 
ATOM      6  C   LIG    1       27.190 -14.837  19.535  0.00  0.00    -0.021 A 
ATOM      7  C   LIG    1       28.120 -15.639  18.850  0.00  0.00    +0.012 A 
ATOM      8  C   LIG    1       29.477 -15.726  19.209  0.00  0.00    +0.046 A 
BRANCH   3   9
ATOM      9  O   LIG    1       31.236 -15.120  20.724  0.00  0.00    -0.507 OA
ATOM     10  H   LIG    1       31.557 -14.218  20.882  0.00  0.00    +0.292 HD
ENDBRANCH   3   9
ENDBRANCH   1   6
BRANCH   2  11
ATOM     11  C   LIG    1       23.410 -15.475  18.474  0.00  0.00    -0.021 A 
ATOM     12  C   LIG    1       22.279 -15.494  19.307  0.00  0.00    +0.012 A 
ATOM     13  C   LIG    1       21.000 -15.254  18.792  0.00  0.00    +0.046 A 
ATOM     14  C   LIG    1       20.848 -14.913  17.455  0.00  0.00    +0.117 A 
ATOM     15  C   LIG    1       21.949 -14.862  16.611  0.00  0.00    +0.046 A 
ATOM     16  C   LIG    1       23.219 -15.176  17.114  0.00  0.00    +0.012 A 
BRANCH  14  17
ATOM     17  O   LIG    1       19.593 -14.623  17.010  0.00  0.00    -0.507 OA
ATOM     18  H   LIG    1       19.184 -15.440  16.678  0.00  0.00    +0.292 HD
ENDBRANCH  14  17
ENDBRANCH   2  11
BRANCH   1  19
ATOM     19  C   LIG    1       25.428 -13.149  18.832  0.00  0.00    +0.032 C 
ATOM     20  C   LIG    1       26.448 -12.169  18.260  0.00  0.00    +0.009 C 
ENDBRANCH   1  19
BRANCH   2  21
ATOM     21  C   LIG    1       25.066 -17.108  19.468  0.00  0.00    +0.032 C 
ATOM     22  C   LIG    1       25.353 -18.239  18.477  0.00  0.00    +0.009 C 
ENDBRANCH   2  21
TORSDOF 6
ENDMDL
MODEL 5
REMARK VINA RESULT:      -8.2      2.592      4.743
REMARK  Name = 
REMARK                            x       y       z     vdW  Elec       q    Type
REMARK                         _______ _______ _______ _____ _____    ______ ____
ROOT
ATOM      1  C   LIG    1       24.880 -15.272  19.282  0.00  0.00    -0.037 C 
ATOM      2  C   LIG    1       25.875 -14.321  19.333  0.00  0.00    -0.037 C 
ENDROOT
BRANCH   1   6
ATOM      3  C   LIG    1       20.830 -14.764  17.598  0.00  0.00    +0.117 A 
ATOM      4  C   LIG    1       21.029 -15.459  18.770  0.00  0.00    +0.046 A 
ATOM      5  C   LIG    1       22.328 -15.615  19.282  0.00  0.00    +0.012 A 
ATOM      6  C   LIG    1       23.474 -15.047  18.667  0.00  0.00    -0.021 A 
ATOM      7  C   LIG    1       23.196 -14.290  17.516  0.00  0.00    +0.012 A 
ATOM      8  C   LIG    1       21.908 -14.175  16.960  0.00  0.00    +0.046 A 
BRANCH   3   9
ATOM      9  O   LIG    1       19.566 -14.672  17.104  0.00  0.00    -0.507 OA
ATOM     10  H   LIG    1       19.603 -14.739  16.136  0.00  0.00    +0.292 HD
ENDBRANCH   3   9
ENDBRANCH   1   6
BRANCH   2  11
ATOM     11  C   LIG    1       27.279 -14.622  19.745  0.00  0.00    -0.021 A 
ATOM     12  C   LIG    1       28.091 -15.454  18.956  0.00  0.00    +0.012 A 
ATOM     13  C   LIG    1       29.429 -15.688  19.295  0.00  0.00    +0.046 A 
ATOM     14  C   LIG    1       29.991 -15.029  20.380  0.00  0.00    +0.117 A 
ATOM     15  C   LIG    1       29.220 -14.181  21.166  0.00  0.00    +0.046 A 
ATOM     16  C   LIG    1       27.863 -14.008  20.867  0.00  0.00    +0.012 A 
BRANCH  14  17
ATOM     17  O   LIG    1       31.313 -15.234  20.635  0.00  0.00    -0.507 OA
ATOM     18  H   LIG    1       31.661 -14.464  21.115  0.00  0.00    +0.292 HD
ENDBRANCH  14  17
ENDBRANCH   2  11
BRANCH   1  19
ATOM     19  C   LIG    1       25.009 -16.733  19.786  0.00  0.00    +0.032 C 
ATOM     20  C   LIG    1       25.235 -17.952  18.898  0.00  0.00    +0.009 C 
ENDBRANCH   1  19
BRANCH   2  21
ATOM     21  C   LIG    1       25.668 -12.857  18.920  0.00  0.00    +0.032 C 
ATOM     22  C   LIG    1       26.711 -12.032  18.161  0.00  0.00    +0.009 C 
ENDBRANCH   2  21
TORSDOF 6
ENDMDL
MODEL 6
REMARK VINA RESULT:      -8.1      2.264      3.718
REMARK  Name = 
REMARK                            x       y       z     vdW  Elec       q    Type
REMARK                         _______ _______ _______ _____ _____    ______ ____
ROOT
ATOM      1  C   LIG    1       24.641 -14.670  18.631  0.00  0.00    -0.037 C 
ATOM      2  C   LIG    1       25.519 -15.732  18.663  0.00  0.00    -0.037 C 
ENDROOT
BRANCH   1   6
ATOM      3  C   LIG    1       20.322 -15.120  17.836  0.00  0.00    +0.117 A 
ATOM      4  C   LIG    1       20.881 -15.594  19.001  0.00  0.00    +0.046 A 
ATOM      5  C   LIG    1       22.260 -15.447  19.228  0.00  0.00    +0.012 A 
ATOM      6  C   LIG    1       23.126 -14.784  18.321  0.00  0.00    -0.021 A 
ATOM      7  C   LIG    1       22.482 -14.260  17.187  0.00  0.00    +0.012 A 
ATOM      8  C   LIG    1       21.114 -14.450  16.919  0.00  0.00    +0.046 A 
BRANCH   3   9
ATOM      9  O   LIG    1       18.992 -15.320  17.624  0.00  0.00    -0.507 OA
ATOM     10  H   LIG    1       18.622 -14.531  17.198  0.00  0.00    +0.292 HD
ENDBRANCH   3   9
ENDBRANCH   1   6
BRANCH   2  11
ATOM     11  C   LIG    1       26.923 -15.623  19.160  0.00  0.00    -0.021 A 
ATOM     12  C   LIG    1       28.005 -15.780  18.279  0.00  0.00    +0.012 A 
ATOM     13  C   LIG    1       29.324 -15.613  18.719  0.00  0.00    +0.046 A 
ATOM     14  C   LIG    1       29.569 -15.208  20.024  0.00  0.00    +0.117 A 
ATOM     15  C   LIG    1       28.518 -15.021  20.913  0.00  0.00    +0.046 A 
ATOM     16  C   LIG    1       27.205 -15.262  20.489  0.00  0.00    +0.012 A 
BRANCH  14  17
ATOM     17  O   LIG    1       30.863 -14.993  20.393  0.00  0.00    -0.507 OA
ATOM     18  H   LIG    1       31.331 -14.571  19.653  0.00  0.00    +0.292 HD
ENDBRANCH  14  17
ENDBRANCH   2  11
BRANCH   1  19
ATOM     19  C   LIG    1       25.008 -13.195  18.943  0.00  0.00    +0.032 C 
ATOM     20  C   LIG    1       26.265 -12.481  18.457  0.00  0.00    +0.009 C 
ENDBRANCH   1  19
BRANCH   2  21
ATOM     21  C   LIG    1       25.134 -17.158  18.243  0.00  0.00    +0.032 C 
ATOM     22  C   LIG    1       25.090 -17.632  16.788  0.00  0.00    +0.009 C 
ENDBRANCH   2  21
TORSDOF 6
ENDMDL
MODEL 7
REMARK VINA RESULT:      -8.1      2.197      7.632
REMARK  Name = 
REMARK                            x       y       z     vdW  Elec       q    Type
REMARK                         _______ _______ _______ _____ _____    ______ ____
ROOT
ATOM      1  C   LIG    1       25.306 -15.758  18.483  0.00  0.00    -0.037 C 
ATOM      2  C   LIG    1       24.391 -14.729  18.526  0.00  0.00    -0.037 C 
ENDROOT
BRANCH   1   6
ATOM      3  C   LIG    1       29.440 -15.378  19.985  0.00  0.00    +0.117 A 
ATOM      4  C   LIG    1       28.363 -15.275  20.838  0.00  0.00    +0.046 A 
ATOM      5  C   LIG    1       27.057 -15.390  20.334  0.00  0.00    +0.012 A 
ATOM      6  C   LIG    1       26.774 -15.656  18.970  0.00  0.00    -0.021 A 
ATOM      7  C   LIG    1       27.916 -15.822  18.166  0.00  0.00    +0.012 A 
ATOM      8  C   LIG    1       29.228 -15.651  18.645  0.00  0.00    +0.046 A 
BRANCH   3   9
ATOM      9  O   LIG    1       30.691 -15.214  20.495  0.00  0.00    -0.507 OA
ATOM     10  H   LIG    1       31.289 -15.844  20.062  0.00  0.00    +0.292 HD
ENDBRANCH   3   9
ENDBRANCH   1   6
BRANCH   2  11
ATOM     11  C   LIG    1       22.936 -14.910  18.240  0.00  0.00    -0.021 A 
ATOM     12  C   LIG    1       22.089 -15.492  19.198  0.00  0.00    +0.012 A 
ATOM     13  C   LIG    1       20.712 -15.604  18.970  0.00  0.00    +0.046 A 
ATOM     14  C   LIG    1       20.158 -15.063  17.818  0.00  0.00    +0.117 A 
ATOM     15  C   LIG    1       20.966 -14.460  16.863  0.00  0.00    +0.046 A 
ATOM     16  C   LIG    1       22.352 -14.416  17.061  0.00  0.00    +0.012 A 
BRANCH  14  17
ATOM     17  O   LIG    1       18.806 -15.136  17.666  0.00  0.00    -0.507 OA
ATOM     18  H   LIG    1       18.440 -14.237  17.703  0.00  0.00    +0.292 HD
ENDBRANCH  14  17
ENDBRANCH   2  11
BRANCH   1  19
ATOM     19  C   LIG    1       25.013 -17.198  17.985  0.00  0.00    +0.032 C 
ATOM     20  C   LIG    1       24.850 -17.606  16.524  0.00  0.00    +0.009 C 
ENDBRANCH   1  19
BRANCH   2  21
ATOM     21  C   LIG    1       24.754 -13.292  18.925  0.00  0.00    +0.032 C 
ATOM     22  C   LIG    1       26.024 -12.575  18.459  0.00  0.00    +0.009 C 
ENDBRANCH   2  21
TORSDOF 6
ENDMDL
MODEL 8
REMARK VINA RESULT:      -7.9      2.573      7.086
REMARK  Name = 
REMARK                            x       y       z     vdW  Elec       q    Type
REMARK                         _______ _______ _______ _____ _____    ______ ____
ROOT
ATOM      1  C   LIG    1       20.447 -16.159  18.214  0.00  0.00    -0.037 C 
ATOM      2  C   LIG    1       19.156 -16.574  18.454  0.00  0.00    -0.037 C 
ENDROOT
BRANCH   1   6
ATOM      3  C   LIG    1       23.764 -18.792  16.964  0.00  0.00    +0.117 A 
ATOM      4  C   LIG    1       23.229 -18.878  18.230  0.00  0.00    +0.046 A 
ATOM      5  C   LIG    1       22.180 -18.023  18.608  0.00  0.00    +0.012 A 
ATOM      6  C   LIG    1       21.595 -17.080  17.724  0.00  0.00    -0.021 A 
ATOM      7  C   LIG    1       22.136 -17.093  16.426  0.00  0.00    +0.012 A 
ATOM      8  C   LIG    1       23.225 -17.901  16.052  0.00  0.00    +0.046 A 
BRANCH   3   9
ATOM      9  O   LIG    1       24.811 -19.601  16.645  0.00  0.00    -0.507 OA
ATOM     10  H   LIG    1       24.953 -20.228  17.372  0.00  0.00    +0.292 HD
ENDBRANCH   3   9
ENDBRANCH   1   6
BRANCH   2  11
ATOM     11  C   LIG    1       18.028 -15.634  18.729  0.00  0.00    -0.021 A 
ATOM     12  C   LIG    1       17.590 -14.738  17.740  0.00  0.00    +0.012 A 
ATOM     13  C   LIG    1       16.490 -13.901  17.962  0.00  0.00    +0.046 A 
ATOM     14  C   LIG    1       15.768 -14.008  19.143  0.00  0.00    +0.117 A 
ATOM     15  C   LIG    1       16.162 -14.902  20.130  0.00  0.00    +0.046 A 
ATOM     16  C   LIG    1       17.307 -15.685  19.934  0.00  0.00    +0.012 A 
BRANCH  14  17
ATOM     17  O   LIG    1       14.666 -13.221  19.290  0.00  0.00    -0.507 OA
ATOM     18  H   LIG    1       14.932 -12.292  19.192  0.00  0.00    +0.292 HD
ENDBRANCH  14  17
ENDBRANCH   2  11
BRANCH   1  19
ATOM     19  C   LIG    1       20.960 -14.701  18.348  0.00  0.00    +0.032 C 
ATOM     20  C   LIG    1       21.679 -13.919  17.254  0.00  0.00    +0.009 C 
ENDBRANCH   1  19
BRANCH   2  21
ATOM     21  C   LIG    1       18.720 -18.045  18.412  0.00  0.00    +0.032 C 
ATOM     22  C   LIG    1       17.404 -18.524  17.792  0.00  0.00    +0.009 C 
ENDBRANCH   2  21
TORSDOF 6
ENDMDL
MODEL 9
REMARK VINA RESULT:      -7.8      0.586      6.823
REMARK  Name = 
REMARK                            x       y       z     vdW  Elec       q    Type
REMARK                         _______ _______ _______ _____ _____    ______ ____
ROOT
ATOM      1  C   LIG    1       22.616 -15.819  18.359  0.00  0.00    -0.037 C 
ATOM      2  C   LIG    1       21.798 -16.914  18.529  0.00  0.00    -0.037 C 
ENDROOT
BRANCH   1   6
ATOM      3  C   LIG    1       27.030 -15.895  18.275  0.00  0.00    +0.117 A 
ATOM      4  C   LIG    1       26.345 -15.784  19.465  0.00  0.00    +0.046 A 
ATOM      5  C   LIG    1       24.940 -15.754  19.465  0.00  0.00    +0.012 A 
ATOM      6  C   LIG    1       24.164 -15.874  18.284  0.00  0.00    -0.021 A 
ATOM      7  C   LIG    1       24.920 -16.057  17.113  0.00  0.00    +0.012 A 
ATOM      8  C   LIG    1       26.327 -16.031  17.090  0.00  0.00    +0.046 A 
BRANCH   3   9
ATOM      9  O   LIG    1       28.390 -15.873  18.303  0.00  0.00    -0.507 OA
ATOM     10  H   LIG    1       28.699 -15.078  17.842  0.00  0.00    +0.292 HD
ENDBRANCH   3   9
ENDBRANCH   1   6
BRANCH   2  11
ATOM     11  C   LIG    1       20.312 -16.859  18.396  0.00  0.00    -0.021 A 
ATOM     12  C   LIG    1       19.547 -18.037  18.440  0.00  0.00    +0.012 A 
ATOM     13  C   LIG    1       18.149 -17.992  18.386  0.00  0.00    +0.046 A 
ATOM     14  C   LIG    1       17.499 -16.765  18.369  0.00  0.00    +0.117 A 
ATOM     15  C   LIG    1       18.226 -15.582  18.349  0.00  0.00    +0.046 A 
ATOM     16  C   LIG    1       19.626 -15.634  18.329  0.00  0.00    +0.012 A 
BRANCH  14  17
ATOM     17  O   LIG    1       16.137 -16.766  18.383  0.00  0.00    -0.507 OA
ATOM     18  H   LIG    1       15.830 -16.017  18.921  0.00  0.00    +0.292 HD
ENDBRANCH  14  17
ENDBRANCH   2  11
BRANCH   1  19
ATOM     19  C   LIG    1       22.130 -14.358  18.170  0.00  0.00    +0.032 C 
ATOM     20  C   LIG    1       21.869 -13.686  16.826  0.00  0.00    +0.009 C 
ENDBRANCH   1  19
BRANCH   2  21
ATOM     21  C   LIG    1       22.327 -18.326  18.820  0.00  0.00    +0.032 C 
ATOM     22  C   LIG    1       23.132 -19.155  17.816  0.00  0.00    +0.009 C 
ENDBRANCH   2  21
TORSDOF 6
ENDMDL
