MODEL 1
REMARK VINA RESULT:      -7.3      0.000      0.000
REMARK  Name = 
REMARK                            x       y       z     vdW  Elec       q    Type
REMARK                         _______ _______ _______ _____ _____    ______ ____
ROOT
ATOM      1  C   LIG    1        3.821   7.626  -2.466  0.00  0.00    -0.037 C 
ATOM      2  C   LIG    1        3.893   8.886  -3.018  0.00  0.00    -0.037 C 
ENDROOT
BRANCH   1   6
ATOM      3  C   LIG    1        0.557   6.250   0.171  0.00  0.00    +0.117 A 
ATOM      4  C   LIG    1        0.610   5.868  -1.151  0.00  0.00    +0.046 A 
ATOM      5  C   LIG    1        1.653   6.326  -1.973  0.00  0.00    +0.012 A 
ATOM      6  C   LIG    1        2.708   7.147  -1.497  0.00  0.00    -0.021 A 
ATOM      7  C   LIG    1        2.635   7.442  -0.125  0.00  0.00    +0.012 A 
ATOM      8  C   LIG    1        1.566   7.039   0.696  0.00  0.00    +0.046 A 
BRANCH   3   9
ATOM      9  O   LIG    1       -0.492   5.828   0.928  0.00  0.00    -0.507 OA
ATOM     10  H   LIG    1       -0.161   5.569   1.802  0.00  0.00    +0.292 HD
ENDBRANCH   3   9
ENDBRANCH   1   6
BRANCH   2  11
ATOM     11  C   LIG    1        4.856   9.255  -4.098  0.00  0.00    -0.021 A 
ATOM     12  C   LIG    1        4.890   8.531  -5.302  0.00  0.00    +0.012 A 
ATOM     13  C   LIG    1        5.738   8.911  -6.348  0.00  0.00    +0.046 A 
ATOM     14  C   LIG    1        6.502  10.064  -6.233  0.00  0.00    +0.117 A 
ATOM     15  C   LIG    1        6.472  10.815  -5.065  0.00  0.00    +0.046 A 
ATOM     16  C   LIG    1        5.678  10.391  -3.992  0.00  0.00    +0.012 A 
BRANCH  14  17
ATOM     17  O   LIG    1        7.264  10.433  -7.300  0.00  0.00    -0.507 OA
ATOM     18  H   LIG    1        8.143  10.028  -7.209  0.00  0.00    +0.292 HD
ENDBRANCH  14  17
ENDBRANCH   2  11
BRANCH   1  19
ATOM     19  C   LIG    1        4.808   6.464  -2.751  0.00  0.00    +0.032 C 
ATOM     20  C   LIG    1        5.416   5.548  -1.693  0.00  0.00    +0.009 C 
ENDBRANCH   1  19
BRANCH   2  21
ATOM     21  C   LIG    1        2.956  10.036  -2.623  0.00  0.00    +0.032 C 
ATOM     22  C   LIG    1        3.123  10.868  -1.348  0.00  0.00    +0.009 C 
ENDBRANCH   2  21
TORSDOF 6
ENDMDL
MODEL 2
REMARK VINA RESULT:      -7.2      0.147      7.142
REMARK  Name = 
REMARK                            x       y       z     vdW  Elec       q    Type
REMARK                         _______ _______ _______ _____ _____    ______ ____
ROOT
ATOM      1  C   LIG    1        3.855   8.845  -3.012  0.00  0.00    -0.037 C 
ATOM      2  C   LIG    1        3.830   7.564  -2.507  0.00  0.00    -0.037 C 
ENDROOT
BRANCH   1   6
ATOM      3  C   LIG    1        6.548  10.085  -6.283  0.00  0.00    +0.117 A 
ATOM      4  C   LIG    1        5.735   8.981  -6.414  0.00  0.00    +0.046 A 
ATOM      5  C   LIG    1        4.893   8.601  -5.355  0.00  0.00    +0.012 A 
ATOM      6  C   LIG    1        4.797   9.332  -4.143  0.00  0.00    -0.021 A 
ATOM      7  C   LIG    1        5.597  10.487  -4.101  0.00  0.00    +0.012 A 
ATOM      8  C   LIG    1        6.488  10.847  -5.129  0.00  0.00    +0.046 A 
BRANCH   3   9
ATOM      9  O   LIG    1        7.387  10.399  -7.307  0.00  0.00    -0.507 OA
ATOM     10  H   LIG    1        6.932  10.228  -8.147  0.00  0.00    +0.292 HD
ENDBRANCH   3   9
ENDBRANCH   1   6
BRANCH   2  11
ATOM     11  C   LIG    1        2.780   7.072  -1.565  0.00  0.00    -0.021 A 
ATOM     12  C   LIG    1        2.785   7.473  -0.218  0.00  0.00    +0.012 A 
ATOM     13  C   LIG    1        1.768   7.074   0.657  0.00  0.00    +0.046 A 
ATOM     14  C   LIG    1        0.694   6.338   0.176  0.00  0.00    +0.117 A 
ATOM     15  C   LIG    1        0.648   5.947  -1.156  0.00  0.00    +0.046 A 
ATOM     16  C   LIG    1        1.704   6.285  -2.011  0.00  0.00    +0.012 A 
BRANCH  14  17
ATOM     17  O   LIG    1       -0.306   6.027   1.047  0.00  0.00    -0.507 OA
ATOM     18  H   LIG    1       -0.322   5.063   1.172  0.00  0.00    +0.292 HD
ENDBRANCH  14  17
ENDBRANCH   2  11
BRANCH   1  19
ATOM     19  C   LIG    1        2.919  10.002  -2.570  0.00  0.00    +0.032 C 
ATOM     20  C   LIG    1        3.154  10.910  -1.368  0.00  0.00    +0.009 C 
ENDBRANCH   1  19
BRANCH   2  21
ATOM     21  C   LIG    1        4.846   6.482  -2.898  0.00  0.00    +0.032 C 
ATOM     22  C   LIG    1        5.622   5.639  -1.883  0.00  0.00    +0.009 C 
ENDBRANCH   2  21
TORSDOF 6
ENDMDL
MODEL 3
REMARK VINA RESULT:      -7.0      1.815      2.805
REMARK  Name = 
REMARK                            x       y       z     vdW  Elec       q    Type
REMARK                         _______ _______ _______ _____ _____    ______ ____
ROOT
ATOM      1  C   LIG    1        4.033   6.822  -3.293  0.00  0.00    -0.037 C 
ATOM      2  C   LIG    1        3.903   7.303  -4.577  0.00  0.00    -0.037 C 
ENDROOT
BRANCH   1   6
ATOM      3  C   LIG    1        0.774   6.250  -0.370  0.00  0.00    +0.117 A 
ATOM      4  C   LIG    1        1.758   7.191  -0.160  0.00  0.00    +0.046 A 
ATOM      5  C   LIG    1        2.790   7.348  -1.100  0.00  0.00    +0.012 A 
ATOM      6  C   LIG    1        2.857   6.604  -2.307  0.00  0.00    -0.021 A 
ATOM      7  C   LIG    1        1.785   5.714  -2.495  0.00  0.00    +0.012 A 
ATOM      8  C   LIG    1        0.778   5.504  -1.536  0.00  0.00    +0.046 A 
BRANCH   3   9
ATOM      9  O   LIG    1       -0.185   6.089   0.582  0.00  0.00    -0.507 OA
ATOM     10  H   LIG    1       -0.046   6.750   1.279  0.00  0.00    +0.292 HD
ENDBRANCH   3   9
ENDBRANCH   1   6
BRANCH   2  11
ATOM     11  C   LIG    1        5.019   7.312  -5.569  0.00  0.00    -0.021 A 
ATOM     12  C   LIG    1        5.562   8.527  -6.020  0.00  0.00    +0.012 A 
ATOM     13  C   LIG    1        6.654   8.548  -6.896  0.00  0.00    +0.046 A 
ATOM     14  C   LIG    1        7.264   7.357  -7.266  0.00  0.00    +0.117 A 
ATOM     15  C   LIG    1        6.765   6.141  -6.818  0.00  0.00    +0.046 A 
ATOM     16  C   LIG    1        5.628   6.121  -6.001  0.00  0.00    +0.012 A 
BRANCH  14  17
ATOM     17  O   LIG    1        8.363   7.426  -8.068  0.00  0.00    -0.507 OA
ATOM     18  H   LIG    1        8.766   8.306  -7.969  0.00  0.00    +0.292 HD
ENDBRANCH  14  17
ENDBRANCH   2  11
BRANCH   1  19
ATOM     19  C   LIG    1        5.365   6.377  -2.633  0.00  0.00    +0.032 C 
ATOM     20  C   LIG    1        5.507   5.252  -1.613  0.00  0.00    +0.009 C 
ENDBRANCH   1  19
BRANCH   2  21
ATOM     21  C   LIG    1        2.580   7.832  -5.151  0.00  0.00    +0.032 C 
ATOM     22  C   LIG    1        2.253   7.857  -6.646  0.00  0.00    +0.009 C 
ENDBRANCH   2  21
TORSDOF 6
ENDMDL
MODEL 4
REMARK VINA RESULT:      -6.8      1.326      7.074
REMARK  Name = 
REMARK                            x       y       z     vdW  Elec       q    Type
REMARK                         _______ _______ _______ _____ _____    ______ ____
ROOT
ATOM      1  C   LIG    1        3.849   8.486  -4.353  0.00  0.00    -0.037 C 
ATOM      2  C   LIG    1        3.872   8.299  -2.989  0.00  0.00    -0.037 C 
ENDROOT
BRANCH   1   6
ATOM      3  C   LIG    1        7.031  10.475  -6.679  0.00  0.00    +0.117 A 
ATOM      4  C   LIG    1        6.709   9.155  -6.903  0.00  0.00    +0.046 A 
ATOM      5  C   LIG    1        5.698   8.541  -6.144  0.00  0.00    +0.012 A 
ATOM      6  C   LIG    1        4.941   9.232  -5.162  0.00  0.00    -0.021 A 
ATOM      7  C   LIG    1        5.269  10.593  -5.033  0.00  0.00    +0.012 A 
ATOM      8  C   LIG    1        6.317  11.205  -5.745  0.00  0.00    +0.046 A 
BRANCH   3   9
ATOM      9  O   LIG    1        8.046  11.027  -7.398  0.00  0.00    -0.507 OA
ATOM     10  H   LIG    1        8.289  10.418  -8.113  0.00  0.00    +0.292 HD
ENDBRANCH   3   9
ENDBRANCH   1   6
BRANCH   2  11
ATOM     11  C   LIG    1        2.917   7.408  -2.264  0.00  0.00    -0.021 A 
ATOM     12  C   LIG    1        2.466   7.743  -0.976  0.00  0.00    +0.012 A 
ATOM     13  C   LIG    1        1.519   6.952  -0.316  0.00  0.00    +0.046 A 
ATOM     14  C   LIG    1        0.953   5.864  -0.968  0.00  0.00    +0.117 A 
ATOM     15  C   LIG    1        1.360   5.522  -2.251  0.00  0.00    +0.046 A 
ATOM     16  C   LIG    1        2.362   6.273  -2.880  0.00  0.00    +0.012 A 
BRANCH  14  17
ATOM     17  O   LIG    1       -0.012   5.161  -0.313  0.00  0.00    -0.507 OA
ATOM     18  H   LIG    1       -0.572   5.784   0.180  0.00  0.00    +0.292 HD
ENDBRANCH  14  17
ENDBRANCH   2  11
BRANCH   1  19
ATOM     19  C   LIG    1        2.756   7.946  -5.313  0.00  0.00    +0.032 C 
ATOM     20  C   LIG    1        2.323   8.614  -6.615  0.00  0.00    +0.009 C 
ENDBRANCH   1  19
BRANCH   2  21
ATOM     21  C   LIG    1        4.916   8.943  -2.066  0.00  0.00    +0.032 C 
ATOM     22  C   LIG    1        4.778  10.350  -1.478  0.00  0.00    +0.009 C 
ENDBRANCH   2  21
TORSDOF 6
ENDMDL
MODEL 5
REMARK VINA RESULT:      -6.7      1.501      2.491
REMARK  Name = 
REMARK                            x       y       z     vdW  Elec       q    Type
REMARK                         _______ _______ _______ _____ _____    ______ ____
ROOT
ATOM      1  C   LIG    1        4.135   8.518  -3.279  0.00  0.00    -0.037 C 
ATOM      2  C   LIG    1        3.981   8.942  -4.580  0.00  0.00    -0.037 C 
ENDROOT
BRANCH   1   6
ATOM      3  C   LIG    1        1.147   6.022  -1.197  0.00  0.00    +0.117 A 
ATOM      4  C   LIG    1        1.663   5.641  -2.416  0.00  0.00    +0.046 A 
ATOM      5  C   LIG    1        2.606   6.457  -3.063  0.00  0.00    +0.012 A 
ATOM      6  C   LIG    1        3.103   7.661  -2.501  0.00  0.00    -0.021 A 
ATOM      7  C   LIG    1        2.591   7.956  -1.225  0.00  0.00    +0.012 A 
ATOM      8  C   LIG    1        1.604   7.179  -0.591  0.00  0.00    +0.046 A 
BRANCH   3   9
ATOM      9  O   LIG    1        0.200   5.234  -0.618  0.00  0.00    -0.507 OA
ATOM     10  H   LIG    1        0.079   5.517   0.302  0.00  0.00    +0.292 HD
ENDBRANCH   3   9
ENDBRANCH   1   6
BRANCH   2  11
ATOM     11  C   LIG    1        5.073   9.590  -5.368  0.00  0.00    -0.021 A 
ATOM     12  C   LIG    1        5.464  10.910  -5.091  0.00  0.00    +0.012 A 
ATOM     13  C   LIG    1        6.531  11.505  -5.776  0.00  0.00    +0.046 A 
ATOM     14  C   LIG    1        7.268  10.758  -6.685  0.00  0.00    +0.117 A 
ATOM     15  C   LIG    1        6.920   9.443  -6.963  0.00  0.00    +0.046 A 
ATOM     16  C   LIG    1        5.807   8.876  -6.331  0.00  0.00    +0.012 A 
BRANCH  14  17
ATOM     17  O   LIG    1        8.338  11.356  -7.280  0.00  0.00    -0.507 OA
ATOM     18  H   LIG    1        8.098  11.586  -8.194  0.00  0.00    +0.292 HD
ENDBRANCH  14  17
ENDBRANCH   2  11
BRANCH   1  19
ATOM     19  C   LIG    1        5.377   8.786  -2.389  0.00  0.00    +0.032 C 
ATOM     20  C   LIG    1        5.665  10.089  -1.651  0.00  0.00    +0.009 C 
ENDBRANCH   1  19
BRANCH   2  21
ATOM     21  C   LIG    1        2.689   8.746  -5.386  0.00  0.00    +0.032 C 
ATOM     22  C   LIG    1        2.545   7.735  -6.527  0.00  0.00    +0.009 C 
ENDBRANCH   2  21
TORSDOF 6
ENDMDL
MODEL 6
REMARK VINA RESULT:      -6.5      1.979      7.300
REMARK  Name = 
REMARK                            x       y       z     vdW  Elec       q    Type
REMARK                         _______ _______ _______ _____ _____    ______ ____
ROOT
ATOM      1  C   LIG    1        4.065   7.015  -4.786  0.00  0.00    -0.037 C 
ATOM      2  C   LIG    1        4.088   6.810  -3.425  0.00  0.00    -0.037 C 
ENDROOT
BRANCH   1   6
ATOM      3  C   LIG    1        7.581   7.195  -7.450  0.00  0.00    +0.117 A 
ATOM      4  C   LIG    1        6.917   8.342  -7.075  0.00  0.00    +0.046 A 
ATOM      5  C   LIG    1        5.795   8.258  -6.233  0.00  0.00    +0.012 A 
ATOM      6  C   LIG    1        5.318   7.033  -5.699  0.00  0.00    -0.021 A 
ATOM      7  C   LIG    1        6.082   5.910  -6.062  0.00  0.00    +0.012 A 
ATOM      8  C   LIG    1        7.172   5.971  -6.950  0.00  0.00    +0.046 A 
BRANCH   3   9
ATOM      9  O   LIG    1        8.635   7.306  -8.305  0.00  0.00    -0.507 OA
ATOM     10  H   LIG    1        9.449   7.084  -7.825  0.00  0.00    +0.292 HD
ENDBRANCH   3   9
ENDBRANCH   1   6
BRANCH   2  11
ATOM     11  C   LIG    1        2.858   6.597  -2.604  0.00  0.00    -0.021 A 
ATOM     12  C   LIG    1        1.965   5.558  -2.914  0.00  0.00    +0.012 A 
ATOM     13  C   LIG    1        0.846   5.306  -2.112  0.00  0.00    +0.046 A 
ATOM     14  C   LIG    1        0.653   6.037  -0.948  0.00  0.00    +0.117 A 
ATOM     15  C   LIG    1        1.532   7.055  -0.601  0.00  0.00    +0.046 A 
ATOM     16  C   LIG    1        2.609   7.353  -1.445  0.00  0.00    +0.012 A 
BRANCH  14  17
ATOM     17  O   LIG    1       -0.413   5.715  -0.162  0.00  0.00    -0.507 OA
ATOM     18  H   LIG    1       -1.090   5.290  -0.715  0.00  0.00    +0.292 HD
ENDBRANCH  14  17
ENDBRANCH   2  11
BRANCH   1  19
ATOM     19  C   LIG    1        2.786   7.217  -5.641  0.00  0.00    +0.032 C 
ATOM     20  C   LIG    1        2.340   8.541  -6.254  0.00  0.00    +0.009 C 
ENDBRANCH   1  19
BRANCH   2  21
ATOM     21  C   LIG    1        5.384   6.721  -2.606  0.00  0.00    +0.032 C 
ATOM     22  C   LIG    1        5.851   5.451  -1.890  0.00  0.00    +0.009 C 
ENDBRANCH   2  21
TORSDOF 6
ENDMDL
MODEL 7
REMARK VINA RESULT:      -5.9     12.037     14.983
REMARK  Name = 
REMARK                            x       y       z     vdW  Elec       q    Type
REMARK                         _______ _______ _______ _____ _____    ______ ____
ROOT
ATOM      1  C   LIG    1       15.537   0.647  -5.939  0.00  0.00    -0.037 C 
ATOM      2  C   LIG    1       14.697   1.315  -5.076  0.00  0.00    -0.037 C 
ENDROOT
BRANCH   1   6
ATOM      3  C   LIG    1       14.710  -0.305 -10.170  0.00  0.00    +0.117 A 
ATOM      4  C   LIG    1       15.990  -0.370  -9.665  0.00  0.00    +0.046 A 
ATOM      5  C   LIG    1       16.229  -0.054  -8.318  0.00  0.00    +0.012 A 
ATOM      6  C   LIG    1       15.196   0.297  -7.411  0.00  0.00    -0.021 A 
ATOM      7  C   LIG    1       13.906   0.275  -7.969  0.00  0.00    +0.012 A 
ATOM      8  C   LIG    1       13.659   0.017  -9.330  0.00  0.00    +0.046 A 
BRANCH   3   9
ATOM      9  O   LIG    1       14.518  -0.571 -11.491  0.00  0.00    -0.507 OA
ATOM     10  H   LIG    1       15.207  -0.119 -12.003  0.00  0.00    +0.292 HD
ENDBRANCH   3   9
ENDBRANCH   1   6
BRANCH   2  11
ATOM     11  C   LIG    1       15.124   1.815  -3.734  0.00  0.00    -0.021 A 
ATOM     12  C   LIG    1       16.192   1.207  -3.054  0.00  0.00    +0.012 A 
ATOM     13  C   LIG    1       16.646   1.709  -1.829  0.00  0.00    +0.046 A 
ATOM     14  C   LIG    1       16.090   2.871  -1.311  0.00  0.00    +0.117 A 
ATOM     15  C   LIG    1       15.049   3.509  -1.972  0.00  0.00    +0.046 A 
ATOM     16  C   LIG    1       14.548   2.961  -3.160  0.00  0.00    +0.012 A 
BRANCH  14  17
ATOM     17  O   LIG    1       16.606   3.361  -0.149  0.00  0.00    -0.507 OA
ATOM     18  H   LIG    1       16.753   2.621   0.463  0.00  0.00    +0.292 HD
ENDBRANCH  14  17
ENDBRANCH   2  11
BRANCH   1  19
ATOM     19  C   LIG    1       16.974   0.171  -5.602  0.00  0.00    +0.032 C 
ATOM     20  C   LIG    1       17.328  -1.163  -4.951  0.00  0.00    +0.009 C 
ENDBRANCH   1  19
BRANCH   2  21
ATOM     21  C   LIG    1       13.243   1.672  -5.418  0.00  0.00    +0.032 C 
ATOM     22  C   LIG    1       12.034   1.144  -4.641  0.00  0.00    +0.009 C 
ENDBRANCH   2  21
TORSDOF 6
ENDMDL
MODEL 8
REMARK VINA RESULT:      -5.7     12.116     14.575
REMARK  Name = 
REMARK                            x       y       z     vdW  Elec       q    Type
REMARK                         _______ _______ _______ _____ _____    ______ ____
ROOT
ATOM      1  C   LIG    1       14.845   1.269  -5.308  0.00  0.00    -0.037 C 
ATOM      2  C   LIG    1       15.656   0.604  -6.201  0.00  0.00    -0.037 C 
ENDROOT
BRANCH   1   6
ATOM      3  C   LIG    1       16.090   2.862  -1.382  0.00  0.00    +0.117 A 
ATOM      4  C   LIG    1       15.124   3.497  -2.132  0.00  0.00    +0.046 A 
ATOM      5  C   LIG    1       14.751   2.976  -3.382  0.00  0.00    +0.012 A 
ATOM      6  C   LIG    1       15.295   1.778  -3.914  0.00  0.00    -0.021 A 
ATOM      7  C   LIG    1       16.221   1.140  -3.070  0.00  0.00    +0.012 A 
ATOM      8  C   LIG    1       16.646   1.681  -1.842  0.00  0.00    +0.046 A 
BRANCH   3   9
ATOM      9  O   LIG    1       16.463   3.417  -0.198  0.00  0.00    -0.507 OA
ATOM     10  H   LIG    1       17.392   3.196  -0.029  0.00  0.00    +0.292 HD
ENDBRANCH   3   9
ENDBRANCH   1   6
BRANCH   2  11
ATOM     11  C   LIG    1       15.257   0.305  -7.609  0.00  0.00    -0.021 A 
ATOM     12  C   LIG    1       16.229  -0.002  -8.576  0.00  0.00    +0.012 A 
ATOM     13  C   LIG    1       15.862  -0.351  -9.881  0.00  0.00    +0.046 A 
ATOM     14  C   LIG    1       14.519  -0.474 -10.210  0.00  0.00    +0.117 A 
ATOM     15  C   LIG    1       13.535  -0.201  -9.270  0.00  0.00    +0.046 A 
ATOM     16  C   LIG    1       13.905   0.220  -7.986  0.00  0.00    +0.012 A 
BRANCH  14  17
ATOM     17  O   LIG    1       14.208  -0.880 -11.474  0.00  0.00    -0.507 OA
ATOM     18  H   LIG    1       13.352  -1.339 -11.451  0.00  0.00    +0.292 HD
ENDBRANCH  14  17
ENDBRANCH   2  11
BRANCH   1  19
ATOM     19  C   LIG    1       13.365   1.659  -5.560  0.00  0.00    +0.032 C 
ATOM     20  C   LIG    1       12.175   1.164  -4.744  0.00  0.00    +0.009 C 
ENDBRANCH   1  19
BRANCH   2  21
ATOM     21  C   LIG    1       17.082   0.144  -5.866  0.00  0.00    +0.032 C 
ATOM     22  C   LIG    1       17.399  -1.096  -5.026  0.00  0.00    +0.009 C 
ENDBRANCH   2  21
TORSDOF 6
ENDMDL
MODEL 9
REMARK VINA RESULT:      -5.7      6.915      9.605
REMARK  Name = 
REMARK                            x       y       z     vdW  Elec       q    Type
REMARK                         _______ _______ _______ _____ _____    ______ ____
ROOT
ATOM      1  C   LIG    1        9.951   7.192  -9.769  0.00  0.00    -0.037 C 
ATOM      2  C   LIG    1        9.860   8.513 -10.146  0.00  0.00    -0.037 C 
ENDROOT
BRANCH   1   6
ATOM      3  C   LIG    1        8.210   5.356  -6.151  0.00  0.00    +0.117 A 
ATOM      4  C   LIG    1        9.517   5.110  -6.512  0.00  0.00    +0.046 A 
ATOM      5  C   LIG    1       10.045   5.699  -7.673  0.00  0.00    +0.012 A 
ATOM      6  C   LIG    1        9.306   6.589  -8.495  0.00  0.00    -0.021 A 
ATOM      7  C   LIG    1        8.005   6.854  -8.032  0.00  0.00    +0.012 A 
ATOM      8  C   LIG    1        7.443   6.227  -6.905  0.00  0.00    +0.046 A 
BRANCH   3   9
ATOM      9  O   LIG    1        7.713   4.733  -5.048  0.00  0.00    -0.507 OA
ATOM     10  H   LIG    1        8.248   3.943  -4.869  0.00  0.00    +0.292 HD
ENDBRANCH   3   9
ENDBRANCH   1   6
BRANCH   2  11
ATOM     11  C   LIG    1       10.316   9.023 -11.474  0.00  0.00    -0.021 A 
ATOM     12  C   LIG    1       11.309   8.342 -12.196  0.00  0.00    +0.012 A 
ATOM     13  C   LIG    1       11.696   8.771 -13.472  0.00  0.00    +0.046 A 
ATOM     14  C   LIG    1       11.037   9.837 -14.069  0.00  0.00    +0.117 A 
ATOM     15  C   LIG    1       10.034  10.516 -13.390  0.00  0.00    +0.046 A 
ATOM     16  C   LIG    1        9.701  10.130 -12.086  0.00  0.00    +0.012 A 
BRANCH  14  17
ATOM     17  O   LIG    1       11.400  10.180 -15.337  0.00  0.00    -0.507 OA
ATOM     18  H   LIG    1       10.903  10.973 -15.599  0.00  0.00    +0.292 HD
ENDBRANCH  14  17
ENDBRANCH   2  11
BRANCH   1  19
ATOM     19  C   LIG    1       10.673   6.078 -10.573  0.00  0.00    +0.032 C 
ATOM     20  C   LIG    1       10.011   4.813 -11.110  0.00  0.00    +0.009 C 
ENDBRANCH   1  19
BRANCH   2  21
ATOM     21  C   LIG    1        9.228   9.601  -9.266  0.00  0.00    +0.032 C 
ATOM     22  C   LIG    1       10.039  10.589  -8.423  0.00  0.00    +0.009 C 
ENDBRANCH   2  21
TORSDOF 6
ENDMDL
