MODEL 1
REMARK VINA RESULT:      -8.5      0.000      0.000
REMARK  Name = 
REMARK                            x       y       z     vdW  Elec       q    Type
REMARK                         _______ _______ _______ _____ _____    ______ ____
ROOT
ATOM      1  C   LIG    1        1.465  31.859   5.322  0.00  0.00    -0.037 C 
ATOM      2  C   LIG    1        2.368  31.215   4.504  0.00  0.00    -0.037 C 
ENDROOT
BRANCH   1   6
ATOM      3  C   LIG    1       -0.465  35.700   4.315  0.00  0.00    +0.117 A 
ATOM      4  C   LIG    1       -1.047  34.501   3.966  0.00  0.00    +0.046 A 
ATOM      5  C   LIG    1       -0.409  33.292   4.290  0.00  0.00    +0.012 A 
ATOM      6  C   LIG    1        0.812  33.230   5.011  0.00  0.00    -0.021 A 
ATOM      7  C   LIG    1        1.316  34.483   5.399  0.00  0.00    +0.012 A 
ATOM      8  C   LIG    1        0.719  35.704   5.032  0.00  0.00    +0.046 A 
BRANCH   3   9
ATOM      9  O   LIG    1       -1.083  36.854   3.945  0.00  0.00    -0.507 OA
ATOM     10  H   LIG    1       -1.892  36.957   4.471  0.00  0.00    +0.292 HD
ENDBRANCH   3   9
ENDBRANCH   1   6
BRANCH   2  11
ATOM     11  C   LIG    1        2.824  29.811   4.729  0.00  0.00    -0.021 A 
ATOM     12  C   LIG    1        4.075  29.553   5.314  0.00  0.00    +0.012 A 
ATOM     13  C   LIG    1        4.485  28.243   5.592  0.00  0.00    +0.046 A 
ATOM     14  C   LIG    1        3.615  27.186   5.363  0.00  0.00    +0.117 A 
ATOM     15  C   LIG    1        2.362  27.410   4.808  0.00  0.00    +0.046 A 
ATOM     16  C   LIG    1        1.985  28.715   4.462  0.00  0.00    +0.012 A 
BRANCH  14  17
ATOM     17  O   LIG    1        4.029  25.934   5.709  0.00  0.00    -0.507 OA
ATOM     18  H   LIG    1        4.214  25.921   6.663  0.00  0.00    +0.292 HD
ENDBRANCH  14  17
ENDBRANCH   2  11
BRANCH   1  19
ATOM     19  C   LIG    1        0.917  31.305   6.664  0.00  0.00    +0.032 C 
ATOM     20  C   LIG    1       -0.277  30.367   6.805  0.00  0.00    +0.009 C 
ENDBRANCH   1  19
BRANCH   2  21
ATOM     21  C   LIG    1        2.963  31.849   3.239  0.00  0.00    +0.032 C 
ATOM     22  C   LIG    1        4.149  32.817   3.252  0.00  0.00    +0.009 C 
ENDBRANCH   2  21
TORSDOF 6
ENDMDL
MODEL 2
REMARK VINA RESULT:      -8.4      0.720      2.388
REMARK  Name = 
REMARK                            x       y       z     vdW  Elec       q    Type
REMARK                         _______ _______ _______ _____ _____    ______ ____
ROOT
ATOM      1  C   LIG    1        1.640  32.016   4.160  0.00  0.00    -0.037 C 
ATOM      2  C   LIG    1        1.204  30.895   4.830  0.00  0.00    -0.037 C 
ENDROOT
BRANCH   1   6
ATOM      3  C   LIG    1       -0.461  35.900   4.121  0.00  0.00    +0.117 A 
ATOM      4  C   LIG    1       -1.063  34.763   3.628  0.00  0.00    +0.046 A 
ATOM      5  C   LIG    1       -0.371  33.540   3.644  0.00  0.00    +0.012 A 
ATOM      6  C   LIG    1        0.931  33.395   4.189  0.00  0.00    -0.021 A 
ATOM      7  C   LIG    1        1.460  34.576   4.740  0.00  0.00    +0.012 A 
ATOM      8  C   LIG    1        0.803  35.818   4.679  0.00  0.00    +0.046 A 
BRANCH   3   9
ATOM      9  O   LIG    1       -1.139  37.077   4.048  0.00  0.00    -0.507 OA
ATOM     10  H   LIG    1       -2.090  36.893   4.099  0.00  0.00    +0.292 HD
ENDBRANCH   3   9
ENDBRANCH   1   6
BRANCH   2  11
ATOM     11  C   LIG    1        2.009  29.643   4.949  0.00  0.00    -0.021 A 
ATOM     12  C   LIG    1        3.158  29.607   5.756  0.00  0.00    +0.012 A 
ATOM     13  C   LIG    1        3.882  28.421   5.929  0.00  0.00    +0.046 A 
ATOM     14  C   LIG    1        3.418  27.242   5.363  0.00  0.00    +0.117 A 
ATOM     15  C   LIG    1        2.271  27.239   4.579  0.00  0.00    +0.046 A 
ATOM     16  C   LIG    1        1.592  28.442   4.347  0.00  0.00    +0.012 A 
BRANCH  14  17
ATOM     17  O   LIG    1        4.116  26.098   5.611  0.00  0.00    -0.507 OA
ATOM     18  H   LIG    1        4.923  26.327   6.102  0.00  0.00    +0.292 HD
ENDBRANCH  14  17
ENDBRANCH   2  11
BRANCH   1  19
ATOM     19  C   LIG    1        2.930  32.103   3.303  0.00  0.00    +0.032 C 
ATOM     20  C   LIG    1        4.311  32.481   3.830  0.00  0.00    +0.009 C 
ENDBRANCH   1  19
BRANCH   2  21
ATOM     21  C   LIG    1       -0.135  30.825   5.578  0.00  0.00    +0.032 C 
ATOM     22  C   LIG    1       -0.270  30.390   7.040  0.00  0.00    +0.009 C 
ENDBRANCH   2  21
TORSDOF 6
ENDMDL
MODEL 3
REMARK VINA RESULT:      -8.4      0.153      7.266
REMARK  Name = 
REMARK                            x       y       z     vdW  Elec       q    Type
REMARK                         _______ _______ _______ _____ _____    ______ ____
ROOT
ATOM      1  C   LIG    1        2.213  31.221   4.563  0.00  0.00    -0.037 C 
ATOM      2  C   LIG    1        1.317  31.942   5.322  0.00  0.00    -0.037 C 
ENDROOT
BRANCH   1   6
ATOM      3  C   LIG    1        3.613  27.117   5.393  0.00  0.00    +0.117 A 
ATOM      4  C   LIG    1        4.419  28.205   5.644  0.00  0.00    +0.046 A 
ATOM      5  C   LIG    1        3.954  29.501   5.364  0.00  0.00    +0.012 A 
ATOM      6  C   LIG    1        2.653  29.765   4.862  0.00  0.00    -0.021 A 
ATOM      7  C   LIG    1        1.856  28.618   4.696  0.00  0.00    +0.012 A 
ATOM      8  C   LIG    1        2.328  27.311   4.917  0.00  0.00    +0.046 A 
BRANCH   3   9
ATOM      9  O   LIG    1        4.110  25.872   5.631  0.00  0.00    -0.507 OA
ATOM     10  H   LIG    1        4.060  25.693   6.583  0.00  0.00    +0.292 HD
ENDBRANCH   3   9
ENDBRANCH   1   6
BRANCH   2  11
ATOM     11  C   LIG    1        0.759  33.262   4.901  0.00  0.00    -0.021 A 
ATOM     12  C   LIG    1       -0.447  33.331   4.185  0.00  0.00    +0.012 A 
ATOM     13  C   LIG    1       -1.015  34.565   3.846  0.00  0.00    +0.046 A 
ATOM     14  C   LIG    1       -0.424  35.741   4.289  0.00  0.00    +0.117 A 
ATOM     15  C   LIG    1        0.756  35.705   5.019  0.00  0.00    +0.046 A 
ATOM     16  C   LIG    1        1.360  34.471   5.293  0.00  0.00    +0.012 A 
BRANCH  14  17
ATOM     17  O   LIG    1       -1.046  36.917   3.992  0.00  0.00    -0.507 OA
ATOM     18  H   LIG    1       -1.398  36.863   3.088  0.00  0.00    +0.292 HD
ENDBRANCH  14  17
ENDBRANCH   2  11
BRANCH   1  19
ATOM     19  C   LIG    1        2.896  31.723   3.264  0.00  0.00    +0.032 C 
ATOM     20  C   LIG    1        4.065  32.701   3.208  0.00  0.00    +0.009 C 
ENDBRANCH   1  19
BRANCH   2  21
ATOM     21  C   LIG    1        0.749  31.444   6.658  0.00  0.00    +0.032 C 
ATOM     22  C   LIG    1       -0.441  30.487   6.772  0.00  0.00    +0.009 C 
ENDBRANCH   2  21
TORSDOF 6
ENDMDL
MODEL 4
REMARK VINA RESULT:      -8.4      0.698      6.719
REMARK  Name = 
REMARK                            x       y       z     vdW  Elec       q    Type
REMARK                         _______ _______ _______ _____ _____    ______ ____
ROOT
ATOM      1  C   LIG    1        1.159  30.978   4.947  0.00  0.00    -0.037 C 
ATOM      2  C   LIG    1        1.518  32.072   4.191  0.00  0.00    -0.037 C 
ENDROOT
BRANCH   1   6
ATOM      3  C   LIG    1        3.451  27.228   5.368  0.00  0.00    +0.117 A 
ATOM      4  C   LIG    1        2.264  27.259   4.670  0.00  0.00    +0.046 A 
ATOM      5  C   LIG    1        1.548  28.463   4.557  0.00  0.00    +0.012 A 
ATOM      6  C   LIG    1        2.009  29.690   5.099  0.00  0.00    -0.021 A 
ATOM      7  C   LIG    1        3.260  29.606   5.735  0.00  0.00    +0.012 A 
ATOM      8  C   LIG    1        3.960  28.398   5.906  0.00  0.00    +0.046 A 
BRANCH   3   9
ATOM      9  O   LIG    1        4.097  26.037   5.500  0.00  0.00    -0.507 OA
ATOM     10  H   LIG    1        5.047  26.181   5.364  0.00  0.00    +0.292 HD
ENDBRANCH   3   9
ENDBRANCH   1   6
BRANCH   2  11
ATOM     11  C   LIG    1        0.782  33.371   4.223  0.00  0.00    -0.021 A 
ATOM     12  C   LIG    1        1.397  34.527   4.732  0.00  0.00    +0.012 A 
ATOM     13  C   LIG    1        0.742  35.764   4.704  0.00  0.00    +0.046 A 
ATOM     14  C   LIG    1       -0.500  35.873   4.094  0.00  0.00    +0.117 A 
ATOM     15  C   LIG    1       -1.123  34.753   3.560  0.00  0.00    +0.046 A 
ATOM     16  C   LIG    1       -0.497  33.504   3.656  0.00  0.00    +0.012 A 
BRANCH  14  17
ATOM     17  O   LIG    1       -1.072  37.108   4.030  0.00  0.00    -0.507 OA
ATOM     18  H   LIG    1       -0.369  37.772   3.930  0.00  0.00    +0.292 HD
ENDBRANCH  14  17
ENDBRANCH   2  11
BRANCH   1  19
ATOM     19  C   LIG    1       -0.129  30.865   5.804  0.00  0.00    +0.032 C 
ATOM     20  C   LIG    1       -0.204  30.257   7.201  0.00  0.00    +0.009 C 
ENDBRANCH   1  19
BRANCH   2  21
ATOM     21  C   LIG    1        2.749  32.097   3.274  0.00  0.00    +0.032 C 
ATOM     22  C   LIG    1        4.155  32.473   3.749  0.00  0.00    +0.009 C 
ENDBRANCH   2  21
TORSDOF 6
ENDMDL
MODEL 5
REMARK VINA RESULT:      -6.2     11.414     12.562
REMARK  Name = 
REMARK                            x       y       z     vdW  Elec       q    Type
REMARK                         _______ _______ _______ _____ _____    ______ ____
ROOT
ATOM      1  C   LIG    1        3.541  20.979   9.259  0.00  0.00    -0.037 C 
ATOM      2  C   LIG    1        4.290  20.235   8.374  0.00  0.00    -0.037 C 
ENDROOT
BRANCH   1   6
ATOM      3  C   LIG    1        5.027  22.315  13.196  0.00  0.00    +0.117 A 
ATOM      4  C   LIG    1        5.368  22.988  12.043  0.00  0.00    +0.046 A 
ATOM      5  C   LIG    1        4.890  22.538  10.801  0.00  0.00    +0.012 A 
ATOM      6  C   LIG    1        4.019  21.426  10.664  0.00  0.00    -0.021 A 
ATOM      7  C   LIG    1        3.652  20.828  11.882  0.00  0.00    +0.012 A 
ATOM      8  C   LIG    1        4.169  21.231  13.128  0.00  0.00    +0.046 A 
BRANCH   3   9
ATOM      9  O   LIG    1        5.545  22.747  14.378  0.00  0.00    -0.507 OA
ATOM     10  H   LIG    1        6.356  22.247  14.564  0.00  0.00    +0.292 HD
ENDBRANCH   3   9
ENDBRANCH   1   6
BRANCH   2  11
ATOM     11  C   LIG    1        3.887  19.991   6.957  0.00  0.00    -0.021 A 
ATOM     12  C   LIG    1        2.879  20.766   6.359  0.00  0.00    +0.012 A 
ATOM     13  C   LIG    1        2.540  20.593   5.012  0.00  0.00    +0.046 A 
ATOM     14  C   LIG    1        3.260  19.701   4.229  0.00  0.00    +0.117 A 
ATOM     15  C   LIG    1        4.278  18.938   4.785  0.00  0.00    +0.046 A 
ATOM     16  C   LIG    1        4.565  19.061   6.151  0.00  0.00    +0.012 A 
BRANCH  14  17
ATOM     17  O   LIG    1        2.940  19.612   2.907  0.00  0.00    -0.507 OA
ATOM     18  H   LIG    1        2.299  20.311   2.694  0.00  0.00    +0.292 HD
ENDBRANCH  14  17
ENDBRANCH   2  11
BRANCH   1  19
ATOM     19  C   LIG    1        2.117  21.530   8.985  0.00  0.00    +0.032 C 
ATOM     20  C   LIG    1        0.816  20.826   9.355  0.00  0.00    +0.009 C 
ENDBRANCH   1  19
BRANCH   2  21
ATOM     21  C   LIG    1        5.652  19.620   8.729  0.00  0.00    +0.032 C 
ATOM     22  C   LIG    1        6.977  20.079   8.116  0.00  0.00    +0.009 C 
ENDBRANCH   2  21
TORSDOF 6
ENDMDL
