MODEL 1
REMARK VINA RESULT:      -7.3      0.000      0.000
REMARK  Name = 
REMARK                            x       y       z     vdW  Elec       q    Type
REMARK                         _______ _______ _______ _____ _____    ______ ____
ROOT
ATOM      1  C   LIG    1      -46.119  11.732 -43.543  0.00  0.00    -0.037 C 
ATOM      2  C   LIG    1      -47.483  11.629 -43.707  0.00  0.00    -0.037 C 
ENDROOT
BRANCH   1   6
ATOM      3  C   LIG    1      -43.271  12.157 -46.890  0.00  0.00    +0.117 A 
ATOM      4  C   LIG    1      -43.874  13.260 -46.327  0.00  0.00    +0.046 A 
ATOM      5  C   LIG    1      -44.784  13.099 -45.269  0.00  0.00    +0.012 A 
ATOM      6  C   LIG    1      -45.095  11.836 -44.702  0.00  0.00    -0.021 A 
ATOM      7  C   LIG    1      -44.392  10.759 -45.272  0.00  0.00    +0.012 A 
ATOM      8  C   LIG    1      -43.523  10.900 -46.370  0.00  0.00    +0.046 A 
BRANCH   3   9
ATOM      9  O   LIG    1      -42.431  12.343 -47.944  0.00  0.00    -0.507 OA
ATOM     10  H   LIG    1      -41.610  11.852 -47.780  0.00  0.00    +0.292 HD
ENDBRANCH   3   9
ENDBRANCH   1   6
BRANCH   2  11
ATOM     11  C   LIG    1      -48.457  11.734 -42.579  0.00  0.00    -0.021 A 
ATOM     12  C   LIG    1      -48.538  10.720 -41.610  0.00  0.00    +0.012 A 
ATOM     13  C   LIG    1      -49.397  10.839 -40.511  0.00  0.00    +0.046 A 
ATOM     14  C   LIG    1      -50.123  12.008 -40.328  0.00  0.00    +0.117 A 
ATOM     15  C   LIG    1      -50.046  13.038 -41.256  0.00  0.00    +0.046 A 
ATOM     16  C   LIG    1      -49.242  12.885 -42.392  0.00  0.00    +0.012 A 
BRANCH  14  17
ATOM     17  O   LIG    1      -50.897  12.109 -39.211  0.00  0.00    -0.507 OA
ATOM     18  H   LIG    1      -51.832  12.078 -39.476  0.00  0.00    +0.292 HD
ENDBRANCH  14  17
ENDBRANCH   2  11
BRANCH   1  19
ATOM     19  C   LIG    1      -45.383  11.806 -42.180  0.00  0.00    +0.032 C 
ATOM     20  C   LIG    1      -44.925  10.602 -41.362  0.00  0.00    +0.009 C 
ENDBRANCH   1  19
BRANCH   2  21
ATOM     21  C   LIG    1      -48.158  11.450 -45.074  0.00  0.00    +0.032 C 
ATOM     22  C   LIG    1      -48.251  10.109 -45.807  0.00  0.00    +0.009 C 
ENDBRANCH   2  21
TORSDOF 6
ENDMDL
MODEL 2
REMARK VINA RESULT:      -7.3      0.117      7.126
REMARK  Name = 
REMARK                            x       y       z     vdW  Elec       q    Type
REMARK                         _______ _______ _______ _____ _____    ______ ____
ROOT
ATOM      1  C   LIG    1      -47.355  11.593 -43.702  0.00  0.00    -0.037 C 
ATOM      2  C   LIG    1      -45.987  11.723 -43.609  0.00  0.00    -0.037 C 
ENDROOT
BRANCH   1   6
ATOM      3  C   LIG    1      -50.130  11.888 -40.280  0.00  0.00    +0.117 A 
ATOM      4  C   LIG    1      -50.054  12.892 -41.220  0.00  0.00    +0.046 A 
ATOM      5  C   LIG    1      -49.156  12.779 -42.295  0.00  0.00    +0.012 A 
ATOM      6  C   LIG    1      -48.332  11.643 -42.499  0.00  0.00    -0.021 A 
ATOM      7  C   LIG    1      -48.510  10.624 -41.547  0.00  0.00    +0.012 A 
ATOM      8  C   LIG    1      -49.361  10.747 -40.433  0.00  0.00    +0.046 A 
BRANCH   3   9
ATOM      9  O   LIG    1      -50.975  12.048 -39.225  0.00  0.00    -0.507 OA
ATOM     10  H   LIG    1      -51.847  12.308 -39.561  0.00  0.00    +0.292 HD
ENDBRANCH   3   9
ENDBRANCH   1   6
BRANCH   2  11
ATOM     11  C   LIG    1      -45.093  11.874 -44.796  0.00  0.00    -0.021 A 
ATOM     12  C   LIG    1      -44.806  13.147 -45.315  0.00  0.00    +0.012 A 
ATOM     13  C   LIG    1      -43.915  13.306 -46.384  0.00  0.00    +0.046 A 
ATOM     14  C   LIG    1      -43.241  12.202 -46.889  0.00  0.00    +0.117 A 
ATOM     15  C   LIG    1      -43.485  10.934 -46.381  0.00  0.00    +0.046 A 
ATOM     16  C   LIG    1      -44.432  10.769 -45.362  0.00  0.00    +0.012 A 
BRANCH  14  17
ATOM     17  O   LIG    1      -42.335  12.411 -47.885  0.00  0.00    -0.507 OA
ATOM     18  H   LIG    1      -42.029  13.332 -47.839  0.00  0.00    +0.292 HD
ENDBRANCH  14  17
ENDBRANCH   2  11
BRANCH   1  19
ATOM     19  C   LIG    1      -48.152  11.421 -45.022  0.00  0.00    +0.032 C 
ATOM     20  C   LIG    1      -48.292  10.117 -45.799  0.00  0.00    +0.009 C 
ENDBRANCH   1  19
BRANCH   2  21
ATOM     21  C   LIG    1      -45.233  11.783 -42.273  0.00  0.00    +0.032 C 
ATOM     22  C   LIG    1      -44.915  10.551 -41.421  0.00  0.00    +0.009 C 
ENDBRANCH   2  21
TORSDOF 6
ENDMDL
MODEL 3
REMARK VINA RESULT:      -6.6      2.744      6.927
REMARK  Name = 
REMARK                            x       y       z     vdW  Elec       q    Type
REMARK                         _______ _______ _______ _____ _____    ______ ____
ROOT
ATOM      1  C   LIG    1      -48.127   9.889 -42.561  0.00  0.00    -0.037 C 
ATOM      2  C   LIG    1      -47.987  10.694 -43.671  0.00  0.00    -0.037 C 
ENDROOT
BRANCH   1   6
ATOM      3  C   LIG    1      -49.276  11.181 -38.499  0.00  0.00    +0.117 A 
ATOM      4  C   LIG    1      -48.165  10.394 -38.705  0.00  0.00    +0.046 A 
ATOM      5  C   LIG    1      -47.825   9.988 -40.006  0.00  0.00    +0.012 A 
ATOM      6  C   LIG    1      -48.554  10.387 -41.156  0.00  0.00    -0.021 A 
ATOM      7  C   LIG    1      -49.632  11.247 -40.886  0.00  0.00    +0.012 A 
ATOM      8  C   LIG    1      -50.019  11.614 -39.584  0.00  0.00    +0.046 A 
BRANCH   3   9
ATOM      9  O   LIG    1      -49.607  11.518 -37.222  0.00  0.00    -0.507 OA
ATOM     10  H   LIG    1      -48.792  11.702 -36.728  0.00  0.00    +0.292 HD
ENDBRANCH   3   9
ENDBRANCH   1   6
BRANCH   2  11
ATOM     11  C   LIG    1      -47.773  10.162 -45.050  0.00  0.00    -0.021 A 
ATOM     12  C   LIG    1      -48.418   8.987 -45.470  0.00  0.00    +0.012 A 
ATOM     13  C   LIG    1      -48.280   8.517 -46.781  0.00  0.00    +0.046 A 
ATOM     14  C   LIG    1      -47.561   9.261 -47.707  0.00  0.00    +0.117 A 
ATOM     15  C   LIG    1      -46.932  10.440 -47.329  0.00  0.00    +0.046 A 
ATOM     16  C   LIG    1      -47.011  10.867 -45.998  0.00  0.00    +0.012 A 
BRANCH  14  17
ATOM     17  O   LIG    1      -47.506   8.801 -48.989  0.00  0.00    -0.507 OA
ATOM     18  H   LIG    1      -46.623   8.428 -49.148  0.00  0.00    +0.292 HD
ENDBRANCH  14  17
ENDBRANCH   2  11
BRANCH   1  19
ATOM     19  C   LIG    1      -47.925   8.351 -42.538  0.00  0.00    +0.032 C 
ATOM     20  C   LIG    1      -46.575   7.642 -42.504  0.00  0.00    +0.009 C 
ENDBRANCH   1  19
BRANCH   2  21
ATOM     21  C   LIG    1      -48.092  12.225 -43.622  0.00  0.00    +0.032 C 
ATOM     22  C   LIG    1      -49.366  13.001 -43.967  0.00  0.00    +0.009 C 
ENDBRANCH   2  21
TORSDOF 6
ENDMDL
MODEL 4
REMARK VINA RESULT:      -6.5      2.223      3.215
REMARK  Name = 
REMARK                            x       y       z     vdW  Elec       q    Type
REMARK                         _______ _______ _______ _____ _____    ______ ____
ROOT
ATOM      1  C   LIG    1      -47.360  10.326 -44.337  0.00  0.00    -0.037 C 
ATOM      2  C   LIG    1      -47.815  11.099 -43.292  0.00  0.00    -0.037 C 
ENDROOT
BRANCH   1   6
ATOM      3  C   LIG    1      -46.301  11.729 -48.387  0.00  0.00    +0.117 A 
ATOM      4  C   LIG    1      -47.117  10.634 -48.207  0.00  0.00    +0.046 A 
ATOM      5  C   LIG    1      -47.432  10.201 -46.908  0.00  0.00    +0.012 A 
ATOM      6  C   LIG    1      -46.982  10.869 -45.739  0.00  0.00    -0.021 A 
ATOM      7  C   LIG    1      -46.215  12.019 -45.992  0.00  0.00    +0.012 A 
ATOM      8  C   LIG    1      -45.843  12.431 -47.285  0.00  0.00    +0.046 A 
BRANCH   3   9
ATOM      9  O   LIG    1      -45.975  12.095 -49.657  0.00  0.00    -0.507 OA
ATOM     10  H   LIG    1      -46.791  12.178 -50.176  0.00  0.00    +0.292 HD
ENDBRANCH   3   9
ENDBRANCH   1   6
BRANCH   2  11
ATOM     11  C   LIG    1      -47.978  10.585 -41.899  0.00  0.00    -0.021 A 
ATOM     12  C   LIG    1      -46.944   9.863 -41.279  0.00  0.00    +0.012 A 
ATOM     13  C   LIG    1      -47.058   9.437 -39.951  0.00  0.00    +0.046 A 
ATOM     14  C   LIG    1      -48.172   9.796 -39.205  0.00  0.00    +0.117 A 
ATOM     15  C   LIG    1      -49.200  10.530 -39.781  0.00  0.00    +0.046 A 
ATOM     16  C   LIG    1      -49.116  10.891 -41.132  0.00  0.00    +0.012 A 
BRANCH  14  17
ATOM     17  O   LIG    1      -48.212   9.416 -37.897  0.00  0.00    -0.507 OA
ATOM     18  H   LIG    1      -47.654  10.020 -37.380  0.00  0.00    +0.292 HD
ENDBRANCH  14  17
ENDBRANCH   2  11
BRANCH   1  19
ATOM     19  C   LIG    1      -47.107   8.796 -44.277  0.00  0.00    +0.032 C 
ATOM     20  C   LIG    1      -48.190   7.724 -44.345  0.00  0.00    +0.009 C 
ENDBRANCH   1  19
BRANCH   2  21
ATOM     21  C   LIG    1      -48.153  12.590 -43.429  0.00  0.00    +0.032 C 
ATOM     22  C   LIG    1      -49.491  13.113 -43.959  0.00  0.00    +0.009 C 
ENDBRANCH   2  21
TORSDOF 6
ENDMDL
MODEL 5
REMARK VINA RESULT:      -6.5      2.297      6.765
REMARK  Name = 
REMARK                            x       y       z     vdW  Elec       q    Type
REMARK                         _______ _______ _______ _____ _____    ______ ____
ROOT
ATOM      1  C   LIG    1      -47.661  11.024 -43.459  0.00  0.00    -0.037 C 
ATOM      2  C   LIG    1      -47.218  10.199 -44.469  0.00  0.00    -0.037 C 
ENDROOT
BRANCH   1   6
ATOM      3  C   LIG    1      -48.055   9.693 -39.268  0.00  0.00    +0.117 A 
ATOM      4  C   LIG    1      -46.886   9.494 -39.969  0.00  0.00    +0.046 A 
ATOM      5  C   LIG    1      -46.788   9.918 -41.304  0.00  0.00    +0.012 A 
ATOM      6  C   LIG    1      -47.836  10.596 -41.979  0.00  0.00    -0.021 A 
ATOM      7  C   LIG    1      -48.973  10.833 -41.188  0.00  0.00    +0.012 A 
ATOM      8  C   LIG    1      -49.107  10.362 -39.869  0.00  0.00    +0.046 A 
BRANCH   3   9
ATOM      9  O   LIG    1      -48.135   9.228 -37.992  0.00  0.00    -0.507 OA
ATOM     10  H   LIG    1      -47.815   9.917 -37.388  0.00  0.00    +0.292 HD
ENDBRANCH   3   9
ENDBRANCH   1   6
BRANCH   2  11
ATOM     11  C   LIG    1      -46.868  10.687 -45.836  0.00  0.00    -0.021 A 
ATOM     12  C   LIG    1      -47.418  10.075 -46.975  0.00  0.00    +0.012 A 
ATOM     13  C   LIG    1      -47.152  10.567 -48.258  0.00  0.00    +0.046 A 
ATOM     14  C   LIG    1      -46.398  11.723 -48.410  0.00  0.00    +0.117 A 
ATOM     15  C   LIG    1      -45.861  12.365 -47.303  0.00  0.00    +0.046 A 
ATOM     16  C   LIG    1      -46.068  11.827 -46.026  0.00  0.00    +0.012 A 
BRANCH  14  17
ATOM     17  O   LIG    1      -46.218  12.204 -49.672  0.00  0.00    -0.507 OA
ATOM     18  H   LIG    1      -46.053  13.161 -49.620  0.00  0.00    +0.292 HD
ENDBRANCH  14  17
ENDBRANCH   2  11
BRANCH   1  19
ATOM     19  C   LIG    1      -48.016  12.526 -43.620  0.00  0.00    +0.032 C 
ATOM     20  C   LIG    1      -49.396  13.068 -43.980  0.00  0.00    +0.009 C 
ENDBRANCH   1  19
BRANCH   2  21
ATOM     21  C   LIG    1      -46.982   8.693 -44.286  0.00  0.00    +0.032 C 
ATOM     22  C   LIG    1      -48.106   7.654 -44.253  0.00  0.00    +0.009 C 
ENDBRANCH   2  21
TORSDOF 6
ENDMDL
MODEL 6
REMARK VINA RESULT:      -6.3      2.901      4.089
REMARK  Name = 
REMARK                            x       y       z     vdW  Elec       q    Type
REMARK                         _______ _______ _______ _____ _____    ______ ____
ROOT
ATOM      1  C   LIG    1      -47.821  10.196 -43.542  0.00  0.00    -0.037 C 
ATOM      2  C   LIG    1      -47.969   9.449 -42.394  0.00  0.00    -0.037 C 
ENDROOT
BRANCH   1   6
ATOM      3  C   LIG    1      -47.502   8.435 -47.579  0.00  0.00    +0.117 A 
ATOM      4  C   LIG    1      -48.728   8.602 -46.972  0.00  0.00    +0.046 A 
ATOM      5  C   LIG    1      -48.803   9.157 -45.684  0.00  0.00    +0.012 A 
ATOM      6  C   LIG    1      -47.663   9.606 -44.967  0.00  0.00    -0.021 A 
ATOM      7  C   LIG    1      -46.452   9.474 -45.669  0.00  0.00    +0.012 A 
ATOM      8  C   LIG    1      -46.355   8.868 -46.935  0.00  0.00    +0.046 A 
BRANCH   3   9
ATOM      9  O   LIG    1      -47.459   7.852 -48.807  0.00  0.00    -0.507 OA
ATOM     10  H   LIG    1      -46.647   8.132 -49.257  0.00  0.00    +0.292 HD
ENDBRANCH   3   9
ENDBRANCH   1   6
BRANCH   2  11
ATOM     11  C   LIG    1      -48.320  10.041 -41.068  0.00  0.00    -0.021 A 
ATOM     12  C   LIG    1      -49.380  10.955 -40.953  0.00  0.00    +0.012 A 
ATOM     13  C   LIG    1      -49.762  11.463 -39.706  0.00  0.00    +0.046 A 
ATOM     14  C   LIG    1      -49.142  11.000 -38.554  0.00  0.00    +0.117 A 
ATOM     15  C   LIG    1      -48.107  10.077 -38.632  0.00  0.00    +0.046 A 
ATOM     16  C   LIG    1      -47.678   9.628 -39.888  0.00  0.00    +0.012 A 
BRANCH  14  17
ATOM     17  O   LIG    1      -49.589  11.471 -37.356  0.00  0.00    -0.507 OA
ATOM     18  H   LIG    1      -49.736  12.429 -37.434  0.00  0.00    +0.292 HD
ENDBRANCH  14  17
ENDBRANCH   2  11
BRANCH   1  19
ATOM     19  C   LIG    1      -47.830  11.746 -43.611  0.00  0.00    +0.032 C 
ATOM     20  C   LIG    1      -48.955  12.592 -44.198  0.00  0.00    +0.009 C 
ENDBRANCH   1  19
BRANCH   2  21
ATOM     21  C   LIG    1      -47.846   7.919 -42.360  0.00  0.00    +0.032 C 
ATOM     22  C   LIG    1      -46.510   7.173 -42.415  0.00  0.00    +0.009 C 
ENDBRANCH   2  21
TORSDOF 6
ENDMDL
MODEL 7
REMARK VINA RESULT:      -6.2      3.769      6.465
REMARK  Name = 
REMARK                            x       y       z     vdW  Elec       q    Type
REMARK                         _______ _______ _______ _____ _____    ______ ____
ROOT
ATOM      1  C   LIG    1      -44.063  11.556 -45.451  0.00  0.00    -0.037 C 
ATOM      2  C   LIG    1      -44.043  12.330 -44.312  0.00  0.00    -0.037 C 
ENDROOT
BRANCH   1   6
ATOM      3  C   LIG    1      -46.983   8.370 -46.354  0.00  0.00    +0.117 A 
ATOM      4  C   LIG    1      -45.801   8.086 -45.706  0.00  0.00    +0.046 A 
ATOM      5  C   LIG    1      -44.884   9.115 -45.438  0.00  0.00    +0.012 A 
ATOM      6  C   LIG    1      -45.128  10.474 -45.766  0.00  0.00    -0.021 A 
ATOM      7  C   LIG    1      -46.381  10.707 -46.359  0.00  0.00    +0.012 A 
ATOM      8  C   LIG    1      -47.284   9.679 -46.686  0.00  0.00    +0.046 A 
BRANCH   3   9
ATOM      9  O   LIG    1      -47.829   7.343 -46.641  0.00  0.00    -0.507 OA
ATOM     10  H   LIG    1      -48.496   7.657 -47.272  0.00  0.00    +0.292 HD
ENDBRANCH   3   9
ENDBRANCH   1   6
BRANCH   2  11
ATOM     11  C   LIG    1      -43.129  13.498 -44.127  0.00  0.00    -0.021 A 
ATOM     12  C   LIG    1      -42.164  13.493 -43.107  0.00  0.00    +0.012 A 
ATOM     13  C   LIG    1      -41.257  14.550 -42.967  0.00  0.00    +0.046 A 
ATOM     14  C   LIG    1      -41.254  15.583 -43.895  0.00  0.00    +0.117 A 
ATOM     15  C   LIG    1      -42.181  15.605 -44.929  0.00  0.00    +0.046 A 
ATOM     16  C   LIG    1      -43.134  14.582 -45.021  0.00  0.00    +0.012 A 
BRANCH  14  17
ATOM     17  O   LIG    1      -40.312  16.558 -43.759  0.00  0.00    -0.507 OA
ATOM     18  H   LIG    1      -40.644  17.372 -44.175  0.00  0.00    +0.292 HD
ENDBRANCH  14  17
ENDBRANCH   2  11
BRANCH   1  19
ATOM     19  C   LIG    1      -43.055  11.664 -46.626  0.00  0.00    +0.032 C 
ATOM     20  C   LIG    1      -41.603  11.200 -46.583  0.00  0.00    +0.009 C 
ENDBRANCH   1  19
BRANCH   2  21
ATOM     21  C   LIG    1      -44.996  12.115 -43.128  0.00  0.00    +0.032 C 
ATOM     22  C   LIG    1      -44.840  10.986 -42.106  0.00  0.00    +0.009 C 
ENDBRANCH   2  21
TORSDOF 6
ENDMDL
MODEL 8
REMARK VINA RESULT:      -6.2      2.139      3.307
REMARK  Name = 
REMARK                            x       y       z     vdW  Elec       q    Type
REMARK                         _______ _______ _______ _____ _____    ______ ____
ROOT
ATOM      1  C   LIG    1      -43.333  11.758 -43.836  0.00  0.00    -0.037 C 
ATOM      2  C   LIG    1      -44.300  10.798 -43.637  0.00  0.00    -0.037 C 
ENDROOT
BRANCH   1   6
ATOM      3  C   LIG    1      -40.462  11.695 -47.190  0.00  0.00    +0.117 A 
ATOM      4  C   LIG    1      -41.692  12.302 -47.321  0.00  0.00    +0.046 A 
ATOM      5  C   LIG    1      -42.592  12.301 -46.242  0.00  0.00    +0.012 A 
ATOM      6  C   LIG    1      -42.284  11.733 -44.978  0.00  0.00    -0.021 A 
ATOM      7  C   LIG    1      -40.989  11.195 -44.888  0.00  0.00    +0.012 A 
ATOM      8  C   LIG    1      -40.099  11.137 -45.977  0.00  0.00    +0.046 A 
BRANCH   3   9
ATOM      9  O   LIG    1      -39.632  11.671 -48.268  0.00  0.00    -0.507 OA
ATOM     10  H   LIG    1      -40.050  11.151 -48.972  0.00  0.00    +0.292 HD
ENDBRANCH   3   9
ENDBRANCH   1   6
BRANCH   2  11
ATOM     11  C   LIG    1      -45.418  10.948 -42.658  0.00  0.00    -0.021 A 
ATOM     12  C   LIG    1      -46.546  11.722 -42.977  0.00  0.00    +0.012 A 
ATOM     13  C   LIG    1      -47.631  11.814 -42.097  0.00  0.00    +0.046 A 
ATOM     14  C   LIG    1      -47.632  11.069 -40.925  0.00  0.00    +0.117 A 
ATOM     15  C   LIG    1      -46.542  10.275 -40.593  0.00  0.00    +0.046 A 
ATOM     16  C   LIG    1      -45.428  10.244 -41.442  0.00  0.00    +0.012 A 
BRANCH  14  17
ATOM     17  O   LIG    1      -48.736  11.137 -40.129  0.00  0.00    -0.507 OA
ATOM     18  H   LIG    1      -49.036  12.061 -40.091  0.00  0.00    +0.292 HD
ENDBRANCH  14  17
ENDBRANCH   2  11
BRANCH   1  19
ATOM     19  C   LIG    1      -43.156  13.043 -42.985  0.00  0.00    +0.032 C 
ATOM     20  C   LIG    1      -41.977  14.005 -43.081  0.00  0.00    +0.009 C 
ENDBRANCH   1  19
BRANCH   2  21
ATOM     21  C   LIG    1      -44.370   9.490 -44.438  0.00  0.00    +0.032 C 
ATOM     22  C   LIG    1      -45.259   9.294 -45.669  0.00  0.00    +0.009 C 
ENDBRANCH   2  21
TORSDOF 6
ENDMDL
MODEL 9
REMARK VINA RESULT:      -6.1      3.828      5.465
REMARK  Name = 
REMARK                            x       y       z     vdW  Elec       q    Type
REMARK                         _______ _______ _______ _____ _____    ______ ____
ROOT
ATOM      1  C   LIG    1      -44.000  12.249 -44.501  0.00  0.00    -0.037 C 
ATOM      2  C   LIG    1      -44.065  11.461 -45.629  0.00  0.00    -0.037 C 
ENDROOT
BRANCH   1   6
ATOM      3  C   LIG    1      -41.256  15.642 -43.827  0.00  0.00    +0.117 A 
ATOM      4  C   LIG    1      -41.231  14.535 -43.007  0.00  0.00    +0.046 A 
ATOM      5  C   LIG    1      -42.120  13.472 -43.236  0.00  0.00    +0.012 A 
ATOM      6  C   LIG    1      -43.039  13.452 -44.317  0.00  0.00    -0.021 A 
ATOM      7  C   LIG    1      -42.964  14.575 -45.159  0.00  0.00    +0.012 A 
ATOM      8  C   LIG    1      -42.120  15.673 -44.908  0.00  0.00    +0.046 A 
BRANCH   3   9
ATOM      9  O   LIG    1      -40.415  16.675 -43.550  0.00  0.00    -0.507 OA
ATOM     10  H   LIG    1      -40.631  17.418 -44.135  0.00  0.00    +0.292 HD
ENDBRANCH   3   9
ENDBRANCH   1   6
BRANCH   2  11
ATOM     11  C   LIG    1      -45.133  10.442 -45.860  0.00  0.00    -0.021 A 
ATOM     12  C   LIG    1      -46.331  10.797 -46.500  0.00  0.00    +0.012 A 
ATOM     13  C   LIG    1      -47.310   9.836 -46.783  0.00  0.00    +0.046 A 
ATOM     14  C   LIG    1      -47.065   8.499 -46.501  0.00  0.00    +0.117 A 
ATOM     15  C   LIG    1      -45.879   8.113 -45.891  0.00  0.00    +0.046 A 
ATOM     16  C   LIG    1      -44.934   9.087 -45.542  0.00  0.00    +0.012 A 
BRANCH  14  17
ATOM     17  O   LIG    1      -48.016   7.589 -46.853  0.00  0.00    -0.507 OA
ATOM     18  H   LIG    1      -48.191   7.011 -46.091  0.00  0.00    +0.292 HD
ENDBRANCH  14  17
ENDBRANCH   2  11
BRANCH   1  19
ATOM     19  C   LIG    1      -44.901  12.096 -43.248  0.00  0.00    +0.032 C 
ATOM     20  C   LIG    1      -44.796  10.972 -42.222  0.00  0.00    +0.009 C 
ENDBRANCH   1  19
BRANCH   2  21
ATOM     21  C   LIG    1      -43.081  11.581 -46.801  0.00  0.00    +0.032 C 
ATOM     22  C   LIG    1      -41.609  11.166 -46.721  0.00  0.00    +0.009 C 
ENDBRANCH   2  21
TORSDOF 6
ENDMDL
