MODEL 1
REMARK VINA RESULT:      -7.8      0.000      0.000
REMARK  Name = 
REMARK                            x       y       z     vdW  Elec       q    Type
REMARK                         _______ _______ _______ _____ _____    ______ ____
ROOT
ATOM      1  C   LIG    1       25.671 -26.926 -11.640  0.00  0.00    -0.037 C 
ATOM      2  C   LIG    1       24.712 -27.903 -11.792  0.00  0.00    -0.037 C 
ENDROOT
BRANCH   1   6
ATOM      3  C   LIG    1       25.309 -22.678 -12.788  0.00  0.00    +0.117 A 
ATOM      4  C   LIG    1       26.430 -23.408 -13.116  0.00  0.00    +0.046 A 
ATOM      5  C   LIG    1       26.526 -24.756 -12.731  0.00  0.00    +0.012 A 
ATOM      6  C   LIG    1       25.490 -25.440 -12.044  0.00  0.00    -0.021 A 
ATOM      7  C   LIG    1       24.345 -24.660 -11.804  0.00  0.00    +0.012 A 
ATOM      8  C   LIG    1       24.258 -23.294 -12.130  0.00  0.00    +0.046 A 
BRANCH   3   9
ATOM      9  O   LIG    1       25.267 -21.362 -13.133  0.00  0.00    -0.507 OA
ATOM     10  H   LIG    1       24.724 -20.887 -12.484  0.00  0.00    +0.292 HD
ENDBRANCH   3   9
ENDBRANCH   1   6
BRANCH   2  11
ATOM     11  C   LIG    1       24.837 -29.274 -11.213  0.00  0.00    -0.021 A 
ATOM     12  C   LIG    1       25.416 -30.314 -11.959  0.00  0.00    +0.012 A 
ATOM     13  C   LIG    1       25.601 -31.585 -11.403  0.00  0.00    +0.046 A 
ATOM     14  C   LIG    1       25.283 -31.807 -10.070  0.00  0.00    +0.117 A 
ATOM     15  C   LIG    1       24.731 -30.793  -9.299  0.00  0.00    +0.046 A 
ATOM     16  C   LIG    1       24.479 -29.543  -9.880  0.00  0.00    +0.012 A 
BRANCH  14  17
ATOM     17  O   LIG    1       25.541 -33.040  -9.551  0.00  0.00    -0.507 OA
ATOM     18  H   LIG    1       26.351 -33.387  -9.959  0.00  0.00    +0.292 HD
ENDBRANCH  14  17
ENDBRANCH   2  11
BRANCH   1  19
ATOM     19  C   LIG    1       27.070 -27.133 -11.002  0.00  0.00    +0.032 C 
ATOM     20  C   LIG    1       27.333 -27.367  -9.518  0.00  0.00    +0.009 C 
ENDBRANCH   1  19
BRANCH   2  21
ATOM     21  C   LIG    1       23.383 -27.676 -12.526  0.00  0.00    +0.032 C 
ATOM     22  C   LIG    1       22.308 -28.754 -12.690  0.00  0.00    +0.009 C 
ENDBRANCH   2  21
TORSDOF 6
ENDMDL
MODEL 2
REMARK VINA RESULT:      -7.7      0.836      6.777
REMARK  Name = 
REMARK                            x       y       z     vdW  Elec       q    Type
REMARK                         _______ _______ _______ _____ _____    ______ ____
ROOT
ATOM      1  C   LIG    1       25.709 -27.452 -10.688  0.00  0.00    -0.037 C 
ATOM      2  C   LIG    1       24.992 -26.892 -11.723  0.00  0.00    -0.037 C 
ENDROOT
BRANCH   1   6
ATOM      3  C   LIG    1       25.873 -31.786  -9.863  0.00  0.00    +0.117 A 
ATOM      4  C   LIG    1       26.816 -31.180 -10.664  0.00  0.00    +0.046 A 
ATOM      5  C   LIG    1       26.737 -29.801 -10.919  0.00  0.00    +0.012 A 
ATOM      6  C   LIG    1       25.741 -28.965 -10.351  0.00  0.00    -0.021 A 
ATOM      7  C   LIG    1       24.854 -29.630  -9.487  0.00  0.00    +0.012 A 
ATOM      8  C   LIG    1       24.886 -31.020  -9.268  0.00  0.00    +0.046 A 
BRANCH   3   9
ATOM      9  O   LIG    1       25.949 -33.131  -9.673  0.00  0.00    -0.507 OA
ATOM     10  H   LIG    1       25.771 -33.325  -8.739  0.00  0.00    +0.292 HD
ENDBRANCH   3   9
ENDBRANCH   1   6
BRANCH   2  11
ATOM     11  C   LIG    1       25.137 -25.468 -12.148  0.00  0.00    -0.021 A 
ATOM     12  C   LIG    1       24.110 -24.542 -11.901  0.00  0.00    +0.012 A 
ATOM     13  C   LIG    1       24.262 -23.190 -12.233  0.00  0.00    +0.046 A 
ATOM     14  C   LIG    1       25.473 -22.737 -12.740  0.00  0.00    +0.117 A 
ATOM     15  C   LIG    1       26.516 -23.624 -12.972  0.00  0.00    +0.046 A 
ATOM     16  C   LIG    1       26.333 -24.988 -12.708  0.00  0.00    +0.012 A 
BRANCH  14  17
ATOM     17  O   LIG    1       25.600 -21.403 -12.987  0.00  0.00    -0.507 OA
ATOM     18  H   LIG    1       25.347 -20.913 -12.187  0.00  0.00    +0.292 HD
ENDBRANCH  14  17
ENDBRANCH   2  11
BRANCH   1  19
ATOM     19  C   LIG    1       26.635 -26.674  -9.717  0.00  0.00    +0.032 C 
ATOM     20  C   LIG    1       27.673 -27.308  -8.796  0.00  0.00    +0.009 C 
ENDBRANCH   1  19
BRANCH   2  21
ATOM     21  C   LIG    1       24.005 -27.685 -12.591  0.00  0.00    +0.032 C 
ATOM     22  C   LIG    1       22.587 -28.054 -12.145  0.00  0.00    +0.009 C 
ENDBRANCH   2  21
TORSDOF 6
ENDMDL
MODEL 3
REMARK VINA RESULT:      -7.7      0.807      2.648
REMARK  Name = 
REMARK                            x       y       z     vdW  Elec       q    Type
REMARK                         _______ _______ _______ _____ _____    ______ ____
ROOT
ATOM      1  C   LIG    1       25.162 -26.930 -11.632  0.00  0.00    -0.037 C 
ATOM      2  C   LIG    1       25.807 -27.584 -10.605  0.00  0.00    -0.037 C 
ENDROOT
BRANCH   1   6
ATOM      3  C   LIG    1       25.539 -22.652 -12.661  0.00  0.00    +0.117 A 
ATOM      4  C   LIG    1       24.332 -23.182 -12.259  0.00  0.00    +0.046 A 
ATOM      5  C   LIG    1       24.235 -24.548 -11.946  0.00  0.00    +0.012 A 
ATOM      6  C   LIG    1       25.346 -25.430 -11.979  0.00  0.00    -0.021 A 
ATOM      7  C   LIG    1       26.561 -24.813 -12.325  0.00  0.00    +0.012 A 
ATOM      8  C   LIG    1       26.662 -23.460 -12.698  0.00  0.00    +0.046 A 
BRANCH   3   9
ATOM      9  O   LIG    1       25.589 -21.336 -13.003  0.00  0.00    -0.507 OA
ATOM     10  H   LIG    1       24.682 -21.006 -13.106  0.00  0.00    +0.292 HD
ENDBRANCH   3   9
ENDBRANCH   1   6
BRANCH   2  11
ATOM     11  C   LIG    1       25.766 -29.065 -10.420  0.00  0.00    -0.021 A 
ATOM     12  C   LIG    1       26.724 -29.887 -11.036  0.00  0.00    +0.012 A 
ATOM     13  C   LIG    1       26.738 -31.270 -10.815  0.00  0.00    +0.046 A 
ATOM     14  C   LIG    1       25.845 -31.832  -9.913  0.00  0.00    +0.117 A 
ATOM     15  C   LIG    1       24.902 -31.042  -9.270  0.00  0.00    +0.046 A 
ATOM     16  C   LIG    1       24.843 -29.671  -9.550  0.00  0.00    +0.012 A 
BRANCH  14  17
ATOM     17  O   LIG    1       25.936 -33.171  -9.678  0.00  0.00    -0.507 OA
ATOM     18  H   LIG    1       26.789 -33.354  -9.249  0.00  0.00    +0.292 HD
ENDBRANCH  14  17
ENDBRANCH   2  11
BRANCH   1  19
ATOM     19  C   LIG    1       24.181 -27.588 -12.638  0.00  0.00    +0.032 C 
ATOM     20  C   LIG    1       22.736 -27.969 -12.334  0.00  0.00    +0.009 C 
ENDBRANCH   1  19
BRANCH   2  21
ATOM     21  C   LIG    1       26.686 -26.869  -9.569  0.00  0.00    +0.032 C 
ATOM     22  C   LIG    1       27.780 -27.567  -8.757  0.00  0.00    +0.009 C 
ENDBRANCH   2  21
TORSDOF 6
ENDMDL
MODEL 4
REMARK VINA RESULT:      -7.5      0.206      7.230
REMARK  Name = 
REMARK                            x       y       z     vdW  Elec       q    Type
REMARK                         _______ _______ _______ _____ _____    ______ ____
ROOT
ATOM      1  C   LIG    1       24.788 -27.735 -11.887  0.00  0.00    -0.037 C 
ATOM      2  C   LIG    1       25.725 -26.733 -11.763  0.00  0.00    -0.037 C 
ENDROOT
BRANCH   1   6
ATOM      3  C   LIG    1       25.191 -31.712 -10.013  0.00  0.00    +0.117 A 
ATOM      4  C   LIG    1       24.676 -30.646  -9.310  0.00  0.00    +0.046 A 
ATOM      5  C   LIG    1       24.566 -29.387  -9.925  0.00  0.00    +0.012 A 
ATOM      6  C   LIG    1       24.925 -29.154 -11.278  0.00  0.00    -0.021 A 
ATOM      7  C   LIG    1       25.374 -30.298 -11.961  0.00  0.00    +0.012 A 
ATOM      8  C   LIG    1       25.544 -31.550 -11.341  0.00  0.00    +0.046 A 
BRANCH   3   9
ATOM      9  O   LIG    1       25.329 -32.906  -9.374  0.00  0.00    -0.507 OA
ATOM     10  H   LIG    1       26.080 -33.382  -9.763  0.00  0.00    +0.292 HD
ENDBRANCH   3   9
ENDBRANCH   1   6
BRANCH   2  11
ATOM     11  C   LIG    1       25.480 -25.321 -12.184  0.00  0.00    -0.021 A 
ATOM     12  C   LIG    1       24.344 -24.629 -11.733  0.00  0.00    +0.012 A 
ATOM     13  C   LIG    1       24.139 -23.285 -12.065  0.00  0.00    +0.046 A 
ATOM     14  C   LIG    1       25.108 -22.597 -12.783  0.00  0.00    +0.117 A 
ATOM     15  C   LIG    1       26.254 -23.246 -13.223  0.00  0.00    +0.046 A 
ATOM     16  C   LIG    1       26.419 -24.611 -12.951  0.00  0.00    +0.012 A 
BRANCH  14  17
ATOM     17  O   LIG    1       24.899 -21.273 -13.028  0.00  0.00    -0.507 OA
ATOM     18  H   LIG    1       25.750 -20.807 -12.967  0.00  0.00    +0.292 HD
ENDBRANCH  14  17
ENDBRANCH   2  11
BRANCH   1  19
ATOM     19  C   LIG    1       23.425 -27.602 -12.616  0.00  0.00    +0.032 C 
ATOM     20  C   LIG    1       22.384 -28.709 -12.740  0.00  0.00    +0.009 C 
ENDBRANCH   1  19
BRANCH   2  21
ATOM     21  C   LIG    1       27.106 -26.943 -11.126  0.00  0.00    +0.032 C 
ATOM     22  C   LIG    1       27.326 -27.162  -9.626  0.00  0.00    +0.009 C 
ENDBRANCH   2  21
TORSDOF 6
ENDMDL
MODEL 5
REMARK VINA RESULT:      -6.4      0.692      6.855
REMARK  Name = 
REMARK                            x       y       z     vdW  Elec       q    Type
REMARK                         _______ _______ _______ _____ _____    ______ ____
ROOT
ATOM      1  C   LIG    1       25.742 -27.566 -11.045  0.00  0.00    -0.037 C 
ATOM      2  C   LIG    1       24.727 -26.776 -11.538  0.00  0.00    -0.037 C 
ENDROOT
BRANCH   1   6
ATOM      3  C   LIG    1       25.375 -31.811  -9.887  0.00  0.00    +0.117 A 
ATOM      4  C   LIG    1       25.197 -30.806  -8.962  0.00  0.00    +0.046 A 
ATOM      5  C   LIG    1       25.328 -29.463  -9.353  0.00  0.00    +0.012 A 
ATOM      6  C   LIG    1       25.598 -29.069 -10.689  0.00  0.00    -0.021 A 
ATOM      7  C   LIG    1       25.696 -30.138 -11.597  0.00  0.00    +0.012 A 
ATOM      8  C   LIG    1       25.626 -31.489 -11.209  0.00  0.00    +0.046 A 
BRANCH   3   9
ATOM      9  O   LIG    1       25.289 -33.103  -9.467  0.00  0.00    -0.507 OA
ATOM     10  H   LIG    1       25.433 -33.129  -8.507  0.00  0.00    +0.292 HD
ENDBRANCH   3   9
ENDBRANCH   1   6
BRANCH   2  11
ATOM     11  C   LIG    1       24.943 -25.393 -12.061  0.00  0.00    -0.021 A 
ATOM     12  C   LIG    1       24.013 -24.376 -11.790  0.00  0.00    +0.012 A 
ATOM     13  C   LIG    1       24.238 -23.061 -12.216  0.00  0.00    +0.046 A 
ATOM     14  C   LIG    1       25.432 -22.735 -12.845  0.00  0.00    +0.117 A 
ATOM     15  C   LIG    1       26.382 -23.714 -13.105  0.00  0.00    +0.046 A 
ATOM     16  C   LIG    1       26.120 -25.042 -12.743  0.00  0.00    +0.012 A 
BRANCH  14  17
ATOM     17  O   LIG    1       25.638 -21.431 -13.183  0.00  0.00    -0.507 OA
ATOM     18  H   LIG    1       26.594 -21.278 -13.262  0.00  0.00    +0.292 HD
ENDBRANCH  14  17
ENDBRANCH   2  11
BRANCH   1  19
ATOM     19  C   LIG    1       27.203 -27.104 -10.805  0.00  0.00    +0.032 C 
ATOM     20  C   LIG    1       28.415 -28.027 -10.730  0.00  0.00    +0.009 C 
ENDBRANCH   1  19
BRANCH   2  21
ATOM     21  C   LIG    1       23.271 -27.247 -11.657  0.00  0.00    +0.032 C 
ATOM     22  C   LIG    1       22.779 -28.222 -12.730  0.00  0.00    +0.009 C 
ENDBRANCH   2  21
TORSDOF 6
ENDMDL
MODEL 6
REMARK VINA RESULT:      -6.1      1.355      7.030
REMARK  Name = 
REMARK                            x       y       z     vdW  Elec       q    Type
REMARK                         _______ _______ _______ _____ _____    ______ ____
ROOT
ATOM      1  C   LIG    1       24.560 -27.162 -11.070  0.00  0.00    -0.037 C 
ATOM      2  C   LIG    1       25.502 -26.632 -11.924  0.00  0.00    -0.037 C 
ENDROOT
BRANCH   1   6
ATOM      3  C   LIG    1       24.676 -31.311  -9.566  0.00  0.00    +0.117 A 
ATOM      4  C   LIG    1       25.386 -30.310  -8.940  0.00  0.00    +0.046 A 
ATOM      5  C   LIG    1       25.340 -28.999  -9.443  0.00  0.00    +0.012 A 
ATOM      6  C   LIG    1       24.552 -28.627 -10.562  0.00  0.00    -0.021 A 
ATOM      7  C   LIG    1       23.796 -29.678 -11.110  0.00  0.00    +0.012 A 
ATOM      8  C   LIG    1       23.877 -31.007 -10.654  0.00  0.00    +0.046 A 
BRANCH   3   9
ATOM      9  O   LIG    1       24.779 -32.580  -9.083  0.00  0.00    -0.507 OA
ATOM     10  H   LIG    1       25.131 -32.542  -8.179  0.00  0.00    +0.292 HD
ENDBRANCH   3   9
ENDBRANCH   1   6
BRANCH   2  11
ATOM     11  C   LIG    1       25.602 -25.174 -12.235  0.00  0.00    -0.021 A 
ATOM     12  C   LIG    1       24.511 -24.487 -12.792  0.00  0.00    +0.012 A 
ATOM     13  C   LIG    1       24.570 -23.108 -13.024  0.00  0.00    +0.046 A 
ATOM     14  C   LIG    1       25.689 -22.389 -12.626  0.00  0.00    +0.117 A 
ATOM     15  C   LIG    1       26.774 -23.035 -12.049  0.00  0.00    +0.046 A 
ATOM     16  C   LIG    1       26.741 -24.427 -11.887  0.00  0.00    +0.012 A 
BRANCH  14  17
ATOM     17  O   LIG    1       25.677 -21.039 -12.810  0.00  0.00    -0.507 OA
ATOM     18  H   LIG    1       25.452 -20.612 -11.966  0.00  0.00    +0.292 HD
ENDBRANCH  14  17
ENDBRANCH   2  11
BRANCH   1  19
ATOM     19  C   LIG    1       23.380 -26.377 -10.438  0.00  0.00    +0.032 C 
ATOM     20  C   LIG    1       23.520 -25.140  -9.557  0.00  0.00    +0.009 C 
ENDBRANCH   1  19
BRANCH   2  21
ATOM     21  C   LIG    1       26.589 -27.472 -12.609  0.00  0.00    +0.032 C 
ATOM     22  C   LIG    1       27.547 -28.399 -11.856  0.00  0.00    +0.009 C 
ENDBRANCH   2  21
TORSDOF 6
ENDMDL
MODEL 7
REMARK VINA RESULT:      -6.1      1.288      6.916
REMARK  Name = 
REMARK                            x       y       z     vdW  Elec       q    Type
REMARK                         _______ _______ _______ _____ _____    ______ ____
ROOT
ATOM      1  C   LIG    1       25.907 -27.318 -11.281  0.00  0.00    -0.037 C 
ATOM      2  C   LIG    1       25.038 -26.320 -10.900  0.00  0.00    -0.037 C 
ENDROOT
BRANCH   1   6
ATOM      3  C   LIG    1       25.550 -31.568 -10.139  0.00  0.00    +0.117 A 
ATOM      4  C   LIG    1       25.908 -30.613  -9.213  0.00  0.00    +0.046 A 
ATOM      5  C   LIG    1       26.024 -29.268  -9.603  0.00  0.00    +0.012 A 
ATOM      6  C   LIG    1       25.746 -28.818 -10.919  0.00  0.00    -0.021 A 
ATOM      7  C   LIG    1       25.316 -29.829 -11.796  0.00  0.00    +0.012 A 
ATOM      8  C   LIG    1       25.251 -31.188 -11.436  0.00  0.00    +0.046 A 
BRANCH   3   9
ATOM      9  O   LIG    1       25.493 -32.869  -9.741  0.00  0.00    -0.507 OA
ATOM     10  H   LIG    1       25.878 -32.940  -8.854  0.00  0.00    +0.292 HD
ENDBRANCH   3   9
ENDBRANCH   1   6
BRANCH   2  11
ATOM     11  C   LIG    1       25.106 -24.925 -11.427  0.00  0.00    -0.021 A 
ATOM     12  C   LIG    1       26.324 -24.224 -11.436  0.00  0.00    +0.012 A 
ATOM     13  C   LIG    1       26.414 -22.942 -11.991  0.00  0.00    +0.046 A 
ATOM     14  C   LIG    1       25.308 -22.381 -12.615  0.00  0.00    +0.117 A 
ATOM     15  C   LIG    1       24.097 -23.059 -12.644  0.00  0.00    +0.046 A 
ATOM     16  C   LIG    1       23.991 -24.310 -12.022  0.00  0.00    +0.012 A 
BRANCH  14  17
ATOM     17  O   LIG    1       25.458 -21.159 -13.199  0.00  0.00    -0.507 OA
ATOM     18  H   LIG    1       26.110 -20.649 -12.691  0.00  0.00    +0.292 HD
ENDBRANCH  14  17
ENDBRANCH   2  11
BRANCH   1  19
ATOM     19  C   LIG    1       27.164 -27.122 -12.169  0.00  0.00    +0.032 C 
ATOM     20  C   LIG    1       27.188 -26.393 -13.509  0.00  0.00    +0.009 C 
ENDBRANCH   1  19
BRANCH   2  21
ATOM     21  C   LIG    1       23.868 -26.544  -9.932  0.00  0.00    +0.032 C 
ATOM     22  C   LIG    1       22.611 -27.343 -10.288  0.00  0.00    +0.009 C 
ENDBRANCH   2  21
TORSDOF 6
ENDMDL
