MODEL 1
REMARK VINA RESULT:      -9.3      0.000      0.000
REMARK  Name = 
REMARK                            x       y       z     vdW  Elec       q    Type
REMARK                         _______ _______ _______ _____ _____    ______ ____
ROOT
ATOM      1  C   LIG    1       18.658  49.161  15.486  0.00  0.00    -0.037 C 
ATOM      2  C   LIG    1       18.713  49.476  16.826  0.00  0.00    -0.037 C 
ENDROOT
BRANCH   1   6
ATOM      3  C   LIG    1       22.118  49.319  12.747  0.00  0.00    +0.117 A 
ATOM      4  C   LIG    1       21.647  48.117  13.227  0.00  0.00    +0.046 A 
ATOM      5  C   LIG    1       20.550  48.093  14.104  0.00  0.00    +0.012 A 
ATOM      6  C   LIG    1       19.854  49.262  14.504  0.00  0.00    -0.021 A 
ATOM      7  C   LIG    1       20.337  50.448  13.924  0.00  0.00    +0.012 A 
ATOM      8  C   LIG    1       21.470  50.494  13.090  0.00  0.00    +0.046 A 
BRANCH   3   9
ATOM      9  O   LIG    1       23.211  49.313  11.937  0.00  0.00    -0.507 OA
ATOM     10  H   LIG    1       22.918  49.413  11.018  0.00  0.00    +0.292 HD
ENDBRANCH   3   9
ENDBRANCH   1   6
BRANCH   2  11
ATOM     11  C   LIG    1       17.609  49.179  17.787  0.00  0.00    -0.021 A 
ATOM     12  C   LIG    1       17.250  47.851  18.071  0.00  0.00    +0.012 A 
ATOM     13  C   LIG    1       16.264  47.558  19.021  0.00  0.00    +0.046 A 
ATOM     14  C   LIG    1       15.686  48.586  19.754  0.00  0.00    +0.117 A 
ATOM     15  C   LIG    1       16.038  49.907  19.513  0.00  0.00    +0.046 A 
ATOM     16  C   LIG    1       16.971  50.201  18.510  0.00  0.00    +0.012 A 
BRANCH  14  17
ATOM     17  O   LIG    1       14.779  48.251  20.714  0.00  0.00    -0.507 OA
ATOM     18  H   LIG    1       14.839  48.898  21.437  0.00  0.00    +0.292 HD
ENDBRANCH  14  17
ENDBRANCH   2  11
BRANCH   1  19
ATOM     19  C   LIG    1       17.411  48.610  14.746  0.00  0.00    +0.032 C 
ATOM     20  C   LIG    1       17.039  47.136  14.628  0.00  0.00    +0.009 C 
ENDBRANCH   1  19
BRANCH   2  21
ATOM     21  C   LIG    1       19.938  50.119  17.492  0.00  0.00    +0.032 C 
ATOM     22  C   LIG    1       21.290  49.416  17.642  0.00  0.00    +0.009 C 
ENDBRANCH   2  21
TORSDOF 6
ENDMDL
MODEL 2
REMARK VINA RESULT:      -9.1      0.175      7.221
REMARK  Name = 
REMARK                            x       y       z     vdW  Elec       q    Type
REMARK                         _______ _______ _______ _____ _____    ______ ____
ROOT
ATOM      1  C   LIG    1       18.759  49.275  16.713  0.00  0.00    -0.037 C 
ATOM      2  C   LIG    1       18.671  49.007  15.365  0.00  0.00    -0.037 C 
ENDROOT
BRANCH   1   6
ATOM      3  C   LIG    1       15.627  48.549  19.739  0.00  0.00    +0.117 A 
ATOM      4  C   LIG    1       16.049  49.827  19.448  0.00  0.00    +0.046 A 
ATOM      5  C   LIG    1       17.054  50.032  18.487  0.00  0.00    +0.012 A 
ATOM      6  C   LIG    1       17.646  48.975  17.749  0.00  0.00    -0.021 A 
ATOM      7  C   LIG    1       17.120  47.704  18.041  0.00  0.00    +0.012 A 
ATOM      8  C   LIG    1       16.157  47.477  19.041  0.00  0.00    +0.046 A 
BRANCH   3   9
ATOM      9  O   LIG    1       14.687  48.380  20.708  0.00  0.00    -0.507 OA
ATOM     10  H   LIG    1       15.013  48.776  21.531  0.00  0.00    +0.292 HD
ENDBRANCH   3   9
ENDBRANCH   1   6
BRANCH   2  11
ATOM     11  C   LIG    1       19.828  49.118  14.426  0.00  0.00    -0.021 A 
ATOM     12  C   LIG    1       20.274  50.377  13.991  0.00  0.00    +0.012 A 
ATOM     13  C   LIG    1       21.400  50.498  13.167  0.00  0.00    +0.046 A 
ATOM     14  C   LIG    1       22.136  49.368  12.836  0.00  0.00    +0.117 A 
ATOM     15  C   LIG    1       21.734  48.112  13.271  0.00  0.00    +0.046 A 
ATOM     16  C   LIG    1       20.565  47.988  14.034  0.00  0.00    +0.012 A 
BRANCH  14  17
ATOM     17  O   LIG    1       23.261  49.539  12.087  0.00  0.00    -0.507 OA
ATOM     18  H   LIG    1       23.010  49.928  11.233  0.00  0.00    +0.292 HD
ENDBRANCH  14  17
ENDBRANCH   2  11
BRANCH   1  19
ATOM     19  C   LIG    1       19.997  49.878  17.427  0.00  0.00    +0.032 C 
ATOM     20  C   LIG    1       21.394  49.265  17.431  0.00  0.00    +0.009 C 
ENDBRANCH   1  19
BRANCH   2  21
ATOM     21  C   LIG    1       17.387  48.510  14.685  0.00  0.00    +0.032 C 
ATOM     22  C   LIG    1       17.004  47.032  14.569  0.00  0.00    +0.009 C 
ENDBRANCH   2  21
TORSDOF 6
ENDMDL
MODEL 3
REMARK VINA RESULT:      -8.9      0.690      2.369
REMARK  Name = 
REMARK                            x       y       z     vdW  Elec       q    Type
REMARK                         _______ _______ _______ _____ _____    ______ ____
ROOT
ATOM      1  C   LIG    1       19.393  48.800  16.093  0.00  0.00    -0.037 C 
ATOM      2  C   LIG    1       18.018  48.725  16.068  0.00  0.00    -0.037 C 
ENDROOT
BRANCH   1   6
ATOM      3  C   LIG    1       22.015  49.558  12.623  0.00  0.00    +0.117 A 
ATOM      4  C   LIG    1       21.834  48.282  13.109  0.00  0.00    +0.046 A 
ATOM      5  C   LIG    1       21.001  48.067  14.220  0.00  0.00    +0.012 A 
ATOM      6  C   LIG    1       20.284  49.110  14.863  0.00  0.00    -0.021 A 
ATOM      7  C   LIG    1       20.456  50.375  14.274  0.00  0.00    +0.012 A 
ATOM      8  C   LIG    1       21.331  50.614  13.198  0.00  0.00    +0.046 A 
BRANCH   3   9
ATOM      9  O   LIG    1       22.865  49.739  11.575  0.00  0.00    -0.507 OA
ATOM     10  H   LIG    1       22.837  48.950  11.011  0.00  0.00    +0.292 HD
ENDBRANCH   3   9
ENDBRANCH   1   6
BRANCH   2  11
ATOM     11  C   LIG    1       17.178  48.626  17.299  0.00  0.00    -0.021 A 
ATOM     12  C   LIG    1       16.639  47.392  17.698  0.00  0.00    +0.012 A 
ATOM     13  C   LIG    1       15.908  47.274  18.886  0.00  0.00    +0.046 A 
ATOM     14  C   LIG    1       15.777  48.371  19.726  0.00  0.00    +0.117 A 
ATOM     15  C   LIG    1       16.318  49.599  19.372  0.00  0.00    +0.046 A 
ATOM     16  C   LIG    1       16.986  49.731  18.147  0.00  0.00    +0.012 A 
BRANCH  14  17
ATOM     17  O   LIG    1       15.113  48.195  20.904  0.00  0.00    -0.507 OA
ATOM     18  H   LIG    1       14.263  48.663  20.854  0.00  0.00    +0.292 HD
ENDBRANCH  14  17
ENDBRANCH   2  11
BRANCH   1  19
ATOM     19  C   LIG    1       20.278  48.633  17.357  0.00  0.00    +0.032 C 
ATOM     20  C   LIG    1       21.455  49.528  17.729  0.00  0.00    +0.009 C 
ENDBRANCH   1  19
BRANCH   2  21
ATOM     21  C   LIG    1       17.192  48.790  14.776  0.00  0.00    +0.032 C 
ATOM     22  C   LIG    1       16.324  47.637  14.264  0.00  0.00    +0.009 C 
ENDBRANCH   2  21
TORSDOF 6
ENDMDL
MODEL 4
REMARK VINA RESULT:      -8.9      0.735      6.887
REMARK  Name = 
REMARK                            x       y       z     vdW  Elec       q    Type
REMARK                         _______ _______ _______ _____ _____    ______ ____
ROOT
ATOM      1  C   LIG    1       18.124  48.583  15.976  0.00  0.00    -0.037 C 
ATOM      2  C   LIG    1       19.500  48.645  15.959  0.00  0.00    -0.037 C 
ENDROOT
BRANCH   1   6
ATOM      3  C   LIG    1       15.742  48.317  19.684  0.00  0.00    +0.117 A 
ATOM      4  C   LIG    1       16.286  49.514  19.275  0.00  0.00    +0.046 A 
ATOM      5  C   LIG    1       17.047  49.572  18.096  0.00  0.00    +0.012 A 
ATOM      6  C   LIG    1       17.260  48.448  17.257  0.00  0.00    -0.021 A 
ATOM      7  C   LIG    1       16.620  47.274  17.691  0.00  0.00    +0.012 A 
ATOM      8  C   LIG    1       15.903  47.188  18.899  0.00  0.00    +0.046 A 
BRANCH   3   9
ATOM      9  O   LIG    1       15.049  48.284  20.855  0.00  0.00    -0.507 OA
ATOM     10  H   LIG    1       15.478  48.882  21.487  0.00  0.00    +0.292 HD
ENDBRANCH   3   9
ENDBRANCH   1   6
BRANCH   2  11
ATOM     11  C   LIG    1       20.293  48.977  14.738  0.00  0.00    -0.021 A 
ATOM     12  C   LIG    1       20.450  50.312  14.331  0.00  0.00    +0.012 A 
ATOM     13  C   LIG    1       21.248  50.641  13.228  0.00  0.00    +0.046 A 
ATOM     14  C   LIG    1       21.960  49.647  12.572  0.00  0.00    +0.117 A 
ATOM     15  C   LIG    1       21.844  48.320  12.965  0.00  0.00    +0.046 A 
ATOM     16  C   LIG    1       20.987  47.987  14.022  0.00  0.00    +0.012 A 
BRANCH  14  17
ATOM     17  O   LIG    1       22.775  50.019  11.545  0.00  0.00    -0.507 OA
ATOM     18  H   LIG    1       22.281  50.614  10.956  0.00  0.00    +0.292 HD
ENDBRANCH  14  17
ENDBRANCH   2  11
BRANCH   1  19
ATOM     19  C   LIG    1       17.206  48.683  14.729  0.00  0.00    +0.032 C 
ATOM     20  C   LIG    1       16.294  47.573  14.218  0.00  0.00    +0.009 C 
ENDBRANCH   1  19
BRANCH   2  21
ATOM     21  C   LIG    1       20.370  48.434  17.206  0.00  0.00    +0.032 C 
ATOM     22  C   LIG    1       21.316  49.496  17.771  0.00  0.00    +0.009 C 
ENDBRANCH   2  21
TORSDOF 6
ENDMDL
MODEL 5
REMARK VINA RESULT:      -8.9      0.184      7.073
REMARK  Name = 
REMARK                            x       y       z     vdW  Elec       q    Type
REMARK                         _______ _______ _______ _____ _____    ______ ____
ROOT
ATOM      1  C   LIG    1       18.932  49.502  16.834  0.00  0.00    -0.037 C 
ATOM      2  C   LIG    1       18.855  49.216  15.488  0.00  0.00    -0.037 C 
ENDROOT
BRANCH   1   6
ATOM      3  C   LIG    1       15.675  48.632  19.685  0.00  0.00    +0.117 A 
ATOM      4  C   LIG    1       16.392  47.614  19.095  0.00  0.00    +0.046 A 
ATOM      5  C   LIG    1       17.417  47.916  18.184  0.00  0.00    +0.012 A 
ATOM      6  C   LIG    1       17.797  49.244  17.859  0.00  0.00    -0.021 A 
ATOM      7  C   LIG    1       17.077  50.235  18.548  0.00  0.00    +0.012 A 
ATOM      8  C   LIG    1       16.009  49.948  19.419  0.00  0.00    +0.046 A 
BRANCH   3   9
ATOM      9  O   LIG    1       14.656  48.306  20.527  0.00  0.00    -0.507 OA
ATOM     10  H   LIG    1       14.179  47.545  20.159  0.00  0.00    +0.292 HD
ENDBRANCH   3   9
ENDBRANCH   1   6
BRANCH   2  11
ATOM     11  C   LIG    1       20.026  49.285  14.565  0.00  0.00    -0.021 A 
ATOM     12  C   LIG    1       20.674  48.112  14.145  0.00  0.00    +0.012 A 
ATOM     13  C   LIG    1       21.729  48.159  13.226  0.00  0.00    +0.046 A 
ATOM     14  C   LIG    1       22.093  49.372  12.657  0.00  0.00    +0.117 A 
ATOM     15  C   LIG    1       21.456  50.547  13.033  0.00  0.00    +0.046 A 
ATOM     16  C   LIG    1       20.450  50.504  14.008  0.00  0.00    +0.012 A 
BRANCH  14  17
ATOM     17  O   LIG    1       23.081  49.363  11.718  0.00  0.00    -0.507 OA
ATOM     18  H   LIG    1       23.940  49.365  12.171  0.00  0.00    +0.292 HD
ENDBRANCH  14  17
ENDBRANCH   2  11
BRANCH   1  19
ATOM     19  C   LIG    1       20.174  50.085  17.557  0.00  0.00    +0.032 C 
ATOM     20  C   LIG    1       21.558  49.444  17.579  0.00  0.00    +0.009 C 
ENDBRANCH   1  19
BRANCH   2  21
ATOM     21  C   LIG    1       17.568  48.741  14.798  0.00  0.00    +0.032 C 
ATOM     22  C   LIG    1       17.151  47.271  14.698  0.00  0.00    +0.009 C 
ENDBRANCH   2  21
TORSDOF 6
ENDMDL
MODEL 6
REMARK VINA RESULT:      -8.8      0.595      1.620
REMARK  Name = 
REMARK                            x       y       z     vdW  Elec       q    Type
REMARK                         _______ _______ _______ _____ _____    ______ ____
ROOT
ATOM      1  C   LIG    1       18.915  49.008  15.728  0.00  0.00    -0.037 C 
ATOM      2  C   LIG    1       19.085  48.824  17.083  0.00  0.00    -0.037 C 
ENDROOT
BRANCH   1   6
ATOM      3  C   LIG    1       22.127  49.129  12.701  0.00  0.00    +0.117 A 
ATOM      4  C   LIG    1       21.567  50.290  13.189  0.00  0.00    +0.046 A 
ATOM      5  C   LIG    1       20.540  50.225  14.145  0.00  0.00    +0.012 A 
ATOM      6  C   LIG    1       20.061  49.003  14.684  0.00  0.00    -0.021 A 
ATOM      7  C   LIG    1       20.722  47.861  14.200  0.00  0.00    +0.012 A 
ATOM      8  C   LIG    1       21.710  47.907  13.199  0.00  0.00    +0.046 A 
BRANCH   3   9
ATOM      9  O   LIG    1       23.086  49.224  11.741  0.00  0.00    -0.507 OA
ATOM     10  H   LIG    1       23.639  48.427  11.773  0.00  0.00    +0.292 HD
ENDBRANCH   3   9
ENDBRANCH   1   6
BRANCH   2  11
ATOM     11  C   LIG    1       17.951  48.633  18.036  0.00  0.00    -0.021 A 
ATOM     12  C   LIG    1       17.439  49.720  18.763  0.00  0.00    +0.012 A 
ATOM     13  C   LIG    1       16.333  49.566  19.607  0.00  0.00    +0.046 A 
ATOM     14  C   LIG    1       15.678  48.344  19.670  0.00  0.00    +0.117 A 
ATOM     15  C   LIG    1       16.146  47.256  18.944  0.00  0.00    +0.046 A 
ATOM     16  C   LIG    1       17.297  47.394  18.158  0.00  0.00    +0.012 A 
BRANCH  14  17
ATOM     17  O   LIG    1       14.567  48.256  20.453  0.00  0.00    -0.507 OA
ATOM     18  H   LIG    1       14.835  47.972  21.343  0.00  0.00    +0.292 HD
ENDBRANCH  14  17
ENDBRANCH   2  11
BRANCH   1  19
ATOM     19  C   LIG    1       17.551  49.206  15.015  0.00  0.00    +0.032 C 
ATOM     20  C   LIG    1       16.689  48.086  14.443  0.00  0.00    +0.009 C 
ENDBRANCH   1  19
BRANCH   2  21
ATOM     21  C   LIG    1       20.462  48.740  17.757  0.00  0.00    +0.032 C 
ATOM     22  C   LIG    1       21.507  49.858  17.696  0.00  0.00    +0.009 C 
ENDBRANCH   2  21
TORSDOF 6
ENDMDL
