REMARK  Name = 
REMARK                            x       y       z     vdW  Elec       q    Type
REMARK                         _______ _______ _______ _____ _____    ______ ____
ROOT
ATOM      1  C   LIG    1        6.578   0.158  -0.462  0.00  0.00    -0.037 C 
ATOM      2  C   LIG    1        7.256   1.292  -0.851  0.00  0.00    -0.037 C 
ENDROOT
BRANCH   1   6
ATOM      3  C   LIG    1        2.216  -0.185   0.130  0.00  0.00    +0.117 A 
ATOM      4  C   LIG    1        2.982  -1.293  -0.158  0.00  0.00    +0.046 A 
ATOM      5  C   LIG    1        4.367  -1.157  -0.351  0.00  0.00    +0.012 A 
ATOM      6  C   LIG    1        5.048   0.081  -0.222  0.00  0.00    -0.021 A 
ATOM      7  C   LIG    1        4.222   1.158   0.144  0.00  0.00    +0.012 A 
ATOM      8  C   LIG    1        2.826   1.048   0.283  0.00  0.00    +0.046 A 
BRANCH   3   9
ATOM      9  O   LIG    1        0.871  -0.342   0.264  0.00  0.00    -0.507 OA
ATOM     10  H   LIG    1        0.465   0.532   0.378  0.00  0.00    +0.292 HD
ENDBRANCH   3   9
ENDBRANCH   1   6
BRANCH   2  11
ATOM     11  C   LIG    1        8.690   1.290  -1.269  0.00  0.00    -0.021 A 
ATOM     12  C   LIG    1        9.114   0.512  -2.359  0.00  0.00    +0.012 A 
ATOM     13  C   LIG    1       10.441   0.555  -2.803  0.00  0.00    +0.046 A 
ATOM     14  C   LIG    1       11.337   1.436  -2.213  0.00  0.00    +0.117 A 
ATOM     15  C   LIG    1       10.942   2.236  -1.149  0.00  0.00    +0.046 A 
ATOM     16  C   LIG    1        9.633   2.136  -0.660  0.00  0.00    +0.012 A 
BRANCH  14  17
ATOM     17  O   LIG    1       12.601   1.493  -2.719  0.00  0.00    -0.507 OA
ATOM     18  H   LIG    1       13.075   2.225  -2.290  0.00  0.00    +0.292 HD
ENDBRANCH  14  17
ENDBRANCH   2  11
BRANCH   1  19
ATOM     19  C   LIG    1        7.218  -1.238  -0.242  0.00  0.00    +0.032 C 
ATOM     20  C   LIG    1        8.702  -1.496  -0.002  0.00  0.00    +0.009 C 
ENDBRANCH   1  19
BRANCH   2  21
ATOM     21  C   LIG    1        6.599   2.676  -0.952  0.00  0.00    +0.032 C 
ATOM     22  C   LIG    1        7.303   3.911  -1.521  0.00  0.00    +0.009 C 
ENDBRANCH   2  21
TORSDOF 6
