MODEL 1
REMARK VINA RESULT:      -8.2      0.000      0.000
REMARK  Name = 
REMARK                            x       y       z     vdW  Elec       q    Type
REMARK                         _______ _______ _______ _____ _____    ______ ____
ROOT
ATOM      1  C   LIG    1       -6.888  -3.359  13.152  0.00  0.00    +0.090 A 
ATOM      2  N   LIG    1       -7.040  -4.177  12.075  0.00  0.00    -0.244 NA
ATOM      3  C   LIG    1       -7.728  -3.738  10.986  0.00  0.00    +0.090 A 
ATOM      4  C   LIG    1       -8.282  -2.459  10.954  0.00  0.00    +0.030 A 
ATOM      5  C   LIG    1       -8.138  -1.624  12.058  0.00  0.00    +0.004 A 
ATOM      6  C   LIG    1       -7.438  -2.080  13.169  0.00  0.00    +0.030 A 
ENDROOT
BRANCH   1   9
ATOM      7  C   LIG    1       -5.900  -4.617  16.585  0.00  0.00    +0.004 A 
ATOM      8  C   LIG    1       -6.677  -4.098  15.552  0.00  0.00    +0.030 A 
ATOM      9  C   LIG    1       -6.108  -3.900  14.291  0.00  0.00    +0.089 A 
ATOM     10  N   LIG    1       -4.800  -4.205  14.051  0.00  0.00    -0.253 NA
ATOM     11  C   LIG    1       -4.069  -4.702  15.074  0.00  0.00    +0.111 A 
ATOM     12  C   LIG    1       -4.569  -4.925  16.345  0.00  0.00    +0.020 A 
ENDBRANCH   1   9
BRANCH   3  13
ATOM     13  C   LIG    1       -7.858  -4.696   9.858  0.00  0.00    +0.089 A 
ATOM     14  N   LIG    1       -7.528  -5.991  10.118  0.00  0.00    -0.253 NA
ATOM     15  C   LIG    1       -7.640  -6.894   9.121  0.00  0.00    +0.111 A 
ATOM     16  C   LIG    1       -8.065  -6.581   7.844  0.00  0.00    +0.020 A 
ATOM     17  C   LIG    1       -8.401  -5.262   7.575  0.00  0.00    +0.004 A 
ATOM     18  C   LIG    1       -8.301  -4.311   8.589  0.00  0.00    +0.030 A 
ENDBRANCH   3  13
TORSDOF 2
ENDMDL
MODEL 2
REMARK VINA RESULT:      -8.2      0.033      6.150
REMARK  Name = 
REMARK                            x       y       z     vdW  Elec       q    Type
REMARK                         _______ _______ _______ _____ _____    ______ ____
ROOT
ATOM      1  C   LIG    1       -7.723  -3.756  10.987  0.00  0.00    +0.090 A 
ATOM      2  N   LIG    1       -7.044  -4.188  12.085  0.00  0.00    -0.244 NA
ATOM      3  C   LIG    1       -6.899  -3.362  13.157  0.00  0.00    +0.090 A 
ATOM      4  C   LIG    1       -7.440  -2.076  13.151  0.00  0.00    +0.030 A 
ATOM      5  C   LIG    1       -8.125  -1.628  12.027  0.00  0.00    +0.004 A 
ATOM      6  C   LIG    1       -8.265  -2.474  10.933  0.00  0.00    +0.030 A 
ENDROOT
BRANCH   1   9
ATOM      7  C   LIG    1       -8.368  -5.268   7.574  0.00  0.00    +0.004 A 
ATOM      8  C   LIG    1       -8.267  -4.321   8.593  0.00  0.00    +0.030 A 
ATOM      9  C   LIG    1       -7.857  -4.719   9.868  0.00  0.00    +0.089 A 
ATOM     10  N   LIG    1       -7.552  -6.021  10.137  0.00  0.00    -0.253 NA
ATOM     11  C   LIG    1       -7.663  -6.918   9.131  0.00  0.00    +0.111 A 
ATOM     12  C   LIG    1       -8.061  -6.593   7.847  0.00  0.00    +0.020 A 
ENDBRANCH   1   9
BRANCH   3  13
ATOM     13  C   LIG    1       -6.134  -3.905  14.308  0.00  0.00    +0.089 A 
ATOM     14  N   LIG    1       -4.831  -4.225  14.077  0.00  0.00    -0.253 NA
ATOM     15  C   LIG    1       -4.100  -4.715  15.101  0.00  0.00    +0.111 A 
ATOM     16  C   LIG    1       -4.599  -4.920  16.374  0.00  0.00    +0.020 A 
ATOM     17  C   LIG    1       -5.927  -4.597  16.612  0.00  0.00    +0.004 A 
ATOM     18  C   LIG    1       -6.702  -4.082  15.574  0.00  0.00    +0.030 A 
ENDBRANCH   3  13
TORSDOF 2
ENDMDL
MODEL 3
REMARK VINA RESULT:      -6.7      2.000      6.670
REMARK  Name = 
REMARK                            x       y       z     vdW  Elec       q    Type
REMARK                         _______ _______ _______ _____ _____    ______ ____
ROOT
ATOM      1  C   LIG    1       -6.729  -5.373  11.003  0.00  0.00    +0.090 A 
ATOM      2  N   LIG    1       -6.728  -5.110  12.339  0.00  0.00    -0.244 NA
ATOM      3  C   LIG    1       -5.609  -5.356  13.074  0.00  0.00    +0.090 A 
ATOM      4  C   LIG    1       -4.458  -5.872  12.480  0.00  0.00    +0.030 A 
ATOM      5  C   LIG    1       -4.460  -6.152  11.117  0.00  0.00    +0.004 A 
ATOM      6  C   LIG    1       -5.606  -5.904  10.372  0.00  0.00    +0.030 A 
ENDROOT
BRANCH   1   9
ATOM      7  C   LIG    1       -9.168  -4.117   8.391  0.00  0.00    +0.004 A 
ATOM      8  C   LIG    1       -7.966  -4.378   9.047  0.00  0.00    +0.030 A 
ATOM      9  C   LIG    1       -7.976  -5.060  10.265  0.00  0.00    +0.089 A 
ATOM     10  N   LIG    1       -9.146  -5.477  10.831  0.00  0.00    -0.253 NA
ATOM     11  C   LIG    1      -10.297  -5.206  10.175  0.00  0.00    +0.111 A 
ATOM     12  C   LIG    1      -10.358  -4.537   8.966  0.00  0.00    +0.020 A 
ENDBRANCH   1   9
BRANCH   3  13
ATOM     13  C   LIG    1       -5.696  -5.053  14.525  0.00  0.00    +0.089 A 
ATOM     14  N   LIG    1       -6.925  -4.720  15.006  0.00  0.00    -0.253 NA
ATOM     15  C   LIG    1       -7.046  -4.445  16.323  0.00  0.00    +0.111 A 
ATOM     16  C   LIG    1       -5.991  -4.473  17.215  0.00  0.00    +0.020 A 
ATOM     17  C   LIG    1       -4.736  -4.811  16.728  0.00  0.00    +0.004 A 
ATOM     18  C   LIG    1       -4.585  -5.107  15.374  0.00  0.00    +0.030 A 
ENDBRANCH   3  13
TORSDOF 2
ENDMDL
MODEL 4
REMARK VINA RESULT:      -6.7      2.001      2.836
REMARK  Name = 
REMARK                            x       y       z     vdW  Elec       q    Type
REMARK                         _______ _______ _______ _____ _____    ______ ____
ROOT
ATOM      1  C   LIG    1       -5.655  -5.379  13.060  0.00  0.00    +0.090 A 
ATOM      2  N   LIG    1       -6.756  -5.120  12.302  0.00  0.00    -0.244 NA
ATOM      3  C   LIG    1       -6.747  -5.420  10.975  0.00  0.00    +0.090 A 
ATOM      4  C   LIG    1       -5.626  -5.993  10.375  0.00  0.00    +0.030 A 
ATOM      5  C   LIG    1       -4.495  -6.248  11.144  0.00  0.00    +0.004 A 
ATOM      6  C   LIG    1       -4.508  -5.935  12.498  0.00  0.00    +0.030 A 
ENDROOT
BRANCH   1   9
ATOM      7  C   LIG    1       -4.772  -4.726  16.685  0.00  0.00    +0.004 A 
ATOM      8  C   LIG    1       -4.629  -5.058  15.339  0.00  0.00    +0.030 A 
ATOM      9  C   LIG    1       -5.747  -5.044  14.501  0.00  0.00    +0.089 A 
ATOM     10  N   LIG    1       -6.982  -4.712  14.977  0.00  0.00    -0.253 NA
ATOM     11  C   LIG    1       -7.091  -4.399  16.288  0.00  0.00    +0.111 A 
ATOM     12  C   LIG    1       -6.026  -4.391  17.172  0.00  0.00    +0.020 A 
ENDBRANCH   1   9
BRANCH   3  13
ATOM     13  C   LIG    1       -7.983  -5.095  10.218  0.00  0.00    +0.089 A 
ATOM     14  N   LIG    1       -9.151  -5.583  10.720  0.00  0.00    -0.253 NA
ATOM     15  C   LIG    1      -10.297  -5.303  10.064  0.00  0.00    +0.111 A 
ATOM     16  C   LIG    1      -10.357  -4.553   8.904  0.00  0.00    +0.020 A 
ATOM     17  C   LIG    1       -9.168  -4.056   8.389  0.00  0.00    +0.004 A 
ATOM     18  C   LIG    1       -7.971  -4.325   9.051  0.00  0.00    +0.030 A 
ENDBRANCH   3  13
TORSDOF 2
ENDMDL
MODEL 5
REMARK VINA RESULT:      -6.3      2.616      4.716
REMARK  Name = 
REMARK                            x       y       z     vdW  Elec       q    Type
REMARK                         _______ _______ _______ _____ _____    ______ ____
ROOT
ATOM      1  C   LIG    1       -7.849  -4.262  13.334  0.00  0.00    +0.090 A 
ATOM      2  N   LIG    1       -8.466  -3.050  13.393  0.00  0.00    -0.244 NA
ATOM      3  C   LIG    1       -9.640  -2.857  12.732  0.00  0.00    +0.090 A 
ATOM      4  C   LIG    1      -10.226  -3.884  11.993  0.00  0.00    +0.030 A 
ATOM      5  C   LIG    1       -9.592  -5.121  11.922  0.00  0.00    +0.004 A 
ATOM      6  C   LIG    1       -8.392  -5.310  12.595  0.00  0.00    +0.030 A 
ENDROOT
BRANCH   1   9
ATOM      7  C   LIG    1       -5.346  -4.558  16.160  0.00  0.00    +0.004 A 
ATOM      8  C   LIG    1       -6.561  -4.415  15.494  0.00  0.00    +0.030 A 
ATOM      9  C   LIG    1       -6.586  -4.402  14.097  0.00  0.00    +0.089 A 
ATOM     10  N   LIG    1       -5.439  -4.525  13.369  0.00  0.00    -0.253 NA
ATOM     11  C   LIG    1       -4.274  -4.657  14.043  0.00  0.00    +0.111 A 
ATOM     12  C   LIG    1       -4.177  -4.681  15.422  0.00  0.00    +0.020 A 
ENDBRANCH   1   9
BRANCH   3  13
ATOM     13  C   LIG    1      -10.241  -1.503  12.838  0.00  0.00    +0.089 A 
ATOM     14  N   LIG    1       -9.414  -0.499  13.241  0.00  0.00    -0.253 NA
ATOM     15  C   LIG    1       -9.921   0.748  13.343  0.00  0.00    +0.111 A 
ATOM     16  C   LIG    1      -11.237   1.068  13.068  0.00  0.00    +0.020 A 
ATOM     17  C   LIG    1      -12.083   0.048  12.658  0.00  0.00    +0.004 A 
ATOM     18  C   LIG    1      -11.583  -1.248  12.538  0.00  0.00    +0.030 A 
ENDBRANCH   3  13
TORSDOF 2
ENDMDL
MODEL 6
REMARK VINA RESULT:      -6.0      2.064      5.354
REMARK  Name = 
REMARK                            x       y       z     vdW  Elec       q    Type
REMARK                         _______ _______ _______ _____ _____    ______ ____
ROOT
ATOM      1  C   LIG    1       -6.293  -5.319  12.131  0.00  0.00    +0.090 A 
ATOM      2  N   LIG    1       -7.361  -4.475  12.118  0.00  0.00    -0.244 NA
ATOM      3  C   LIG    1       -7.369  -3.383  12.931  0.00  0.00    +0.090 A 
ATOM      4  C   LIG    1       -6.296  -3.111  13.779  0.00  0.00    +0.030 A 
ATOM      5  C   LIG    1       -5.208  -3.977  13.803  0.00  0.00    +0.004 A 
ATOM      6  C   LIG    1       -5.208  -5.093  12.975  0.00  0.00    +0.030 A 
ENDROOT
BRANCH   1   9
ATOM      7  C   LIG    1       -5.827  -8.750  10.597  0.00  0.00    +0.004 A 
ATOM      8  C   LIG    1       -5.737  -7.694  11.502  0.00  0.00    +0.030 A 
ATOM      9  C   LIG    1       -6.348  -6.474  11.204  0.00  0.00    +0.089 A 
ATOM     10  N   LIG    1       -7.034  -6.294  10.038  0.00  0.00    -0.253 NA
ATOM     11  C   LIG    1       -7.101  -7.335   9.177  0.00  0.00    +0.111 A 
ATOM     12  C   LIG    1       -6.522  -8.569   9.410  0.00  0.00    +0.020 A 
ENDBRANCH   1   9
BRANCH   3  13
ATOM     13  C   LIG    1       -8.576  -2.520  12.864  0.00  0.00    +0.089 A 
ATOM     14  N   LIG    1       -9.771  -3.125  13.109  0.00  0.00    -0.253 NA
ATOM     15  C   LIG    1      -10.892  -2.373  13.065  0.00  0.00    +0.111 A 
ATOM     16  C   LIG    1      -10.900  -1.021  12.778  0.00  0.00    +0.020 A 
ATOM     17  C   LIG    1       -9.685  -0.402  12.525  0.00  0.00    +0.004 A 
ATOM     18  C   LIG    1       -8.512  -1.154  12.572  0.00  0.00    +0.030 A 
ENDBRANCH   3  13
TORSDOF 2
ENDMDL
MODEL 7
REMARK VINA RESULT:      -5.5      2.234      6.239
REMARK  Name = 
REMARK                            x       y       z     vdW  Elec       q    Type
REMARK                         _______ _______ _______ _____ _____    ______ ____
ROOT
ATOM      1  C   LIG    1       -7.768  -3.867  11.261  0.00  0.00    +0.090 A 
ATOM      2  N   LIG    1       -8.711  -2.906  11.461  0.00  0.00    -0.244 NA
ATOM      3  C   LIG    1       -8.613  -2.077  12.536  0.00  0.00    +0.090 A 
ATOM      4  C   LIG    1       -7.557  -2.194  13.439  0.00  0.00    +0.030 A 
ATOM      5  C   LIG    1       -6.597  -3.182  13.244  0.00  0.00    +0.004 A 
ATOM      6  C   LIG    1       -6.706  -4.029  12.148  0.00  0.00    +0.030 A 
ENDROOT
BRANCH   1   9
ATOM      7  C   LIG    1       -8.532  -5.048   7.745  0.00  0.00    +0.004 A 
ATOM      8  C   LIG    1       -8.406  -4.206   8.848  0.00  0.00    +0.030 A 
ATOM      9  C   LIG    1       -7.931  -4.717  10.058  0.00  0.00    +0.089 A 
ATOM     10  N   LIG    1       -7.587  -6.032  10.183  0.00  0.00    -0.253 NA
ATOM     11  C   LIG    1       -7.724  -6.827   9.097  0.00  0.00    +0.111 A 
ATOM     12  C   LIG    1       -8.185  -6.386   7.870  0.00  0.00    +0.020 A 
ENDBRANCH   1   9
BRANCH   3  13
ATOM     13  C   LIG    1       -9.689  -1.065  12.688  0.00  0.00    +0.089 A 
ATOM     14  N   LIG    1      -10.956  -1.474  12.402  0.00  0.00    -0.253 NA
ATOM     15  C   LIG    1      -11.963  -0.585  12.535  0.00  0.00    +0.111 A 
ATOM     16  C   LIG    1      -11.785   0.725  12.939  0.00  0.00    +0.020 A 
ATOM     17  C   LIG    1      -10.495   1.146  13.229  0.00  0.00    +0.004 A 
ATOM     18  C   LIG    1       -9.438   0.245  13.107  0.00  0.00    +0.030 A 
ENDBRANCH   3  13
TORSDOF 2
ENDMDL
MODEL 8
REMARK VINA RESULT:      -5.4      1.896      3.207
REMARK  Name = 
REMARK                            x       y       z     vdW  Elec       q    Type
REMARK                         _______ _______ _______ _____ _____    ______ ____
ROOT
ATOM      1  C   LIG    1       -5.674  -5.341  13.250  0.00  0.00    +0.090 A 
ATOM      2  N   LIG    1       -6.301  -4.352  12.556  0.00  0.00    -0.244 NA
ATOM      3  C   LIG    1       -6.532  -4.505  11.223  0.00  0.00    +0.090 A 
ATOM      4  C   LIG    1       -6.137  -5.663  10.554  0.00  0.00    +0.030 A 
ATOM      5  C   LIG    1       -5.486  -6.670  11.258  0.00  0.00    +0.004 A 
ATOM      6  C   LIG    1       -5.249  -6.506  12.618  0.00  0.00    +0.030 A 
ENDROOT
BRANCH   1   9
ATOM      7  C   LIG    1       -6.307  -4.687  16.927  0.00  0.00    +0.004 A 
ATOM      8  C   LIG    1       -6.549  -4.889  15.569  0.00  0.00    +0.030 A 
ATOM      9  C   LIG    1       -5.477  -5.111  14.701  0.00  0.00    +0.089 A 
ATOM     10  N   LIG    1       -4.191  -5.131  15.158  0.00  0.00    -0.253 NA
ATOM     11  C   LIG    1       -3.987  -4.927  16.479  0.00  0.00    +0.111 A 
ATOM     12  C   LIG    1       -5.001  -4.705  17.393  0.00  0.00    +0.020 A 
ENDBRANCH   1   9
BRANCH   3  13
ATOM     13  C   LIG    1       -7.210  -3.375  10.538  0.00  0.00    +0.089 A 
ATOM     14  N   LIG    1       -7.684  -2.376  11.333  0.00  0.00    -0.253 NA
ATOM     15  C   LIG    1       -8.300  -1.327  10.747  0.00  0.00    +0.111 A 
ATOM     16  C   LIG    1       -8.487  -1.209   9.383  0.00  0.00    +0.020 A 
ATOM     17  C   LIG    1       -8.007  -2.226   8.570  0.00  0.00    +0.004 A 
ATOM     18  C   LIG    1       -7.360  -3.316   9.149  0.00  0.00    +0.030 A 
ENDBRANCH   3  13
TORSDOF 2
ENDMDL
MODEL 9
REMARK VINA RESULT:      -5.2      9.543     12.568
REMARK  Name = 
REMARK                            x       y       z     vdW  Elec       q    Type
REMARK                         _______ _______ _______ _____ _____    ______ ____
ROOT
ATOM      1  C   LIG    1       -8.260   7.776  10.067  0.00  0.00    +0.090 A 
ATOM      2  N   LIG    1       -8.865   6.662  10.562  0.00  0.00    -0.244 NA
ATOM      3  C   LIG    1       -8.694   6.326  11.870  0.00  0.00    +0.090 A 
ATOM      4  C   LIG    1       -7.908   7.107  12.716  0.00  0.00    +0.030 A 
ATOM      5  C   LIG    1       -7.279   8.240  12.211  0.00  0.00    +0.004 A 
ATOM      6  C   LIG    1       -7.453   8.576  10.874  0.00  0.00    +0.030 A 
ENDROOT
BRANCH   1   9
ATOM      7  C   LIG    1       -7.859   8.122   6.317  0.00  0.00    +0.004 A 
ATOM      8  C   LIG    1       -7.568   7.816   7.645  0.00  0.00    +0.030 A 
ATOM      9  C   LIG    1       -8.510   8.089   8.640  0.00  0.00    +0.089 A 
ATOM     10  N   LIG    1       -9.714   8.655   8.337  0.00  0.00    -0.253 NA
ATOM     11  C   LIG    1       -9.967   8.946   7.041  0.00  0.00    +0.111 A 
ATOM     12  C   LIG    1       -9.081   8.700   6.006  0.00  0.00    +0.020 A 
ENDBRANCH   1   9
BRANCH   3  13
ATOM     13  C   LIG    1       -9.378   5.089  12.327  0.00  0.00    +0.089 A 
ATOM     14  N   LIG    1      -10.364   4.605  11.522  0.00  0.00    -0.253 NA
ATOM     15  C   LIG    1      -11.005   3.478  11.899  0.00  0.00    +0.111 A 
ATOM     16  C   LIG    1      -10.725   2.787  13.063  0.00  0.00    +0.020 A 
ATOM     17  C   LIG    1       -9.722   3.278  13.887  0.00  0.00    +0.004 A 
ATOM     18  C   LIG    1       -9.039   4.436  13.516  0.00  0.00    +0.030 A 
ENDBRANCH   3  13
TORSDOF 2
ENDMDL
