MODEL 1
REMARK VINA RESULT:      -8.9      0.000      0.000
REMARK  Name = 
REMARK                            x       y       z     vdW  Elec       q    Type
REMARK                         _______ _______ _______ _____ _____    ______ ____
ROOT
ATOM      1  C   LIG    1       62.343  46.716  29.321  0.00  0.00    +0.090 A 
ATOM      2  N   LIG    1       61.111  46.204  29.590  0.00  0.00    -0.244 NA
ATOM      3  C   LIG    1       60.016  46.713  28.960  0.00  0.00    +0.090 A 
ATOM      4  C   LIG    1       60.136  47.753  28.040  0.00  0.00    +0.030 A 
ATOM      5  C   LIG    1       61.392  48.286  27.771  0.00  0.00    +0.004 A 
ATOM      6  C   LIG    1       62.506  47.766  28.420  0.00  0.00    +0.030 A 
ENDROOT
BRANCH   1   9
ATOM      7  C   LIG    1       65.504  44.771  30.076  0.00  0.00    +0.004 A 
ATOM      8  C   LIG    1       64.441  45.323  29.362  0.00  0.00    +0.030 A 
ATOM      9  C   LIG    1       63.489  46.097  30.029  0.00  0.00    +0.089 A 
ATOM     10  N   LIG    1       63.577  46.323  31.372  0.00  0.00    -0.253 NA
ATOM     11  C   LIG    1       64.615  45.770  32.039  0.00  0.00    +0.111 A 
ATOM     12  C   LIG    1       65.594  44.996  31.441  0.00  0.00    +0.020 A 
ENDBRANCH   1   9
BRANCH   3  13
ATOM     13  C   LIG    1       58.709  46.106  29.319  0.00  0.00    +0.089 A 
ATOM     14  N   LIG    1       58.748  44.990  30.099  0.00  0.00    -0.253 NA
ATOM     15  C   LIG    1       57.580  44.414  30.453  0.00  0.00    +0.111 A 
ATOM     16  C   LIG    1       56.340  44.885  30.064  0.00  0.00    +0.020 A 
ATOM     17  C   LIG    1       56.296  46.020  29.268  0.00  0.00    +0.004 A 
ATOM     18  C   LIG    1       57.488  46.640  28.894  0.00  0.00    +0.030 A 
ENDBRANCH   3  13
TORSDOF 2
ENDMDL
MODEL 2
REMARK VINA RESULT:      -8.9      0.051      6.147
REMARK  Name = 
REMARK                            x       y       z     vdW  Elec       q    Type
REMARK                         _______ _______ _______ _____ _____    ______ ____
ROOT
ATOM      1  C   LIG    1       59.973  46.700  28.970  0.00  0.00    +0.090 A 
ATOM      2  N   LIG    1       61.073  46.187  29.586  0.00  0.00    -0.244 NA
ATOM      3  C   LIG    1       62.301  46.713  29.321  0.00  0.00    +0.090 A 
ATOM      4  C   LIG    1       62.451  47.773  28.428  0.00  0.00    +0.030 A 
ATOM      5  C   LIG    1       61.329  48.292  27.789  0.00  0.00    +0.004 A 
ATOM      6  C   LIG    1       60.079  47.748  28.059  0.00  0.00    +0.030 A 
ENDROOT
BRANCH   1   9
ATOM      7  C   LIG    1       56.259  46.013  29.254  0.00  0.00    +0.004 A 
ATOM      8  C   LIG    1       57.455  46.633  28.898  0.00  0.00    +0.030 A 
ATOM      9  C   LIG    1       58.669  46.089  29.325  0.00  0.00    +0.089 A 
ATOM     10  N   LIG    1       58.707  44.959  30.088  0.00  0.00    -0.253 NA
ATOM     11  C   LIG    1       57.531  44.382  30.422  0.00  0.00    +0.111 A 
ATOM     12  C   LIG    1       56.295  44.865  30.032  0.00  0.00    +0.020 A 
ENDBRANCH   1   9
BRANCH   3  13
ATOM     13  C   LIG    1       63.450  46.089  30.024  0.00  0.00    +0.089 A 
ATOM     14  N   LIG    1       63.539  46.312  31.364  0.00  0.00    -0.253 NA
ATOM     15  C   LIG    1       64.566  45.754  32.041  0.00  0.00    +0.111 A 
ATOM     16  C   LIG    1       65.542  44.974  31.451  0.00  0.00    +0.020 A 
ATOM     17  C   LIG    1       65.457  44.746  30.085  0.00  0.00    +0.004 A 
ATOM     18  C   LIG    1       64.401  45.304  29.364  0.00  0.00    +0.030 A 
ENDBRANCH   3  13
TORSDOF 2
ENDMDL
MODEL 3
REMARK VINA RESULT:      -8.8      0.877      6.163
REMARK  Name = 
REMARK                            x       y       z     vdW  Elec       q    Type
REMARK                         _______ _______ _______ _____ _____    ______ ____
ROOT
ATOM      1  C   LIG    1       59.887  46.646  29.196  0.00  0.00    +0.090 A 
ATOM      2  N   LIG    1       60.849  46.321  30.103  0.00  0.00    -0.244 NA
ATOM      3  C   LIG    1       62.101  46.840  29.973  0.00  0.00    +0.090 A 
ATOM      4  C   LIG    1       62.416  47.704  28.924  0.00  0.00    +0.030 A 
ATOM      5  C   LIG    1       61.438  48.029  27.990  0.00  0.00    +0.004 A 
ATOM      6  C   LIG    1       60.163  47.492  28.125  0.00  0.00    +0.030 A 
ENDROOT
BRANCH   1   9
ATOM      7  C   LIG    1       56.150  46.035  29.114  0.00  0.00    +0.004 A 
ATOM      8  C   LIG    1       57.387  46.635  28.884  0.00  0.00    +0.030 A 
ATOM      9  C   LIG    1       58.544  46.058  29.415  0.00  0.00    +0.089 A 
ATOM     10  N   LIG    1       58.486  44.916  30.160  0.00  0.00    -0.253 NA
ATOM     11  C   LIG    1       57.271  44.360  30.371  0.00  0.00    +0.111 A 
ATOM     12  C   LIG    1       56.088  44.876  29.873  0.00  0.00    +0.020 A 
ENDBRANCH   1   9
BRANCH   3  13
ATOM     13  C   LIG    1       63.095  46.426  30.997  0.00  0.00    +0.089 A 
ATOM     14  N   LIG    1       64.344  46.124  30.546  0.00  0.00    -0.253 NA
ATOM     15  C   LIG    1       65.278  45.751  31.447  0.00  0.00    +0.111 A 
ATOM     16  C   LIG    1       65.039  45.649  32.805  0.00  0.00    +0.020 A 
ATOM     17  C   LIG    1       63.767  45.954  33.267  0.00  0.00    +0.004 A 
ATOM     18  C   LIG    1       62.786  46.349  32.358  0.00  0.00    +0.030 A 
ENDBRANCH   3  13
TORSDOF 2
ENDMDL
MODEL 4
REMARK VINA RESULT:      -8.8      0.863      1.385
REMARK  Name = 
REMARK                            x       y       z     vdW  Elec       q    Type
REMARK                         _______ _______ _______ _____ _____    ______ ____
ROOT
ATOM      1  C   LIG    1       62.091  46.864  29.976  0.00  0.00    +0.090 A 
ATOM      2  N   LIG    1       60.838  46.345  30.094  0.00  0.00    -0.244 NA
ATOM      3  C   LIG    1       59.877  46.690  29.193  0.00  0.00    +0.090 A 
ATOM      4  C   LIG    1       60.155  47.567  28.146  0.00  0.00    +0.030 A 
ATOM      5  C   LIG    1       61.432  48.107  28.029  0.00  0.00    +0.004 A 
ATOM      6  C   LIG    1       62.407  47.756  28.954  0.00  0.00    +0.030 A 
ENDROOT
BRANCH   1   9
ATOM      7  C   LIG    1       63.751  45.898  33.240  0.00  0.00    +0.004 A 
ATOM      8  C   LIG    1       62.777  46.324  32.339  0.00  0.00    +0.030 A 
ATOM      9  C   LIG    1       63.088  46.426  30.981  0.00  0.00    +0.089 A 
ATOM     10  N   LIG    1       64.333  46.116  30.517  0.00  0.00    -0.253 NA
ATOM     11  C   LIG    1       65.260  45.711  31.415  0.00  0.00    +0.111 A 
ATOM     12  C   LIG    1       65.019  45.586  32.771  0.00  0.00    +0.020 A 
ENDBRANCH   1   9
BRANCH   3  13
ATOM     13  C   LIG    1       58.534  46.089  29.401  0.00  0.00    +0.089 A 
ATOM     14  N   LIG    1       58.487  44.938  30.126  0.00  0.00    -0.253 NA
ATOM     15  C   LIG    1       57.284  44.366  30.344  0.00  0.00    +0.111 A 
ATOM     16  C   LIG    1       56.091  44.875  29.865  0.00  0.00    +0.020 A 
ATOM     17  C   LIG    1       56.136  46.047  29.123  0.00  0.00    +0.004 A 
ATOM     18  C   LIG    1       57.365  46.663  28.891  0.00  0.00    +0.030 A 
ENDBRANCH   3  13
TORSDOF 2
ENDMDL
MODEL 5
REMARK VINA RESULT:      -8.4      3.815      5.922
REMARK  Name = 
REMARK                            x       y       z     vdW  Elec       q    Type
REMARK                         _______ _______ _______ _____ _____    ______ ____
ROOT
ATOM      1  C   LIG    1       64.033  46.303  33.213  0.00  0.00    +0.090 A 
ATOM      2  N   LIG    1       63.580  46.022  31.960  0.00  0.00    -0.244 NA
ATOM      3  C   LIG    1       64.414  45.439  31.056  0.00  0.00    +0.090 A 
ATOM      4  C   LIG    1       65.729  45.120  31.393  0.00  0.00    +0.030 A 
ATOM      5  C   LIG    1       66.198  45.415  32.669  0.00  0.00    +0.004 A 
ATOM      6  C   LIG    1       65.344  46.016  33.586  0.00  0.00    +0.030 A 
ENDROOT
BRANCH   1   9
ATOM      7  C   LIG    1       60.851  47.137  35.090  0.00  0.00    +0.004 A 
ATOM      8  C   LIG    1       61.720  46.530  34.185  0.00  0.00    +0.030 A 
ATOM      9  C   LIG    1       63.062  46.919  34.148  0.00  0.00    +0.089 A 
ATOM     10  N   LIG    1       63.540  47.886  34.983  0.00  0.00    -0.253 NA
ATOM     11  C   LIG    1       62.673  48.460  35.847  0.00  0.00    +0.111 A 
ATOM     12  C   LIG    1       61.335  48.122  35.938  0.00  0.00    +0.020 A 
ENDBRANCH   1   9
BRANCH   3  13
ATOM     13  C   LIG    1       63.846  45.177  29.709  0.00  0.00    +0.089 A 
ATOM     14  N   LIG    1       63.572  46.268  28.941  0.00  0.00    -0.253 NA
ATOM     15  C   LIG    1       63.062  46.072  27.707  0.00  0.00    +0.111 A 
ATOM     16  C   LIG    1       62.791  44.825  27.176  0.00  0.00    +0.020 A 
ATOM     17  C   LIG    1       63.066  43.711  27.956  0.00  0.00    +0.004 A 
ATOM     18  C   LIG    1       63.601  43.886  29.232  0.00  0.00    +0.030 A 
ENDBRANCH   3  13
TORSDOF 2
ENDMDL
MODEL 6
REMARK VINA RESULT:      -8.3      2.044      4.720
REMARK  Name = 
REMARK                            x       y       z     vdW  Elec       q    Type
REMARK                         _______ _______ _______ _____ _____    ______ ____
ROOT
ATOM      1  C   LIG    1       64.436  45.773  32.247  0.00  0.00    +0.090 A 
ATOM      2  N   LIG    1       63.475  46.266  31.418  0.00  0.00    -0.244 NA
ATOM      3  C   LIG    1       63.584  46.081  30.074  0.00  0.00    +0.090 A 
ATOM      4  C   LIG    1       64.666  45.391  29.529  0.00  0.00    +0.030 A 
ATOM      5  C   LIG    1       65.655  44.895  30.372  0.00  0.00    +0.004 A 
ATOM      6  C   LIG    1       65.541  45.091  31.743  0.00  0.00    +0.030 A 
ENDROOT
BRANCH   1   9
ATOM      7  C   LIG    1       63.729  47.402  35.592  0.00  0.00    +0.004 A 
ATOM      8  C   LIG    1       63.912  47.251  34.219  0.00  0.00    +0.030 A 
ATOM      9  C   LIG    1       64.238  45.996  33.699  0.00  0.00    +0.089 A 
ATOM     10  N   LIG    1       64.382  44.910  34.513  0.00  0.00    -0.253 NA
ATOM     11  C   LIG    1       64.203  45.087  35.841  0.00  0.00    +0.111 A 
ATOM     12  C   LIG    1       63.877  46.300  36.422  0.00  0.00    +0.020 A 
ENDBRANCH   1   9
BRANCH   3  13
ATOM     13  C   LIG    1       62.501  46.661  29.239  0.00  0.00    +0.089 A 
ATOM     14  N   LIG    1       61.284  46.053  29.312  0.00  0.00    -0.253 NA
ATOM     15  C   LIG    1       60.271  46.556  28.574  0.00  0.00    +0.111 A 
ATOM     16  C   LIG    1       60.397  47.650  27.739  0.00  0.00    +0.020 A 
ATOM     17  C   LIG    1       61.635  48.271  27.661  0.00  0.00    +0.004 A 
ATOM     18  C   LIG    1       62.696  47.776  28.419  0.00  0.00    +0.030 A 
ENDBRANCH   3  13
TORSDOF 2
ENDMDL
MODEL 7
REMARK VINA RESULT:      -8.1      1.781      2.896
REMARK  Name = 
REMARK                            x       y       z     vdW  Elec       q    Type
REMARK                         _______ _______ _______ _____ _____    ______ ____
ROOT
ATOM      1  C   LIG    1       61.721  46.633  30.264  0.00  0.00    +0.090 A 
ATOM      2  N   LIG    1       60.468  46.297  29.853  0.00  0.00    -0.244 NA
ATOM      3  C   LIG    1       59.492  46.074  30.775  0.00  0.00    +0.090 A 
ATOM      4  C   LIG    1       59.754  46.186  32.140  0.00  0.00    +0.030 A 
ATOM      5  C   LIG    1       61.037  46.518  32.564  0.00  0.00    +0.004 A 
ATOM      6  C   LIG    1       62.030  46.740  31.618  0.00  0.00    +0.030 A 
ENDROOT
BRANCH   1   9
ATOM      7  C   LIG    1       63.601  48.156  27.350  0.00  0.00    +0.004 A 
ATOM      8  C   LIG    1       62.624  47.965  28.326  0.00  0.00    +0.030 A 
ATOM      9  C   LIG    1       62.724  46.882  29.202  0.00  0.00    +0.089 A 
ATOM     10  N   LIG    1       63.764  46.001  29.120  0.00  0.00    -0.253 NA
ATOM     11  C   LIG    1       64.694  46.209  28.160  0.00  0.00    +0.111 A 
ATOM     12  C   LIG    1       64.657  47.261  27.263  0.00  0.00    +0.020 A 
ENDBRANCH   1   9
BRANCH   3  13
ATOM     13  C   LIG    1       58.156  45.701  30.243  0.00  0.00    +0.089 A 
ATOM     14  N   LIG    1       57.356  44.968  31.066  0.00  0.00    -0.253 NA
ATOM     15  C   LIG    1       56.130  44.616  30.622  0.00  0.00    +0.111 A 
ATOM     16  C   LIG    1       55.640  44.948  29.373  0.00  0.00    +0.020 A 
ATOM     17  C   LIG    1       56.454  45.692  28.531  0.00  0.00    +0.004 A 
ATOM     18  C   LIG    1       57.721  46.076  28.969  0.00  0.00    +0.030 A 
ENDBRANCH   3  13
TORSDOF 2
ENDMDL
MODEL 8
REMARK VINA RESULT:      -8.1      1.699      3.272
REMARK  Name = 
REMARK                            x       y       z     vdW  Elec       q    Type
REMARK                         _______ _______ _______ _____ _____    ______ ____
ROOT
ATOM      1  C   LIG    1       64.070  44.701  30.681  0.00  0.00    +0.090 A 
ATOM      2  N   LIG    1       62.890  45.359  30.507  0.00  0.00    -0.244 NA
ATOM      3  C   LIG    1       62.184  45.183  29.357  0.00  0.00    +0.090 A 
ATOM      4  C   LIG    1       62.647  44.336  28.351  0.00  0.00    +0.030 A 
ATOM      5  C   LIG    1       63.857  43.671  28.522  0.00  0.00    +0.004 A 
ATOM      6  C   LIG    1       64.577  43.858  29.695  0.00  0.00    +0.030 A 
ENDROOT
BRANCH   1   9
ATOM      7  C   LIG    1       65.444  44.240  34.180  0.00  0.00    +0.004 A 
ATOM      8  C   LIG    1       64.760  43.980  32.994  0.00  0.00    +0.030 A 
ATOM      9  C   LIG    1       64.771  44.927  31.967  0.00  0.00    +0.089 A 
ATOM     10  N   LIG    1       65.441  46.108  32.103  0.00  0.00    -0.253 NA
ATOM     11  C   LIG    1       66.092  46.335  33.267  0.00  0.00    +0.111 A 
ATOM     12  C   LIG    1       66.124  45.441  34.322  0.00  0.00    +0.020 A 
ENDBRANCH   1   9
BRANCH   3  13
ATOM     13  C   LIG    1       60.914  45.946  29.241  0.00  0.00    +0.089 A 
ATOM     14  N   LIG    1       59.772  45.282  29.568  0.00  0.00    -0.253 NA
ATOM     15  C   LIG    1       58.598  45.944  29.483  0.00  0.00    +0.111 A 
ATOM     16  C   LIG    1       58.485  47.259  29.075  0.00  0.00    +0.020 A 
ATOM     17  C   LIG    1       59.647  47.939  28.738  0.00  0.00    +0.004 A 
ATOM     18  C   LIG    1       60.873  47.280  28.825  0.00  0.00    +0.030 A 
ENDBRANCH   3  13
TORSDOF 2
ENDMDL
MODEL 9
REMARK VINA RESULT:      -7.5      2.793      5.335
REMARK  Name = 
REMARK                            x       y       z     vdW  Elec       q    Type
REMARK                         _______ _______ _______ _____ _____    ______ ____
ROOT
ATOM      1  C   LIG    1       62.002  46.544  32.727  0.00  0.00    +0.090 A 
ATOM      2  N   LIG    1       62.718  46.770  31.591  0.00  0.00    -0.244 NA
ATOM      3  C   LIG    1       62.079  46.812  30.389  0.00  0.00    +0.090 A 
ATOM      4  C   LIG    1       60.700  46.629  30.301  0.00  0.00    +0.030 A 
ATOM      5  C   LIG    1       59.968  46.387  31.459  0.00  0.00    +0.004 A 
ATOM      6  C   LIG    1       60.625  46.340  32.683  0.00  0.00    +0.030 A 
ENDROOT
BRANCH   1   9
ATOM      7  C   LIG    1       63.465  47.545  36.074  0.00  0.00    +0.004 A 
ATOM      8  C   LIG    1       62.737  47.611  34.887  0.00  0.00    +0.030 A 
ATOM      9  C   LIG    1       62.763  46.533  33.999  0.00  0.00    +0.089 A 
ATOM     10  N   LIG    1       63.492  45.412  34.271  0.00  0.00    -0.253 NA
ATOM     11  C   LIG    1       64.192  45.378  35.427  0.00  0.00    +0.111 A 
ATOM     12  C   LIG    1       64.208  46.407  36.351  0.00  0.00    +0.020 A 
ENDBRANCH   1   9
BRANCH   3  13
ATOM     13  C   LIG    1       62.934  47.051  29.198  0.00  0.00    +0.089 A 
ATOM     14  N   LIG    1       63.948  46.167  28.988  0.00  0.00    -0.253 NA
ATOM     15  C   LIG    1       64.742  46.346  27.911  0.00  0.00    +0.111 A 
ATOM     16  C   LIG    1       64.593  47.382  27.009  0.00  0.00    +0.020 A 
ATOM     17  C   LIG    1       63.562  48.287  27.221  0.00  0.00    +0.004 A 
ATOM     18  C   LIG    1       62.722  48.120  28.321  0.00  0.00    +0.030 A 
ENDBRANCH   3  13
TORSDOF 2
ENDMDL
