MODEL 1
REMARK VINA RESULT:      -8.9      0.000      0.000
REMARK  Name = 
REMARK                            x       y       z     vdW  Elec       q    Type
REMARK                         _______ _______ _______ _____ _____    ______ ____
ROOT
ATOM      1  C   LIG    1       42.490  -2.185  17.250  0.00  0.00    +0.090 A 
ATOM      2  N   LIG    1       41.489  -2.188  16.328  0.00  0.00    -0.244 NA
ATOM      3  C   LIG    1       40.479  -1.281  16.425  0.00  0.00    +0.090 A 
ATOM      4  C   LIG    1       40.452  -0.343  17.457  0.00  0.00    +0.030 A 
ATOM      5  C   LIG    1       41.468  -0.345  18.408  0.00  0.00    +0.004 A 
ATOM      6  C   LIG    1       42.494  -1.276  18.306  0.00  0.00    +0.030 A 
ENDROOT
BRANCH   1   9
ATOM      7  C   LIG    1       44.514  -5.126  15.986  0.00  0.00    +0.004 A 
ATOM      8  C   LIG    1       43.468  -4.214  16.123  0.00  0.00    +0.030 A 
ATOM      9  C   LIG    1       43.565  -3.188  17.066  0.00  0.00    +0.089 A 
ATOM     10  N   LIG    1       44.668  -3.060  17.860  0.00  0.00    -0.253 NA
ATOM     11  C   LIG    1       45.664  -3.962  17.708  0.00  0.00    +0.111 A 
ATOM     12  C   LIG    1       45.634  -5.000  16.794  0.00  0.00    +0.020 A 
ENDBRANCH   1   9
BRANCH   3  13
ATOM     13  C   LIG    1       39.420  -1.360  15.386  0.00  0.00    +0.089 A 
ATOM     14  N   LIG    1       39.716  -2.079  14.268  0.00  0.00    -0.253 NA
ATOM     15  C   LIG    1       38.777  -2.180  13.304  0.00  0.00    +0.111 A 
ATOM     16  C   LIG    1       37.530  -1.590  13.379  0.00  0.00    +0.020 A 
ATOM     17  C   LIG    1       37.225  -0.855  14.516  0.00  0.00    +0.004 A 
ATOM     18  C   LIG    1       38.175  -0.740  15.530  0.00  0.00    +0.030 A 
ENDBRANCH   3  13
TORSDOF 2
ENDMDL
MODEL 2
REMARK VINA RESULT:      -8.9      0.051      6.208
REMARK  Name = 
REMARK                            x       y       z     vdW  Elec       q    Type
REMARK                         _______ _______ _______ _____ _____    ______ ____
ROOT
ATOM      1  C   LIG    1       40.493  -1.274  16.436  0.00  0.00    +0.090 A 
ATOM      2  N   LIG    1       41.517  -2.167  16.344  0.00  0.00    -0.244 NA
ATOM      3  C   LIG    1       42.507  -2.156  17.278  0.00  0.00    +0.090 A 
ATOM      4  C   LIG    1       42.491  -1.243  18.331  0.00  0.00    +0.030 A 
ATOM      5  C   LIG    1       41.453  -0.322  18.422  0.00  0.00    +0.004 A 
ATOM      6  C   LIG    1       40.447  -0.335  17.463  0.00  0.00    +0.030 A 
ENDROOT
BRANCH   1   9
ATOM      7  C   LIG    1       37.257  -0.828  14.519  0.00  0.00    +0.004 A 
ATOM      8  C   LIG    1       38.207  -0.720  15.533  0.00  0.00    +0.030 A 
ATOM      9  C   LIG    1       39.441  -1.361  15.395  0.00  0.00    +0.089 A 
ATOM     10  N   LIG    1       39.735  -2.096  14.283  0.00  0.00    -0.253 NA
ATOM     11  C   LIG    1       38.792  -2.187  13.319  0.00  0.00    +0.111 A 
ATOM     12  C   LIG    1       37.552  -1.577  13.389  0.00  0.00    +0.020 A 
ENDBRANCH   1   9
BRANCH   3  13
ATOM     13  C   LIG    1       43.592  -3.154  17.098  0.00  0.00    +0.089 A 
ATOM     14  N   LIG    1       44.682  -3.022  17.904  0.00  0.00    -0.253 NA
ATOM     15  C   LIG    1       45.686  -3.915  17.776  0.00  0.00    +0.111 A 
ATOM     16  C   LIG    1       45.679  -4.956  16.867  0.00  0.00    +0.020 A 
ATOM     17  C   LIG    1       44.572  -5.093  16.042  0.00  0.00    +0.004 A 
ATOM     18  C   LIG    1       43.517  -4.188  16.159  0.00  0.00    +0.030 A 
ENDBRANCH   3  13
TORSDOF 2
ENDMDL
MODEL 3
REMARK VINA RESULT:      -8.8      1.661      2.130
REMARK  Name = 
REMARK                            x       y       z     vdW  Elec       q    Type
REMARK                         _______ _______ _______ _____ _____    ______ ____
ROOT
ATOM      1  C   LIG    1       43.815  -2.354  17.792  0.00  0.00    +0.090 A 
ATOM      2  N   LIG    1       42.986  -2.470  16.718  0.00  0.00    -0.244 NA
ATOM      3  C   LIG    1       41.861  -1.706  16.650  0.00  0.00    +0.090 A 
ATOM      4  C   LIG    1       41.542  -0.803  17.663  0.00  0.00    +0.030 A 
ATOM      5  C   LIG    1       42.382  -0.691  18.767  0.00  0.00    +0.004 A 
ATOM      6  C   LIG    1       43.526  -1.476  18.834  0.00  0.00    +0.030 A 
ENDROOT
BRANCH   1   9
ATOM      7  C   LIG    1       47.051  -4.043  18.801  0.00  0.00    +0.004 A 
ATOM      8  C   LIG    1       45.928  -3.220  18.856  0.00  0.00    +0.030 A 
ATOM      9  C   LIG    1       45.031  -3.202  17.785  0.00  0.00    +0.089 A 
ATOM     10  N   LIG    1       45.234  -3.977  16.681  0.00  0.00    -0.253 NA
ATOM     11  C   LIG    1       46.335  -4.762  16.653  0.00  0.00    +0.111 A 
ATOM     12  C   LIG    1       47.262  -4.830  17.678  0.00  0.00    +0.020 A 
ENDBRANCH   1   9
BRANCH   3  13
ATOM     13  C   LIG    1       41.004  -1.902  15.452  0.00  0.00    +0.089 A 
ATOM     14  N   LIG    1       41.300  -1.142  14.361  0.00  0.00    -0.253 NA
ATOM     15  C   LIG    1       40.549  -1.297  13.249  0.00  0.00    +0.111 A 
ATOM     16  C   LIG    1       39.488  -2.178  13.154  0.00  0.00    +0.020 A 
ATOM     17  C   LIG    1       39.183  -2.952  14.264  0.00  0.00    +0.004 A 
ATOM     18  C   LIG    1       39.948  -2.817  15.422  0.00  0.00    +0.030 A 
ENDBRANCH   3  13
TORSDOF 2
ENDMDL
MODEL 4
REMARK VINA RESULT:      -8.8      2.203      3.305
REMARK  Name = 
REMARK                            x       y       z     vdW  Elec       q    Type
REMARK                         _______ _______ _______ _____ _____    ______ ____
ROOT
ATOM      1  C   LIG    1       41.548  -2.077  16.676  0.00  0.00    +0.090 A 
ATOM      2  N   LIG    1       40.798  -0.967  16.917  0.00  0.00    -0.244 NA
ATOM      3  C   LIG    1       39.569  -0.845  16.345  0.00  0.00    +0.090 A 
ATOM      4  C   LIG    1       39.061  -1.843  15.515  0.00  0.00    +0.030 A 
ATOM      5  C   LIG    1       39.828  -2.975  15.258  0.00  0.00    +0.004 A 
ATOM      6  C   LIG    1       41.085  -3.091  15.841  0.00  0.00    +0.030 A 
ENDROOT
BRANCH   1   9
ATOM      7  C   LIG    1       44.965  -3.239  17.824  0.00  0.00    +0.004 A 
ATOM      8  C   LIG    1       43.733  -3.229  17.172  0.00  0.00    +0.030 A 
ATOM      9  C   LIG    1       42.866  -2.148  17.351  0.00  0.00    +0.089 A 
ATOM     10  N   LIG    1       43.202  -1.099  18.156  0.00  0.00    -0.253 NA
ATOM     11  C   LIG    1       44.401  -1.139  18.779  0.00  0.00    +0.111 A 
ATOM     12  C   LIG    1       45.307  -2.175  18.645  0.00  0.00    +0.020 A 
ENDBRANCH   1   9
BRANCH   3  13
ATOM     13  C   LIG    1       38.822   0.403  16.649  0.00  0.00    +0.089 A 
ATOM     14  N   LIG    1       39.562   1.474  17.048  0.00  0.00    -0.253 NA
ATOM     15  C   LIG    1       38.920   2.629  17.326  0.00  0.00    +0.111 A 
ATOM     16  C   LIG    1       37.550   2.788  17.238  0.00  0.00    +0.020 A 
ATOM     17  C   LIG    1       36.792   1.698  16.834  0.00  0.00    +0.004 A 
ATOM     18  C   LIG    1       37.432   0.495  16.533  0.00  0.00    +0.030 A 
ENDBRANCH   3  13
TORSDOF 2
ENDMDL
MODEL 5
REMARK VINA RESULT:      -8.5      3.448      4.853
REMARK  Name = 
REMARK                            x       y       z     vdW  Elec       q    Type
REMARK                         _______ _______ _______ _____ _____    ______ ____
ROOT
ATOM      1  C   LIG    1       39.974  -0.192  16.859  0.00  0.00    +0.090 A 
ATOM      2  N   LIG    1       39.595   1.104  16.687  0.00  0.00    -0.244 NA
ATOM      3  C   LIG    1       38.303   1.392  16.369  0.00  0.00    +0.090 A 
ATOM      4  C   LIG    1       37.356   0.379  16.220  0.00  0.00    +0.030 A 
ATOM      5  C   LIG    1       37.743  -0.947  16.385  0.00  0.00    +0.004 A 
ATOM      6  C   LIG    1       39.065  -1.235  16.704  0.00  0.00    +0.030 A 
ENDROOT
BRANCH   1   9
ATOM      7  C   LIG    1       43.120  -1.020  18.799  0.00  0.00    +0.004 A 
ATOM      8  C   LIG    1       41.773  -0.805  18.513  0.00  0.00    +0.030 A 
ATOM      9  C   LIG    1       41.392  -0.426  17.224  0.00  0.00    +0.089 A 
ATOM     10  N   LIG    1       42.316  -0.259  16.234  0.00  0.00    -0.253 NA
ATOM     11  C   LIG    1       43.616  -0.470  16.542  0.00  0.00    +0.111 A 
ATOM     12  C   LIG    1       44.062  -0.849  17.796  0.00  0.00    +0.020 A 
ENDBRANCH   1   9
BRANCH   3  13
ATOM     13  C   LIG    1       37.974   2.829  16.186  0.00  0.00    +0.089 A 
ATOM     14  N   LIG    1       36.900   3.114  15.399  0.00  0.00    -0.253 NA
ATOM     15  C   LIG    1       36.565   4.409  15.215  0.00  0.00    +0.111 A 
ATOM     16  C   LIG    1       37.255   5.469  15.772  0.00  0.00    +0.020 A 
ATOM     17  C   LIG    1       38.351   5.183  16.573  0.00  0.00    +0.004 A 
ATOM     18  C   LIG    1       38.714   3.853  16.786  0.00  0.00    +0.030 A 
ENDBRANCH   3  13
TORSDOF 2
ENDMDL
MODEL 6
REMARK VINA RESULT:      -8.5      2.280      6.814
REMARK  Name = 
REMARK                            x       y       z     vdW  Elec       q    Type
REMARK                         _______ _______ _______ _____ _____    ______ ____
ROOT
ATOM      1  C   LIG    1       39.828  -0.405  15.962  0.00  0.00    +0.090 A 
ATOM      2  N   LIG    1       40.988  -0.677  16.619  0.00  0.00    -0.244 NA
ATOM      3  C   LIG    1       41.505  -1.936  16.584  0.00  0.00    +0.090 A 
ATOM      4  C   LIG    1       40.865  -2.956  15.880  0.00  0.00    +0.030 A 
ATOM      5  C   LIG    1       39.673  -2.684  15.216  0.00  0.00    +0.004 A 
ATOM      6  C   LIG    1       39.148  -1.398  15.260  0.00  0.00    +0.030 A 
ENDROOT
BRANCH   1   9
ATOM      7  C   LIG    1       38.681   2.967  17.250  0.00  0.00    +0.004 A 
ATOM      8  C   LIG    1       39.134   1.648  17.245  0.00  0.00    +0.030 A 
ATOM      9  C   LIG    1       39.339   0.993  16.029  0.00  0.00    +0.089 A 
ATOM     10  N   LIG    1       39.102   1.619  14.840  0.00  0.00    -0.253 NA
ATOM     11  C   LIG    1       38.659   2.896  14.876  0.00  0.00    +0.111 A 
ATOM     12  C   LIG    1       38.437   3.605  16.043  0.00  0.00    +0.020 A 
ENDBRANCH   1   9
BRANCH   3  13
ATOM     13  C   LIG    1       42.767  -2.152  17.337  0.00  0.00    +0.089 A 
ATOM     14  N   LIG    1       43.538  -3.204  16.946  0.00  0.00    -0.253 NA
ATOM     15  C   LIG    1       44.696  -3.428  17.602  0.00  0.00    +0.111 A 
ATOM     16  C   LIG    1       45.146  -2.656  18.656  0.00  0.00    +0.020 A 
ATOM     17  C   LIG    1       44.362  -1.584  19.059  0.00  0.00    +0.004 A 
ATOM     18  C   LIG    1       43.164  -1.326  18.393  0.00  0.00    +0.030 A 
ENDBRANCH   3  13
TORSDOF 2
ENDMDL
MODEL 7
REMARK VINA RESULT:      -8.4      3.123      7.346
REMARK  Name = 
REMARK                            x       y       z     vdW  Elec       q    Type
REMARK                         _______ _______ _______ _____ _____    ______ ____
ROOT
ATOM      1  C   LIG    1       38.385   0.898  16.387  0.00  0.00    +0.090 A 
ATOM      2  N   LIG    1       39.618   0.454  16.754  0.00  0.00    -0.244 NA
ATOM      3  C   LIG    1       39.858  -0.884  16.829  0.00  0.00    +0.090 A 
ATOM      4  C   LIG    1       38.860  -1.811  16.533  0.00  0.00    +0.030 A 
ATOM      5  C   LIG    1       37.595  -1.360  16.169  0.00  0.00    +0.004 A 
ATOM      6  C   LIG    1       37.354   0.007  16.099  0.00  0.00    +0.030 A 
ENDROOT
BRANCH   1   9
ATOM      7  C   LIG    1       38.802   4.626  16.912  0.00  0.00    +0.004 A 
ATOM      8  C   LIG    1       39.008   3.253  17.031  0.00  0.00    +0.030 A 
ATOM      9  C   LIG    1       38.205   2.368  16.308  0.00  0.00    +0.089 A 
ATOM     10  N   LIG    1       37.216   2.823  15.486  0.00  0.00    -0.253 NA
ATOM     11  C   LIG    1       37.035   4.160  15.394  0.00  0.00    +0.111 A 
ATOM     12  C   LIG    1       37.795   5.091  16.079  0.00  0.00    +0.020 A 
ENDBRANCH   1   9
BRANCH   3  13
ATOM     13  C   LIG    1       41.226  -1.285  17.248  0.00  0.00    +0.089 A 
ATOM     14  N   LIG    1       41.793  -0.558  18.250  0.00  0.00    -0.253 NA
ATOM     15  C   LIG    1       43.033  -0.897  18.665  0.00  0.00    +0.111 A 
ATOM     16  C   LIG    1       43.768  -1.936  18.125  0.00  0.00    +0.020 A 
ATOM     17  C   LIG    1       43.194  -2.677  17.102  0.00  0.00    +0.004 A 
ATOM     18  C   LIG    1       41.911  -2.353  16.661  0.00  0.00    +0.030 A 
ENDBRANCH   3  13
TORSDOF 2
ENDMDL
MODEL 8
REMARK VINA RESULT:      -8.3      3.116      4.380
REMARK  Name = 
REMARK                            x       y       z     vdW  Elec       q    Type
REMARK                         _______ _______ _______ _____ _____    ______ ____
ROOT
ATOM      1  C   LIG    1       39.946  -0.920  16.858  0.00  0.00    +0.090 A 
ATOM      2  N   LIG    1       39.697   0.415  16.765  0.00  0.00    -0.244 NA
ATOM      3  C   LIG    1       38.456   0.846  16.407  0.00  0.00    +0.090 A 
ATOM      4  C   LIG    1       37.432  -0.059  16.134  0.00  0.00    +0.030 A 
ATOM      5  C   LIG    1       37.687  -1.424  16.217  0.00  0.00    +0.004 A 
ATOM      6  C   LIG    1       38.956  -1.859  16.579  0.00  0.00    +0.030 A 
ENDROOT
BRANCH   1   9
ATOM      7  C   LIG    1       43.255  -2.741  17.151  0.00  0.00    +0.004 A 
ATOM      8  C   LIG    1       41.965  -2.422  16.729  0.00  0.00    +0.030 A 
ATOM      9  C   LIG    1       41.314  -1.313  17.274  0.00  0.00    +0.089 A 
ATOM     10  N   LIG    1       41.917  -0.533  18.217  0.00  0.00    -0.253 NA
ATOM     11  C   LIG    1       43.166  -0.869  18.611  0.00  0.00    +0.111 A 
ATOM     12  C   LIG    1       43.869  -1.951  18.111  0.00  0.00    +0.020 A 
ENDBRANCH   1   9
BRANCH   3  13
ATOM     13  C   LIG    1       38.272   2.317  16.317  0.00  0.00    +0.089 A 
ATOM     14  N   LIG    1       39.022   3.078  17.160  0.00  0.00    -0.253 NA
ATOM     15  C   LIG    1       38.888   4.421  17.104  0.00  0.00    +0.111 A 
ATOM     16  C   LIG    1       38.025   5.072  16.243  0.00  0.00    +0.020 A 
ATOM     17  C   LIG    1       37.257   4.300  15.384  0.00  0.00    +0.004 A 
ATOM     18  C   LIG    1       37.382   2.911  15.416  0.00  0.00    +0.030 A 
ENDBRANCH   3  13
TORSDOF 2
ENDMDL
MODEL 9
REMARK VINA RESULT:      -8.3      3.528      7.906
REMARK  Name = 
REMARK                            x       y       z     vdW  Elec       q    Type
REMARK                         _______ _______ _______ _____ _____    ______ ____
ROOT
ATOM      1  C   LIG    1       37.819   1.616  15.302  0.00  0.00    +0.090 A 
ATOM      2  N   LIG    1       38.938   1.298  16.009  0.00  0.00    -0.244 NA
ATOM      3  C   LIG    1       39.308  -0.006  16.135  0.00  0.00    +0.090 A 
ATOM      4  C   LIG    1       38.559  -1.025  15.549  0.00  0.00    +0.030 A 
ATOM      5  C   LIG    1       37.409  -0.704  14.835  0.00  0.00    +0.004 A 
ATOM      6  C   LIG    1       37.033   0.628  14.714  0.00  0.00    +0.030 A 
ENDROOT
BRANCH   1   9
ATOM      7  C   LIG    1       37.525   5.324  16.020  0.00  0.00    +0.004 A 
ATOM      8  C   LIG    1       37.850   3.978  16.180  0.00  0.00    +0.030 A 
ATOM      9  C   LIG    1       37.492   3.058  15.191  0.00  0.00    +0.089 A 
ATOM     10  N   LIG    1       36.825   3.452  14.068  0.00  0.00    -0.253 NA
ATOM     11  C   LIG    1       36.518   4.763  13.942  0.00  0.00    +0.111 A 
ATOM     12  C   LIG    1       36.845   5.726  14.880  0.00  0.00    +0.020 A 
ENDBRANCH   1   9
BRANCH   3  13
ATOM     13  C   LIG    1       40.534  -0.268  16.932  0.00  0.00    +0.089 A 
ATOM     14  N   LIG    1       41.710  -0.305  16.247  0.00  0.00    -0.253 NA
ATOM     15  C   LIG    1       42.848  -0.533  16.937  0.00  0.00    +0.111 A 
ATOM     16  C   LIG    1       42.891  -0.740  18.303  0.00  0.00    +0.020 A 
ATOM     17  C   LIG    1       41.694  -0.706  19.004  0.00  0.00    +0.004 A 
ATOM     18  C   LIG    1       40.505  -0.464  18.316  0.00  0.00    +0.030 A 
ENDBRANCH   3  13
TORSDOF 2
ENDMDL
