MODEL 1
REMARK VINA RESULT:      -7.8      0.000      0.000
REMARK  Name = 
REMARK                            x       y       z     vdW  Elec       q    Type
REMARK                         _______ _______ _______ _____ _____    ______ ____
ROOT
ATOM      1  C   LIG    1       18.174  29.324  10.024  0.00  0.00    +0.090 A 
ATOM      2  N   LIG    1       18.673  29.452  11.284  0.00  0.00    -0.244 NA
ATOM      3  C   LIG    1       19.813  28.792  11.628  0.00  0.00    +0.090 A 
ATOM      4  C   LIG    1       20.482  27.985  10.708  0.00  0.00    +0.030 A 
ATOM      5  C   LIG    1       19.968  27.843   9.424  0.00  0.00    +0.004 A 
ATOM      6  C   LIG    1       18.801  28.515   9.079  0.00  0.00    +0.030 A 
ENDROOT
BRANCH   1   9
ATOM      7  C   LIG    1       14.947  30.492   8.421  0.00  0.00    +0.004 A 
ATOM      8  C   LIG    1       16.098  29.742   8.659  0.00  0.00    +0.030 A 
ATOM      9  C   LIG    1       16.942  30.089   9.717  0.00  0.00    +0.089 A 
ATOM     10  N   LIG    1       16.661  31.153  10.525  0.00  0.00    -0.253 NA
ATOM     11  C   LIG    1       15.541  31.864  10.267  0.00  0.00    +0.111 A 
ATOM     12  C   LIG    1       14.661  31.575   9.239  0.00  0.00    +0.020 A 
ENDBRANCH   1   9
BRANCH   3  13
ATOM     13  C   LIG    1       20.284  28.976  13.025  0.00  0.00    +0.089 A 
ATOM     14  N   LIG    1       21.583  29.351  13.185  0.00  0.00    -0.253 NA
ATOM     15  C   LIG    1       22.047  29.536  14.440  0.00  0.00    +0.111 A 
ATOM     16  C   LIG    1       21.281  29.360  15.577  0.00  0.00    +0.020 A 
ATOM     17  C   LIG    1       19.957  28.976  15.417  0.00  0.00    +0.004 A 
ATOM     18  C   LIG    1       19.451  28.786  14.132  0.00  0.00    +0.030 A 
ENDBRANCH   3  13
TORSDOF 2
ENDMDL
MODEL 2
REMARK VINA RESULT:      -7.8      0.025      6.160
REMARK  Name = 
REMARK                            x       y       z     vdW  Elec       q    Type
REMARK                         _______ _______ _______ _____ _____    ______ ____
ROOT
ATOM      1  C   LIG    1       19.810  28.800  11.635  0.00  0.00    +0.090 A 
ATOM      2  N   LIG    1       18.670  29.455  11.282  0.00  0.00    -0.244 NA
ATOM      3  C   LIG    1       18.172  29.313  10.023  0.00  0.00    +0.090 A 
ATOM      4  C   LIG    1       18.811  28.503   9.085  0.00  0.00    +0.030 A 
ATOM      5  C   LIG    1       19.982  27.841   9.439  0.00  0.00    +0.004 A 
ATOM      6  C   LIG    1       20.489  27.994  10.724  0.00  0.00    +0.030 A 
ENDROOT
BRANCH   1   9
ATOM      7  C   LIG    1       19.926  28.996  15.416  0.00  0.00    +0.004 A 
ATOM      8  C   LIG    1       19.431  28.816  14.126  0.00  0.00    +0.030 A 
ATOM      9  C   LIG    1       20.279  28.987  13.029  0.00  0.00    +0.089 A 
ATOM     10  N   LIG    1       21.589  29.331  13.196  0.00  0.00    -0.253 NA
ATOM     11  C   LIG    1       22.040  29.505  14.459  0.00  0.00    +0.111 A 
ATOM     12  C   LIG    1       21.257  29.348  15.588  0.00  0.00    +0.020 A 
ENDBRANCH   1   9
BRANCH   3  13
ATOM     13  C   LIG    1       16.932  30.071   9.716  0.00  0.00    +0.089 A 
ATOM     14  N   LIG    1       16.667  31.150  10.502  0.00  0.00    -0.253 NA
ATOM     15  C   LIG    1       15.553  31.870  10.249  0.00  0.00    +0.111 A 
ATOM     16  C   LIG    1       14.657  31.571   9.241  0.00  0.00    +0.020 A 
ATOM     17  C   LIG    1       14.922  30.471   8.439  0.00  0.00    +0.004 A 
ATOM     18  C   LIG    1       16.071  29.715   8.674  0.00  0.00    +0.030 A 
ENDBRANCH   3  13
TORSDOF 2
ENDMDL
MODEL 3
REMARK VINA RESULT:      -7.7      2.631      4.663
REMARK  Name = 
REMARK                            x       y       z     vdW  Elec       q    Type
REMARK                         _______ _______ _______ _____ _____    ______ ____
ROOT
ATOM      1  C   LIG    1       18.434  29.159  10.098  0.00  0.00    +0.090 A 
ATOM      2  N   LIG    1       19.425  29.305   9.176  0.00  0.00    -0.244 NA
ATOM      3  C   LIG    1       20.514  28.490   9.221  0.00  0.00    +0.090 A 
ATOM      4  C   LIG    1       20.632  27.501  10.197  0.00  0.00    +0.030 A 
ATOM      5  C   LIG    1       19.626  27.356  11.147  0.00  0.00    +0.004 A 
ATOM      6  C   LIG    1       18.519  28.194  11.100  0.00  0.00    +0.030 A 
ENDROOT
BRANCH   1   9
ATOM      7  C   LIG    1       15.952  31.958  10.689  0.00  0.00    +0.004 A 
ATOM      8  C   LIG    1       17.058  31.127  10.859  0.00  0.00    +0.030 A 
ATOM      9  C   LIG    1       17.270  30.069   9.973  0.00  0.00    +0.089 A 
ATOM     10  N   LIG    1       16.411  29.830   8.940  0.00  0.00    -0.253 NA
ATOM     11  C   LIG    1       15.344  30.649   8.803  0.00  0.00    +0.111 A 
ATOM     12  C   LIG    1       15.076  31.715   9.642  0.00  0.00    +0.020 A 
ENDBRANCH   1   9
BRANCH   3  13
ATOM     13  C   LIG    1       21.554  28.724   8.187  0.00  0.00    +0.089 A 
ATOM     14  N   LIG    1       22.205  27.624   7.717  0.00  0.00    -0.253 NA
ATOM     15  C   LIG    1       23.152  27.795   6.770  0.00  0.00    +0.111 A 
ATOM     16  C   LIG    1       23.510  29.026   6.253  0.00  0.00    +0.020 A 
ATOM     17  C   LIG    1       22.851  30.149   6.731  0.00  0.00    +0.004 A 
ATOM     18  C   LIG    1       21.862  29.999   7.703  0.00  0.00    +0.030 A 
ENDBRANCH   3  13
TORSDOF 2
ENDMDL
MODEL 4
REMARK VINA RESULT:      -7.7      2.616      6.126
REMARK  Name = 
REMARK                            x       y       z     vdW  Elec       q    Type
REMARK                         _______ _______ _______ _____ _____    ______ ____
ROOT
ATOM      1  C   LIG    1       20.525  28.489   9.261  0.00  0.00    +0.090 A 
ATOM      2  N   LIG    1       19.435  29.303   9.210  0.00  0.00    -0.244 NA
ATOM      3  C   LIG    1       18.451  29.172  10.142  0.00  0.00    +0.090 A 
ATOM      4  C   LIG    1       18.541  28.216  11.153  0.00  0.00    +0.030 A 
ATOM      5  C   LIG    1       19.649  27.375  11.201  0.00  0.00    +0.004 A 
ATOM      6  C   LIG    1       20.648  27.510  10.245  0.00  0.00    +0.030 A 
ENDROOT
BRANCH   1   9
ATOM      7  C   LIG    1       22.856  30.125   6.764  0.00  0.00    +0.004 A 
ATOM      8  C   LIG    1       21.863  29.977   7.731  0.00  0.00    +0.030 A 
ATOM      9  C   LIG    1       21.564  28.706   8.227  0.00  0.00    +0.089 A 
ATOM     10  N   LIG    1       22.227  27.600   7.780  0.00  0.00    -0.253 NA
ATOM     11  C   LIG    1       23.182  27.773   6.838  0.00  0.00    +0.111 A 
ATOM     12  C   LIG    1       23.529  29.002   6.306  0.00  0.00    +0.020 A 
ENDBRANCH   1   9
BRANCH   3  13
ATOM     13  C   LIG    1       17.291  30.090  10.008  0.00  0.00    +0.089 A 
ATOM     14  N   LIG    1       16.429  29.837   8.984  0.00  0.00    -0.253 NA
ATOM     15  C   LIG    1       15.357  30.645   8.834  0.00  0.00    +0.111 A 
ATOM     16  C   LIG    1       15.086  31.723   9.655  0.00  0.00    +0.020 A 
ATOM     17  C   LIG    1       15.963  31.985  10.697  0.00  0.00    +0.004 A 
ATOM     18  C   LIG    1       17.073  31.161  10.880  0.00  0.00    +0.030 A 
ENDBRANCH   3  13
TORSDOF 2
ENDMDL
MODEL 5
REMARK VINA RESULT:      -7.6      2.400      6.112
REMARK  Name = 
REMARK                            x       y       z     vdW  Elec       q    Type
REMARK                         _______ _______ _______ _____ _____    ______ ____
ROOT
ATOM      1  C   LIG    1       19.563  28.763  11.558  0.00  0.00    +0.090 A 
ATOM      2  N   LIG    1       20.504  28.891  10.583  0.00  0.00    -0.244 NA
ATOM      3  C   LIG    1       20.150  28.735   9.278  0.00  0.00    +0.090 A 
ATOM      4  C   LIG    1       18.833  28.446   8.920  0.00  0.00    +0.030 A 
ATOM      5  C   LIG    1       17.871  28.304   9.915  0.00  0.00    +0.004 A 
ATOM      6  C   LIG    1       18.239  28.459  11.246  0.00  0.00    +0.030 A 
ENDROOT
BRANCH   1   9
ATOM      7  C   LIG    1       19.660  28.962  15.338  0.00  0.00    +0.004 A 
ATOM      8  C   LIG    1       19.176  28.763  14.047  0.00  0.00    +0.030 A 
ATOM      9  C   LIG    1       20.020  28.968  12.953  0.00  0.00    +0.089 A 
ATOM     10  N   LIG    1       21.315  29.363  13.124  0.00  0.00    -0.253 NA
ATOM     11  C   LIG    1       21.756  29.553  14.388  0.00  0.00    +0.111 A 
ATOM     12  C   LIG    1       20.975  29.366  15.515  0.00  0.00    +0.020 A 
ENDBRANCH   1   9
BRANCH   3  13
ATOM     13  C   LIG    1       21.239  28.879   8.278  0.00  0.00    +0.089 A 
ATOM     14  N   LIG    1       21.772  27.726   7.788  0.00  0.00    -0.253 NA
ATOM     15  C   LIG    1       22.760  27.815   6.871  0.00  0.00    +0.111 A 
ATOM     16  C   LIG    1       23.269  29.012   6.403  0.00  0.00    +0.020 A 
ATOM     17  C   LIG    1       22.729  30.189   6.902  0.00  0.00    +0.004 A 
ATOM     18  C   LIG    1       21.703  30.124   7.844  0.00  0.00    +0.030 A 
ENDBRANCH   3  13
TORSDOF 2
ENDMDL
MODEL 6
REMARK VINA RESULT:      -7.1      2.987      6.059
REMARK  Name = 
REMARK                            x       y       z     vdW  Elec       q    Type
REMARK                         _______ _______ _______ _____ _____    ______ ____
ROOT
ATOM      1  C   LIG    1       21.150  28.398   8.660  0.00  0.00    +0.090 A 
ATOM      2  N   LIG    1       20.065  29.207   8.804  0.00  0.00    -0.244 NA
ATOM      3  C   LIG    1       19.185  28.981   9.817  0.00  0.00    +0.090 A 
ATOM      4  C   LIG    1       19.376  27.931  10.715  0.00  0.00    +0.030 A 
ATOM      5  C   LIG    1       20.479  27.096  10.564  0.00  0.00    +0.004 A 
ATOM      6  C   LIG    1       21.372  27.329   9.525  0.00  0.00    +0.030 A 
ENDROOT
BRANCH   1   9
ATOM      7  C   LIG    1       23.594  28.084   5.783  0.00  0.00    +0.004 A 
ATOM      8  C   LIG    1       22.742  27.725   6.826  0.00  0.00    +0.030 A 
ATOM      9  C   LIG    1       22.075  28.719   7.546  0.00  0.00    +0.089 A 
ATOM     10  N   LIG    1       22.243  30.040   7.249  0.00  0.00    -0.253 NA
ATOM     11  C   LIG    1       23.079  30.358   6.235  0.00  0.00    +0.111 A 
ATOM     12  C   LIG    1       23.768  29.426   5.480  0.00  0.00    +0.020 A 
ENDBRANCH   1   9
BRANCH   3  13
ATOM     13  C   LIG    1       18.021  29.901   9.896  0.00  0.00    +0.089 A 
ATOM     14  N   LIG    1       18.085  30.884  10.837  0.00  0.00    -0.253 NA
ATOM     15  C   LIG    1       17.050  31.745  10.935  0.00  0.00    +0.111 A 
ATOM     16  C   LIG    1       15.922  31.686  10.140  0.00  0.00    +0.020 A 
ATOM     17  C   LIG    1       15.852  30.685   9.181  0.00  0.00    +0.004 A 
ATOM     18  C   LIG    1       16.911  29.787   9.054  0.00  0.00    +0.030 A 
ENDBRANCH   3  13
TORSDOF 2
ENDMDL
MODEL 7
REMARK VINA RESULT:      -6.8      3.376      5.423
REMARK  Name = 
REMARK                            x       y       z     vdW  Elec       q    Type
REMARK                         _______ _______ _______ _____ _____    ______ ____
ROOT
ATOM      1  C   LIG    1       19.527  28.860   9.300  0.00  0.00    +0.090 A 
ATOM      2  N   LIG    1       20.412  29.134   8.303  0.00  0.00    -0.244 NA
ATOM      3  C   LIG    1       21.525  28.363   8.158  0.00  0.00    +0.090 A 
ATOM      4  C   LIG    1       21.775  27.293   9.016  0.00  0.00    +0.030 A 
ATOM      5  C   LIG    1       20.878  27.017  10.043  0.00  0.00    +0.004 A 
ATOM      6  C   LIG    1       19.746  27.810  10.189  0.00  0.00    +0.030 A 
ENDROOT
BRANCH   1   9
ATOM      7  C   LIG    1       16.083  30.332   8.737  0.00  0.00    +0.004 A 
ATOM      8  C   LIG    1       17.186  29.488   8.615  0.00  0.00    +0.030 A 
ATOM      9  C   LIG    1       18.329  29.728   9.381  0.00  0.00    +0.089 A 
ATOM     10  N   LIG    1       18.388  30.779  10.250  0.00  0.00    -0.253 NA
ATOM     11  C   LIG    1       17.306  31.584  10.344  0.00  0.00    +0.111 A 
ATOM     12  C   LIG    1       16.143  31.402   9.618  0.00  0.00    +0.020 A 
ENDBRANCH   1   9
BRANCH   3  13
ATOM     13  C   LIG    1       22.445  28.737   7.053  0.00  0.00    +0.089 A 
ATOM     14  N   LIG    1       22.411  30.035   6.644  0.00  0.00    -0.253 NA
ATOM     15  C   LIG    1       23.238  30.415   5.647  0.00  0.00    +0.111 A 
ATOM     16  C   LIG    1       24.116  29.561   5.008  0.00  0.00    +0.020 A 
ATOM     17  C   LIG    1       24.153  28.237   5.421  0.00  0.00    +0.004 A 
ATOM     18  C   LIG    1       23.314  27.820   6.454  0.00  0.00    +0.030 A 
ENDBRANCH   3  13
TORSDOF 2
ENDMDL
MODEL 8
REMARK VINA RESULT:      -6.0      4.404      6.579
REMARK  Name = 
REMARK                            x       y       z     vdW  Elec       q    Type
REMARK                         _______ _______ _______ _____ _____    ______ ____
ROOT
ATOM      1  C   LIG    1       21.188  28.741   8.833  0.00  0.00    +0.090 A 
ATOM      2  N   LIG    1       22.213  27.910   8.498  0.00  0.00    -0.244 NA
ATOM      3  C   LIG    1       23.121  28.301   7.562  0.00  0.00    +0.090 A 
ATOM      4  C   LIG    1       23.020  29.544   6.939  0.00  0.00    +0.030 A 
ATOM      5  C   LIG    1       21.967  30.391   7.271  0.00  0.00    +0.004 A 
ATOM      6  C   LIG    1       21.041  29.985   8.223  0.00  0.00    +0.030 A 
ENDROOT
BRANCH   1   9
ATOM      7  C   LIG    1       19.752  27.014  11.883  0.00  0.00    +0.004 A 
ATOM      8  C   LIG    1       20.673  27.435  10.925  0.00  0.00    +0.030 A 
ATOM      9  C   LIG    1       20.253  28.255   9.875  0.00  0.00    +0.089 A 
ATOM     10  N   LIG    1       18.952  28.653   9.767  0.00  0.00    -0.253 NA
ATOM     11  C   LIG    1       18.080  28.224  10.708  0.00  0.00    +0.111 A 
ATOM     12  C   LIG    1       18.429  27.414  11.773  0.00  0.00    +0.020 A 
ENDBRANCH   1   9
BRANCH   3  13
ATOM     13  C   LIG    1       24.200  27.331   7.246  0.00  0.00    +0.089 A 
ATOM     14  N   LIG    1       24.607  27.274   5.948  0.00  0.00    -0.253 NA
ATOM     15  C   LIG    1       25.592  26.410   5.622  0.00  0.00    +0.111 A 
ATOM     16  C   LIG    1       26.210  25.570   6.529  0.00  0.00    +0.020 A 
ATOM     17  C   LIG    1       25.796  25.624   7.853  0.00  0.00    +0.004 A 
ATOM     18  C   LIG    1       24.786  26.513   8.217  0.00  0.00    +0.030 A 
ENDBRANCH   3  13
TORSDOF 2
ENDMDL
MODEL 9
REMARK VINA RESULT:      -6.0      4.397      7.257
REMARK  Name = 
REMARK                            x       y       z     vdW  Elec       q    Type
REMARK                         _______ _______ _______ _____ _____    ______ ____
ROOT
ATOM      1  C   LIG    1       23.101  28.330   7.548  0.00  0.00    +0.090 A 
ATOM      2  N   LIG    1       22.206  27.940   8.497  0.00  0.00    -0.244 NA
ATOM      3  C   LIG    1       21.179  28.767   8.837  0.00  0.00    +0.090 A 
ATOM      4  C   LIG    1       21.026  30.010   8.226  0.00  0.00    +0.030 A 
ATOM      5  C   LIG    1       21.944  30.416   7.263  0.00  0.00    +0.004 A 
ATOM      6  C   LIG    1       22.994  29.571   6.924  0.00  0.00    +0.030 A 
ENDROOT
BRANCH   1   9
ATOM      7  C   LIG    1       25.770  25.657   7.817  0.00  0.00    +0.004 A 
ATOM      8  C   LIG    1       24.766  26.550   8.185  0.00  0.00    +0.030 A 
ATOM      9  C   LIG    1       24.179  27.368   7.217  0.00  0.00    +0.089 A 
ATOM     10  N   LIG    1       24.572  27.311   5.911  0.00  0.00    -0.253 NA
ATOM     11  C   LIG    1       25.552  26.439   5.584  0.00  0.00    +0.111 A 
ATOM     12  C   LIG    1       26.174  25.599   6.491  0.00  0.00    +0.020 A 
ENDBRANCH   1   9
BRANCH   3  13
ATOM     13  C   LIG    1       20.255  28.271   9.889  0.00  0.00    +0.089 A 
ATOM     14  N   LIG    1       18.951  28.648   9.782  0.00  0.00    -0.253 NA
ATOM     15  C   LIG    1       18.079  28.211  10.716  0.00  0.00    +0.111 A 
ATOM     16  C   LIG    1       18.432  27.407  11.783  0.00  0.00    +0.020 A 
ATOM     17  C   LIG    1       19.761  27.022  11.896  0.00  0.00    +0.004 A 
ATOM     18  C   LIG    1       20.681  27.453  10.941  0.00  0.00    +0.030 A 
ENDBRANCH   3  13
TORSDOF 2
ENDMDL
