MODEL 1
REMARK VINA RESULT:      -7.7      0.000      0.000
REMARK  Name = 
REMARK                            x       y       z     vdW  Elec       q    Type
REMARK                         _______ _______ _______ _____ _____    ______ ____
ROOT
ATOM      1  C   LIG    1       32.177   0.074  26.283  0.00  0.00    +0.090 A 
ATOM      2  N   LIG    1       30.935  -0.123  26.804  0.00  0.00    -0.244 NA
ATOM      3  C   LIG    1       29.955  -0.661  26.027  0.00  0.00    +0.090 A 
ATOM      4  C   LIG    1       30.203  -1.018  24.702  0.00  0.00    +0.030 A 
ATOM      5  C   LIG    1       31.469  -0.808  24.164  0.00  0.00    +0.004 A 
ATOM      6  C   LIG    1       32.464  -0.254  24.960  0.00  0.00    +0.030 A 
ENDROOT
BRANCH   1   9
ATOM      7  C   LIG    1       34.700   2.401  27.884  0.00  0.00    +0.004 A 
ATOM      8  C   LIG    1       33.751   1.910  26.990  0.00  0.00    +0.030 A 
ATOM      9  C   LIG    1       33.197   0.644  27.195  0.00  0.00    +0.089 A 
ATOM     10  N   LIG    1       33.570  -0.126  28.259  0.00  0.00    -0.253 NA
ATOM     11  C   LIG    1       34.496   0.374  29.107  0.00  0.00    +0.111 A 
ATOM     12  C   LIG    1       35.083   1.619  28.964  0.00  0.00    +0.020 A 
ENDBRANCH   1   9
BRANCH   3  13
ATOM     13  C   LIG    1       28.626  -0.830  26.668  0.00  0.00    +0.089 A 
ATOM     14  N   LIG    1       28.261  -2.103  26.986  0.00  0.00    -0.253 NA
ATOM     15  C   LIG    1       27.063  -2.297  27.577  0.00  0.00    +0.111 A 
ATOM     16  C   LIG    1       26.176  -1.279  27.873  0.00  0.00    +0.020 A 
ATOM     17  C   LIG    1       26.544   0.019  27.548  0.00  0.00    +0.004 A 
ATOM     18  C   LIG    1       27.779   0.248  26.944  0.00  0.00    +0.030 A 
ENDBRANCH   3  13
TORSDOF 2
ENDMDL
MODEL 2
REMARK VINA RESULT:      -7.7      0.078      6.086
REMARK  Name = 
REMARK                            x       y       z     vdW  Elec       q    Type
REMARK                         _______ _______ _______ _____ _____    ______ ____
ROOT
ATOM      1  C   LIG    1       29.927  -0.659  26.079  0.00  0.00    +0.090 A 
ATOM      2  N   LIG    1       30.904  -0.118  26.857  0.00  0.00    -0.244 NA
ATOM      3  C   LIG    1       32.147   0.079  26.338  0.00  0.00    +0.090 A 
ATOM      4  C   LIG    1       32.437  -0.263  25.018  0.00  0.00    +0.030 A 
ATOM      5  C   LIG    1       31.443  -0.827  24.224  0.00  0.00    +0.004 A 
ATOM      6  C   LIG    1       30.178  -1.030  24.761  0.00  0.00    +0.030 A 
ENDROOT
BRANCH   1   9
ATOM      7  C   LIG    1       26.518   0.054  27.569  0.00  0.00    +0.004 A 
ATOM      8  C   LIG    1       27.766   0.266  26.985  0.00  0.00    +0.030 A 
ATOM      9  C   LIG    1       28.594  -0.824  26.708  0.00  0.00    +0.089 A 
ATOM     10  N   LIG    1       28.205  -2.099  27.000  0.00  0.00    -0.253 NA
ATOM     11  C   LIG    1       26.992  -2.274  27.571  0.00  0.00    +0.111 A 
ATOM     12  C   LIG    1       26.122  -1.241  27.870  0.00  0.00    +0.020 A 
ENDBRANCH   1   9
BRANCH   3  13
ATOM     13  C   LIG    1       33.159   0.663  27.256  0.00  0.00    +0.089 A 
ATOM     14  N   LIG    1       33.473  -0.068  28.360  0.00  0.00    -0.253 NA
ATOM     15  C   LIG    1       34.395   0.425  29.215  0.00  0.00    +0.111 A 
ATOM     16  C   LIG    1       35.036   1.637  29.040  0.00  0.00    +0.020 A 
ATOM     17  C   LIG    1       34.716   2.386  27.917  0.00  0.00    +0.004 A 
ATOM     18  C   LIG    1       33.774   1.895  27.014  0.00  0.00    +0.030 A 
ENDBRANCH   3  13
TORSDOF 2
ENDMDL
MODEL 3
REMARK VINA RESULT:      -7.7      1.057      6.209
REMARK  Name = 
REMARK                            x       y       z     vdW  Elec       q    Type
REMARK                         _______ _______ _______ _____ _____    ______ ____
ROOT
ATOM      1  C   LIG    1       29.917  -1.253  26.457  0.00  0.00    +0.090 A 
ATOM      2  N   LIG    1       30.817  -0.705  27.320  0.00  0.00    -0.244 NA
ATOM      3  C   LIG    1       31.933  -0.095  26.834  0.00  0.00    +0.090 A 
ATOM      4  C   LIG    1       32.170  -0.018  25.463  0.00  0.00    +0.030 A 
ATOM      5  C   LIG    1       31.258  -0.586  24.578  0.00  0.00    +0.004 A 
ATOM      6  C   LIG    1       30.124  -1.212  25.080  0.00  0.00    +0.030 A 
ENDROOT
BRANCH   1   9
ATOM      7  C   LIG    1       27.590  -3.710  28.156  0.00  0.00    +0.004 A 
ATOM      8  C   LIG    1       28.746  -3.171  27.594  0.00  0.00    +0.030 A 
ATOM      9  C   LIG    1       28.717  -1.881  27.059  0.00  0.00    +0.089 A 
ATOM     10  N   LIG    1       27.575  -1.135  27.074  0.00  0.00    -0.253 NA
ATOM     11  C   LIG    1       26.468  -1.686  27.621  0.00  0.00    +0.111 A 
ATOM     12  C   LIG    1       26.427  -2.955  28.170  0.00  0.00    +0.020 A 
ENDBRANCH   1   9
BRANCH   3  13
ATOM     13  C   LIG    1       32.868   0.465  27.843  0.00  0.00    +0.089 A 
ATOM     14  N   LIG    1       32.643   0.121  29.141  0.00  0.00    -0.253 NA
ATOM     15  C   LIG    1       33.477   0.604  30.086  0.00  0.00    +0.111 A 
ATOM     16  C   LIG    1       34.546   1.437  29.817  0.00  0.00    +0.020 A 
ATOM     17  C   LIG    1       34.778   1.792  28.495  0.00  0.00    +0.004 A 
ATOM     18  C   LIG    1       33.936   1.300  27.498  0.00  0.00    +0.030 A 
ENDBRANCH   3  13
TORSDOF 2
ENDMDL
MODEL 4
REMARK VINA RESULT:      -7.7      0.892      1.411
REMARK  Name = 
REMARK                            x       y       z     vdW  Elec       q    Type
REMARK                         _______ _______ _______ _____ _____    ______ ____
ROOT
ATOM      1  C   LIG    1       32.078  -0.044  26.606  0.00  0.00    +0.090 A 
ATOM      2  N   LIG    1       30.952  -0.610  27.122  0.00  0.00    -0.244 NA
ATOM      3  C   LIG    1       30.044  -1.186  26.288  0.00  0.00    +0.090 A 
ATOM      4  C   LIG    1       30.247  -1.208  24.909  0.00  0.00    +0.030 A 
ATOM      5  C   LIG    1       31.391  -0.621  24.377  0.00  0.00    +0.004 A 
ATOM      6  C   LIG    1       32.313  -0.030  25.233  0.00  0.00    +0.030 A 
ENDROOT
BRANCH   1   9
ATOM      7  C   LIG    1       34.792   2.080  28.176  0.00  0.00    +0.004 A 
ATOM      8  C   LIG    1       33.924   1.557  27.219  0.00  0.00    +0.030 A 
ATOM      9  C   LIG    1       33.030   0.545  27.578  0.00  0.00    +0.089 A 
ATOM     10  N   LIG    1       32.991   0.055  28.851  0.00  0.00    -0.253 NA
ATOM     11  C   LIG    1       33.848   0.578  29.756  0.00  0.00    +0.111 A 
ATOM     12  C   LIG    1       34.756   1.582  29.470  0.00  0.00    +0.020 A 
ENDBRANCH   1   9
BRANCH   3  13
ATOM     13  C   LIG    1       28.838  -1.769  26.930  0.00  0.00    +0.089 A 
ATOM     14  N   LIG    1       27.719  -0.993  26.945  0.00  0.00    -0.253 NA
ATOM     15  C   LIG    1       26.601  -1.491  27.513  0.00  0.00    +0.111 A 
ATOM     16  C   LIG    1       26.523  -2.745  28.090  0.00  0.00    +0.020 A 
ATOM     17  C   LIG    1       27.661  -3.538  28.078  0.00  0.00    +0.004 A 
ATOM     18  C   LIG    1       28.828  -3.050  27.491  0.00  0.00    +0.030 A 
ENDBRANCH   3  13
TORSDOF 2
ENDMDL
MODEL 5
REMARK VINA RESULT:      -7.5      2.506      6.499
REMARK  Name = 
REMARK                            x       y       z     vdW  Elec       q    Type
REMARK                         _______ _______ _______ _____ _____    ______ ____
ROOT
ATOM      1  C   LIG    1       30.138  -1.918  27.675  0.00  0.00    +0.090 A 
ATOM      2  N   LIG    1       30.637  -2.219  26.445  0.00  0.00    -0.244 NA
ATOM      3  C   LIG    1       31.956  -2.008  26.182  0.00  0.00    +0.090 A 
ATOM      4  C   LIG    1       32.809  -1.489  27.156  0.00  0.00    +0.030 A 
ATOM      5  C   LIG    1       32.299  -1.170  28.411  0.00  0.00    +0.004 A 
ATOM      6  C   LIG    1       30.951  -1.383  28.671  0.00  0.00    +0.030 A 
ENDROOT
BRANCH   1   9
ATOM      7  C   LIG    1       26.848  -3.692  28.288  0.00  0.00    +0.004 A 
ATOM      8  C   LIG    1       28.211  -3.490  28.079  0.00  0.00    +0.030 A 
ATOM      9  C   LIG    1       28.698  -2.194  27.892  0.00  0.00    +0.089 A 
ATOM     10  N   LIG    1       27.860  -1.117  27.910  0.00  0.00    -0.253 NA
ATOM     11  C   LIG    1       26.542  -1.343  28.110  0.00  0.00    +0.111 A 
ATOM     12  C   LIG    1       25.995  -2.599  28.303  0.00  0.00    +0.020 A 
ENDBRANCH   1   9
BRANCH   3  13
ATOM     13  C   LIG    1       32.418  -2.351  24.813  0.00  0.00    +0.089 A 
ATOM     14  N   LIG    1       33.424  -3.263  24.719  0.00  0.00    -0.253 NA
ATOM     15  C   LIG    1       33.866  -3.607  23.491  0.00  0.00    +0.111 A 
ATOM     16  C   LIG    1       33.362  -3.081  22.317  0.00  0.00    +0.020 A 
ATOM     17  C   LIG    1       32.338  -2.149  22.408  0.00  0.00    +0.004 A 
ATOM     18  C   LIG    1       31.858  -1.782  23.664  0.00  0.00    +0.030 A 
ENDBRANCH   3  13
TORSDOF 2
ENDMDL
MODEL 6
REMARK VINA RESULT:      -7.5      2.607      4.438
REMARK  Name = 
REMARK                            x       y       z     vdW  Elec       q    Type
REMARK                         _______ _______ _______ _____ _____    ______ ____
ROOT
ATOM      1  C   LIG    1       31.967  -2.095  26.205  0.00  0.00    +0.090 A 
ATOM      2  N   LIG    1       30.653  -2.330  26.474  0.00  0.00    -0.244 NA
ATOM      3  C   LIG    1       30.154  -2.039  27.707  0.00  0.00    +0.090 A 
ATOM      4  C   LIG    1       30.967  -1.500  28.703  0.00  0.00    +0.030 A 
ATOM      5  C   LIG    1       32.313  -1.269  28.435  0.00  0.00    +0.004 A 
ATOM      6  C   LIG    1       32.818  -1.572  27.176  0.00  0.00    +0.030 A 
ENDROOT
BRANCH   1   9
ATOM      7  C   LIG    1       33.899  -3.551  23.292  0.00  0.00    +0.004 A 
ATOM      8  C   LIG    1       33.509  -3.276  24.601  0.00  0.00    +0.030 A 
ATOM      9  C   LIG    1       32.432  -2.417  24.835  0.00  0.00    +0.089 A 
ATOM     10  N   LIG    1       31.753  -1.838  23.803  0.00  0.00    -0.253 NA
ATOM     11  C   LIG    1       32.157  -2.119  22.544  0.00  0.00    +0.111 A 
ATOM     12  C   LIG    1       33.212  -2.962  22.241  0.00  0.00    +0.020 A 
ENDBRANCH   1   9
BRANCH   3  13
ATOM     13  C   LIG    1       28.715  -2.338  27.921  0.00  0.00    +0.089 A 
ATOM     14  N   LIG    1       27.855  -1.285  27.838  0.00  0.00    -0.253 NA
ATOM     15  C   LIG    1       26.537  -1.517  28.019  0.00  0.00    +0.111 A 
ATOM     16  C   LIG    1       26.006  -2.763  28.294  0.00  0.00    +0.020 A 
ATOM     17  C   LIG    1       26.879  -3.838  28.381  0.00  0.00    +0.004 A 
ATOM     18  C   LIG    1       28.244  -3.627  28.190  0.00  0.00    +0.030 A 
ENDBRANCH   3  13
TORSDOF 2
ENDMDL
MODEL 7
REMARK VINA RESULT:      -7.3      2.219      3.853
REMARK  Name = 
REMARK                            x       y       z     vdW  Elec       q    Type
REMARK                         _______ _______ _______ _____ _____    ______ ____
ROOT
ATOM      1  C   LIG    1       31.556  -0.967  25.495  0.00  0.00    +0.090 A 
ATOM      2  N   LIG    1       30.376  -1.432  25.990  0.00  0.00    -0.244 NA
ATOM      3  C   LIG    1       29.689  -0.692  26.903  0.00  0.00    +0.090 A 
ATOM      4  C   LIG    1       30.174   0.540  27.341  0.00  0.00    +0.030 A 
ATOM      5  C   LIG    1       31.385   1.013  26.845  0.00  0.00    +0.004 A 
ATOM      6  C   LIG    1       32.084   0.251  25.917  0.00  0.00    +0.030 A 
ENDROOT
BRANCH   1   9
ATOM      7  C   LIG    1       32.556  -2.614  22.235  0.00  0.00    +0.004 A 
ATOM      8  C   LIG    1       31.877  -1.800  23.139  0.00  0.00    +0.030 A 
ATOM      9  C   LIG    1       32.236  -1.818  24.489  0.00  0.00    +0.089 A 
ATOM     10  N   LIG    1       33.241  -2.622  24.942  0.00  0.00    -0.253 NA
ATOM     11  C   LIG    1       33.878  -3.405  24.043  0.00  0.00    +0.111 A 
ATOM     12  C   LIG    1       33.575  -3.435  22.693  0.00  0.00    +0.020 A 
ENDBRANCH   1   9
BRANCH   3  13
ATOM     13  C   LIG    1       28.418  -1.276  27.401  0.00  0.00    +0.089 A 
ATOM     14  N   LIG    1       28.293  -2.629  27.312  0.00  0.00    -0.253 NA
ATOM     15  C   LIG    1       27.154  -3.199  27.762  0.00  0.00    +0.111 A 
ATOM     16  C   LIG    1       26.100  -2.488  28.302  0.00  0.00    +0.020 A 
ATOM     17  C   LIG    1       26.223  -1.109  28.393  0.00  0.00    +0.004 A 
ATOM     18  C   LIG    1       27.391  -0.496  27.943  0.00  0.00    +0.030 A 
ENDBRANCH   3  13
TORSDOF 2
ENDMDL
MODEL 8
REMARK VINA RESULT:      -7.3      2.445      6.181
REMARK  Name = 
REMARK                            x       y       z     vdW  Elec       q    Type
REMARK                         _______ _______ _______ _____ _____    ______ ____
ROOT
ATOM      1  C   LIG    1       30.145  -1.284  27.452  0.00  0.00    +0.090 A 
ATOM      2  N   LIG    1       30.640  -1.656  26.240  0.00  0.00    -0.244 NA
ATOM      3  C   LIG    1       31.962  -1.958  26.115  0.00  0.00    +0.090 A 
ATOM      4  C   LIG    1       32.820  -1.894  27.212  0.00  0.00    +0.030 A 
ATOM      5  C   LIG    1       32.319  -1.503  28.450  0.00  0.00    +0.004 A 
ATOM      6  C   LIG    1       30.970  -1.192  28.570  0.00  0.00    +0.030 A 
ENDROOT
BRANCH   1   9
ATOM      7  C   LIG    1       26.814   0.519  27.415  0.00  0.00    +0.004 A 
ATOM      8  C   LIG    1       28.189   0.302  27.356  0.00  0.00    +0.030 A 
ATOM      9  C   LIG    1       28.693  -0.991  27.514  0.00  0.00    +0.089 A 
ATOM     10  N   LIG    1       27.861  -2.052  27.728  0.00  0.00    -0.253 NA
ATOM     11  C   LIG    1       26.531  -1.810  27.786  0.00  0.00    +0.111 A 
ATOM     12  C   LIG    1       25.966  -0.557  27.636  0.00  0.00    +0.020 A 
ENDBRANCH   1   9
BRANCH   3  13
ATOM     13  C   LIG    1       32.423  -2.342  24.757  0.00  0.00    +0.089 A 
ATOM     14  N   LIG    1       33.461  -3.222  24.692  0.00  0.00    -0.253 NA
ATOM     15  C   LIG    1       33.904  -3.602  23.475  0.00  0.00    +0.111 A 
ATOM     16  C   LIG    1       33.372  -3.144  22.284  0.00  0.00    +0.020 A 
ATOM     17  C   LIG    1       32.316  -2.246  22.346  0.00  0.00    +0.004 A 
ATOM     18  C   LIG    1       31.834  -1.843  23.591  0.00  0.00    +0.030 A 
ENDBRANCH   3  13
TORSDOF 2
ENDMDL
MODEL 9
REMARK VINA RESULT:      -7.3      2.300      5.262
REMARK  Name = 
REMARK                            x       y       z     vdW  Elec       q    Type
REMARK                         _______ _______ _______ _____ _____    ______ ____
ROOT
ATOM      1  C   LIG    1       31.092  -0.977  25.583  0.00  0.00    +0.090 A 
ATOM      2  N   LIG    1       31.696  -0.577  26.736  0.00  0.00    -0.244 NA
ATOM      3  C   LIG    1       30.995   0.153  27.646  0.00  0.00    +0.090 A 
ATOM      4  C   LIG    1       29.664   0.499  27.418  0.00  0.00    +0.030 A 
ATOM      5  C   LIG    1       29.048   0.102  26.235  0.00  0.00    +0.004 A 
ATOM      6  C   LIG    1       29.769  -0.640  25.308  0.00  0.00    +0.030 A 
ENDROOT
BRANCH   1   9
ATOM      7  C   LIG    1       32.561  -2.486  22.434  0.00  0.00    +0.004 A 
ATOM      8  C   LIG    1       31.756  -1.707  23.265  0.00  0.00    +0.030 A 
ATOM      9  C   LIG    1       31.913  -1.787  24.651  0.00  0.00    +0.089 A 
ATOM     10  N   LIG    1       32.840  -2.617  25.210  0.00  0.00    -0.253 NA
ATOM     11  C   LIG    1       33.603  -3.363  24.380  0.00  0.00    +0.111 A 
ATOM     12  C   LIG    1       33.502  -3.332  23.001  0.00  0.00    +0.020 A 
ENDBRANCH   1   9
BRANCH   3  13
ATOM     13  C   LIG    1       31.730   0.559  28.871  0.00  0.00    +0.089 A 
ATOM     14  N   LIG    1       33.075   0.735  28.745  0.00  0.00    -0.253 NA
ATOM     15  C   LIG    1       33.777   1.112  29.834  0.00  0.00    +0.111 A 
ATOM     16  C   LIG    1       33.213   1.323  31.078  0.00  0.00    +0.020 A 
ATOM     17  C   LIG    1       31.844   1.143  31.211  0.00  0.00    +0.004 A 
ATOM     18  C   LIG    1       31.094   0.762  30.099  0.00  0.00    +0.030 A 
ENDBRANCH   3  13
TORSDOF 2
ENDMDL
