MODEL 1
REMARK VINA RESULT:      -8.1      0.000      0.000
REMARK  Name = 
REMARK                            x       y       z     vdW  Elec       q    Type
REMARK                         _______ _______ _______ _____ _____    ______ ____
ROOT
ATOM      1  C   LIG    1       68.507  49.103  96.170  0.00  0.00    +0.090 A 
ATOM      2  N   LIG    1       68.070  47.999  96.836  0.00  0.00    -0.244 NA
ATOM      3  C   LIG    1       67.932  48.038  98.189  0.00  0.00    +0.090 A 
ATOM      4  C   LIG    1       68.229  49.195  98.909  0.00  0.00    +0.030 A 
ATOM      5  C   LIG    1       68.687  50.321  98.233  0.00  0.00    +0.004 A 
ATOM      6  C   LIG    1       68.831  50.274  96.851  0.00  0.00    +0.030 A 
ENDROOT
BRANCH   1   9
ATOM      7  C   LIG    1       69.834  49.172  92.623  0.00  0.00    +0.004 A 
ATOM      8  C   LIG    1       69.788  49.303  94.010  0.00  0.00    +0.030 A 
ATOM      9  C   LIG    1       68.611  48.991  94.695  0.00  0.00    +0.089 A 
ATOM     10  N   LIG    1       67.500  48.560  94.031  0.00  0.00    -0.253 NA
ATOM     11  C   LIG    1       67.572  48.446  92.686  0.00  0.00    +0.111 A 
ATOM     12  C   LIG    1       68.705  48.736  91.945  0.00  0.00    +0.020 A 
ENDBRANCH   1   9
BRANCH   3  13
ATOM     13  C   LIG    1       67.461  46.788  98.839  0.00  0.00    +0.089 A 
ATOM     14  N   LIG    1       68.255  45.691  98.696  0.00  0.00    -0.253 NA
ATOM     15  C   LIG    1       67.865  44.537  99.279  0.00  0.00    +0.111 A 
ATOM     16  C   LIG    1       66.700  44.399 100.010  0.00  0.00    +0.020 A 
ATOM     17  C   LIG    1       65.888  45.515 100.156  0.00  0.00    +0.004 A 
ATOM     18  C   LIG    1       66.271  46.721  99.571  0.00  0.00    +0.030 A 
ENDBRANCH   3  13
TORSDOF 2
ENDMDL
MODEL 2
REMARK VINA RESULT:      -8.1      0.053      6.215
REMARK  Name = 
REMARK                            x       y       z     vdW  Elec       q    Type
REMARK                         _______ _______ _______ _____ _____    ______ ____
ROOT
ATOM      1  C   LIG    1       67.941  48.026  98.226  0.00  0.00    +0.090 A 
ATOM      2  N   LIG    1       68.068  48.003  96.871  0.00  0.00    -0.244 NA
ATOM      3  C   LIG    1       68.521  49.107  96.216  0.00  0.00    +0.090 A 
ATOM      4  C   LIG    1       68.860  50.266  96.913  0.00  0.00    +0.030 A 
ATOM      5  C   LIG    1       68.722  50.297  98.297  0.00  0.00    +0.004 A 
ATOM      6  C   LIG    1       68.254  49.169  98.959  0.00  0.00    +0.030 A 
ENDROOT
BRANCH   1   9
ATOM      7  C   LIG    1       65.839  45.518 100.133  0.00  0.00    +0.004 A 
ATOM      8  C   LIG    1       66.245  46.719  99.554  0.00  0.00    +0.030 A 
ATOM      9  C   LIG    1       67.462  46.780  98.870  0.00  0.00    +0.089 A 
ATOM     10  N   LIG    1       68.265  45.683  98.758  0.00  0.00    -0.253 NA
ATOM     11  C   LIG    1       67.848  44.533  99.335  0.00  0.00    +0.111 A 
ATOM     12  C   LIG    1       66.656  44.402 100.024  0.00  0.00    +0.020 A 
ENDBRANCH   1   9
BRANCH   3  13
ATOM     13  C   LIG    1       68.618  49.003  94.738  0.00  0.00    +0.089 A 
ATOM     14  N   LIG    1       67.502  48.580  94.082  0.00  0.00    -0.253 NA
ATOM     15  C   LIG    1       67.548  48.480  92.736  0.00  0.00    +0.111 A 
ATOM     16  C   LIG    1       68.668  48.773  91.981  0.00  0.00    +0.020 A 
ATOM     17  C   LIG    1       69.808  49.201  92.646  0.00  0.00    +0.004 A 
ATOM     18  C   LIG    1       69.784  49.321  94.035  0.00  0.00    +0.030 A 
ENDBRANCH   3  13
TORSDOF 2
ENDMDL
MODEL 3
REMARK VINA RESULT:      -7.5     11.496     12.747
REMARK  Name = 
REMARK                            x       y       z     vdW  Elec       q    Type
REMARK                         _______ _______ _______ _____ _____    ______ ____
ROOT
ATOM      1  C   LIG    1       69.102  55.962  88.692  0.00  0.00    +0.090 A 
ATOM      2  N   LIG    1       69.554  55.106  87.736  0.00  0.00    -0.244 NA
ATOM      3  C   LIG    1       70.865  54.738  87.725  0.00  0.00    +0.090 A 
ATOM      4  C   LIG    1       71.755  55.224  88.681  0.00  0.00    +0.030 A 
ATOM      5  C   LIG    1       71.299  56.108  89.653  0.00  0.00    +0.004 A 
ATOM      6  C   LIG    1       69.961  56.484  89.657  0.00  0.00    +0.030 A 
ENDROOT
BRANCH   1   9
ATOM      7  C   LIG    1       65.834  57.822  88.235  0.00  0.00    +0.004 A 
ATOM      8  C   LIG    1       67.203  57.561  88.263  0.00  0.00    +0.030 A 
ATOM      9  C   LIG    1       67.659  56.300  88.653  0.00  0.00    +0.089 A 
ATOM     10  N   LIG    1       66.787  55.313  89.010  0.00  0.00    -0.253 NA
ATOM     11  C   LIG    1       65.465  55.596  88.979  0.00  0.00    +0.111 A 
ATOM     12  C   LIG    1       64.945  56.821  88.601  0.00  0.00    +0.020 A 
ENDBRANCH   1   9
BRANCH   3  13
ATOM     13  C   LIG    1       71.279  53.810  86.641  0.00  0.00    +0.089 A 
ATOM     14  N   LIG    1       70.630  53.935  85.451  0.00  0.00    -0.253 NA
ATOM     15  C   LIG    1       70.983  53.115  84.438  0.00  0.00    +0.111 A 
ATOM     16  C   LIG    1       71.963  52.146  84.540  0.00  0.00    +0.020 A 
ATOM     17  C   LIG    1       72.626  52.014  85.752  0.00  0.00    +0.004 A 
ATOM     18  C   LIG    1       72.285  52.854  86.811  0.00  0.00    +0.030 A 
ENDBRANCH   3  13
TORSDOF 2
ENDMDL
MODEL 4
REMARK VINA RESULT:      -7.5     11.500     12.300
REMARK  Name = 
REMARK                            x       y       z     vdW  Elec       q    Type
REMARK                         _______ _______ _______ _____ _____    ______ ____
ROOT
ATOM      1  C   LIG    1       70.885  54.738  87.717  0.00  0.00    +0.090 A 
ATOM      2  N   LIG    1       69.577  55.115  87.730  0.00  0.00    -0.244 NA
ATOM      3  C   LIG    1       69.129  55.962  88.697  0.00  0.00    +0.090 A 
ATOM      4  C   LIG    1       69.990  56.454  89.677  0.00  0.00    +0.030 A 
ATOM      5  C   LIG    1       71.325  56.063  89.672  0.00  0.00    +0.004 A 
ATOM      6  C   LIG    1       71.776  55.194  88.686  0.00  0.00    +0.030 A 
ENDROOT
BRANCH   1   9
ATOM      7  C   LIG    1       72.699  52.087  85.712  0.00  0.00    +0.004 A 
ATOM      8  C   LIG    1       72.353  52.922  86.772  0.00  0.00    +0.030 A 
ATOM      9  C   LIG    1       71.304  53.831  86.621  0.00  0.00    +0.089 A 
ATOM     10  N   LIG    1       70.608  53.919  85.451  0.00  0.00    -0.253 NA
ATOM     11  C   LIG    1       70.969  53.100  84.438  0.00  0.00    +0.111 A 
ATOM     12  C   LIG    1       71.996  52.176  84.520  0.00  0.00    +0.020 A 
ENDBRANCH   1   9
BRANCH   3  13
ATOM     13  C   LIG    1       67.686  56.313  88.647  0.00  0.00    +0.089 A 
ATOM     14  N   LIG    1       66.808  55.337  89.009  0.00  0.00    -0.253 NA
ATOM     15  C   LIG    1       65.488  55.621  88.984  0.00  0.00    +0.111 A 
ATOM     16  C   LIG    1       64.971  56.844  88.604  0.00  0.00    +0.020 A 
ATOM     17  C   LIG    1       65.862  57.841  88.232  0.00  0.00    +0.004 A 
ATOM     18  C   LIG    1       67.231  57.577  88.257  0.00  0.00    +0.030 A 
ENDBRANCH   3  13
TORSDOF 2
ENDMDL
MODEL 5
REMARK VINA RESULT:      -7.5      1.863      3.203
REMARK  Name = 
REMARK                            x       y       z     vdW  Elec       q    Type
REMARK                         _______ _______ _______ _____ _____    ______ ____
ROOT
ATOM      1  C   LIG    1       68.401  47.022  95.552  0.00  0.00    +0.090 A 
ATOM      2  N   LIG    1       68.525  47.835  96.637  0.00  0.00    -0.244 NA
ATOM      3  C   LIG    1       68.394  47.315  97.888  0.00  0.00    +0.090 A 
ATOM      4  C   LIG    1       68.135  45.959  98.079  0.00  0.00    +0.030 A 
ATOM      5  C   LIG    1       67.996  45.127  96.972  0.00  0.00    +0.004 A 
ATOM      6  C   LIG    1       68.126  45.664  95.697  0.00  0.00    +0.030 A 
ENDROOT
BRANCH   1   9
ATOM      7  C   LIG    1       69.941  48.637  92.491  0.00  0.00    +0.004 A 
ATOM      8  C   LIG    1       69.831  48.053  93.752  0.00  0.00    +0.030 A 
ATOM      9  C   LIG    1       68.577  47.656  94.223  0.00  0.00    +0.089 A 
ATOM     10  N   LIG    1       67.452  47.831  93.471  0.00  0.00    -0.253 NA
ATOM     11  C   LIG    1       67.588  48.405  92.254  0.00  0.00    +0.111 A 
ATOM     12  C   LIG    1       68.798  48.818  91.726  0.00  0.00    +0.020 A 
ENDBRANCH   1   9
BRANCH   3  13
ATOM     13  C   LIG    1       68.532  48.272  99.016  0.00  0.00    +0.089 A 
ATOM     14  N   LIG    1       69.767  48.811  99.210  0.00  0.00    -0.253 NA
ATOM     15  C   LIG    1       69.931  49.691 100.221  0.00  0.00    +0.111 A 
ATOM     16  C   LIG    1       68.918  50.074 101.080  0.00  0.00    +0.020 A 
ATOM     17  C   LIG    1       67.659  49.525 100.886  0.00  0.00    +0.004 A 
ATOM     18  C   LIG    1       67.461  48.619  99.844  0.00  0.00    +0.030 A 
ENDBRANCH   3  13
TORSDOF 2
ENDMDL
MODEL 6
REMARK VINA RESULT:      -7.2      1.953      6.371
REMARK  Name = 
REMARK                            x       y       z     vdW  Elec       q    Type
REMARK                         _______ _______ _______ _____ _____    ______ ____
ROOT
ATOM      1  C   LIG    1       68.437  47.354  97.891  0.00  0.00    +0.090 A 
ATOM      2  N   LIG    1       68.539  47.869  96.635  0.00  0.00    -0.244 NA
ATOM      3  C   LIG    1       68.408  47.049  95.556  0.00  0.00    +0.090 A 
ATOM      4  C   LIG    1       68.168  45.685  95.716  0.00  0.00    +0.030 A 
ATOM      5  C   LIG    1       68.074  45.153  96.998  0.00  0.00    +0.004 A 
ATOM      6  C   LIG    1       68.214  45.994  98.095  0.00  0.00    +0.030 A 
ENDROOT
BRANCH   1   9
ATOM      7  C   LIG    1       67.665  49.572 100.861  0.00  0.00    +0.004 A 
ATOM      8  C   LIG    1       67.482  48.673  99.812  0.00  0.00    +0.030 A 
ATOM      9  C   LIG    1       68.569  48.311  99.014  0.00  0.00    +0.089 A 
ATOM     10  N   LIG    1       69.814  48.824  99.241  0.00  0.00    -0.253 NA
ATOM     11  C   LIG    1       69.960  49.698 100.263  0.00  0.00    +0.111 A 
ATOM     12  C   LIG    1       68.927  50.097 101.093  0.00  0.00    +0.020 A 
ENDBRANCH   1   9
BRANCH   3  13
ATOM     13  C   LIG    1       68.544  47.688  94.222  0.00  0.00    +0.089 A 
ATOM     14  N   LIG    1       69.801  48.057  93.849  0.00  0.00    -0.253 NA
ATOM     15  C   LIG    1       69.967  48.634  92.640  0.00  0.00    +0.111 A 
ATOM     16  C   LIG    1       68.933  48.883  91.757  0.00  0.00    +0.020 A 
ATOM     17  C   LIG    1       67.651  48.511  92.135  0.00  0.00    +0.004 A 
ATOM     18  C   LIG    1       67.453  47.905  93.376  0.00  0.00    +0.030 A 
ENDBRANCH   3  13
TORSDOF 2
ENDMDL
MODEL 7
REMARK VINA RESULT:      -7.1      1.926      2.918
REMARK  Name = 
REMARK                            x       y       z     vdW  Elec       q    Type
REMARK                         _______ _______ _______ _____ _____    ______ ____
ROOT
ATOM      1  C   LIG    1       67.699  47.103  95.150  0.00  0.00    +0.090 A 
ATOM      2  N   LIG    1       67.965  46.910  96.471  0.00  0.00    -0.244 NA
ATOM      3  C   LIG    1       67.225  46.017  97.185  0.00  0.00    +0.090 A 
ATOM      4  C   LIG    1       66.197  45.293  96.584  0.00  0.00    +0.030 A 
ATOM      5  C   LIG    1       65.915  45.497  95.237  0.00  0.00    +0.004 A 
ATOM      6  C   LIG    1       66.670  46.412  94.514  0.00  0.00    +0.030 A 
ENDROOT
BRANCH   1   9
ATOM      7  C   LIG    1       69.322  49.177  92.428  0.00  0.00    +0.004 A 
ATOM      8  C   LIG    1       68.495  48.243  93.049  0.00  0.00    +0.030 A 
ATOM      9  C   LIG    1       68.560  48.074  94.434  0.00  0.00    +0.089 A 
ATOM     10  N   LIG    1       69.422  48.809  95.195  0.00  0.00    -0.253 NA
ATOM     11  C   LIG    1       70.216  49.704  94.565  0.00  0.00    +0.111 A 
ATOM     12  C   LIG    1       70.202  49.923  93.199  0.00  0.00    +0.020 A 
ENDBRANCH   1   9
BRANCH   3  13
ATOM     13  C   LIG    1       67.573  45.875  98.622  0.00  0.00    +0.089 A 
ATOM     14  N   LIG    1       68.339  46.862  99.164  0.00  0.00    -0.253 NA
ATOM     15  C   LIG    1       68.669  46.772 100.470  0.00  0.00    +0.111 A 
ATOM     16  C   LIG    1       68.282  45.731 101.293  0.00  0.00    +0.020 A 
ATOM     17  C   LIG    1       67.503  44.723 100.743  0.00  0.00    +0.004 A 
ATOM     18  C   LIG    1       67.141  44.795  99.398  0.00  0.00    +0.030 A 
ENDBRANCH   3  13
TORSDOF 2
ENDMDL
MODEL 8
REMARK VINA RESULT:      -7.1      1.926      6.722
REMARK  Name = 
REMARK                            x       y       z     vdW  Elec       q    Type
REMARK                         _______ _______ _______ _____ _____    ______ ____
ROOT
ATOM      1  C   LIG    1       67.216  46.019  97.189  0.00  0.00    +0.090 A 
ATOM      2  N   LIG    1       67.950  46.908  96.464  0.00  0.00    -0.244 NA
ATOM      3  C   LIG    1       67.674  47.093  95.144  0.00  0.00    +0.090 A 
ATOM      4  C   LIG    1       66.648  46.387  94.519  0.00  0.00    +0.030 A 
ATOM      5  C   LIG    1       65.903  45.470  95.253  0.00  0.00    +0.004 A 
ATOM      6  C   LIG    1       66.192  45.281  96.600  0.00  0.00    +0.030 A 
ENDROOT
BRANCH   1   9
ATOM      7  C   LIG    1       67.513  44.713 100.732  0.00  0.00    +0.004 A 
ATOM      8  C   LIG    1       67.153  44.791  99.387  0.00  0.00    +0.030 A 
ATOM      9  C   LIG    1       67.561  45.887  98.624  0.00  0.00    +0.089 A 
ATOM     10  N   LIG    1       68.308  46.890  99.172  0.00  0.00    -0.253 NA
ATOM     11  C   LIG    1       68.638  46.790 100.479  0.00  0.00    +0.111 A 
ATOM     12  C   LIG    1       68.269  45.732 101.291  0.00  0.00    +0.020 A 
ENDBRANCH   1   9
BRANCH   3  13
ATOM     13  C   LIG    1       68.530  48.071  94.424  0.00  0.00    +0.089 A 
ATOM     14  N   LIG    1       69.408  48.785  95.181  0.00  0.00    -0.253 NA
ATOM     15  C   LIG    1       70.208  49.679  94.561  0.00  0.00    +0.111 A 
ATOM     16  C   LIG    1       70.185  49.920  93.200  0.00  0.00    +0.020 A 
ATOM     17  C   LIG    1       69.290  49.195  92.427  0.00  0.00    +0.004 A 
ATOM     18  C   LIG    1       68.457  48.260  93.040  0.00  0.00    +0.030 A 
ENDBRANCH   3  13
TORSDOF 2
ENDMDL
MODEL 9
REMARK VINA RESULT:      -6.0      1.901      3.723
REMARK  Name = 
REMARK                            x       y       z     vdW  Elec       q    Type
REMARK                         _______ _______ _______ _____ _____    ______ ____
ROOT
ATOM      1  C   LIG    1       67.235  46.727  96.284  0.00  0.00    +0.090 A 
ATOM      2  N   LIG    1       67.758  47.635  97.153  0.00  0.00    -0.244 NA
ATOM      3  C   LIG    1       67.845  47.330  98.476  0.00  0.00    +0.090 A 
ATOM      4  C   LIG    1       67.408  46.097  98.960  0.00  0.00    +0.030 A 
ATOM      5  C   LIG    1       66.862  45.171  98.076  0.00  0.00    +0.004 A 
ATOM      6  C   LIG    1       66.771  45.490  96.726  0.00  0.00    +0.030 A 
ENDROOT
BRANCH   1   9
ATOM      7  C   LIG    1       66.221  47.048  92.649  0.00  0.00    +0.004 A 
ATOM      8  C   LIG    1       66.219  46.635  93.980  0.00  0.00    +0.030 A 
ATOM      9  C   LIG    1       67.192  47.123  94.856  0.00  0.00    +0.089 A 
ATOM     10  N   LIG    1       68.149  47.998  94.432  0.00  0.00    -0.253 NA
ATOM     11  C   LIG    1       68.129  48.377  93.134  0.00  0.00    +0.111 A 
ATOM     12  C   LIG    1       67.194  47.935  92.214  0.00  0.00    +0.020 A 
ENDBRANCH   1   9
BRANCH   3  13
ATOM     13  C   LIG    1       68.416  48.380  99.358  0.00  0.00    +0.089 A 
ATOM     14  N   LIG    1       69.719  48.713  99.143  0.00  0.00    -0.253 NA
ATOM     15  C   LIG    1       70.272  49.670  99.919  0.00  0.00    +0.111 A 
ATOM     16  C   LIG    1       69.596  50.328 100.929  0.00  0.00    +0.020 A 
ATOM     17  C   LIG    1       68.270  49.989 101.153  0.00  0.00    +0.004 A 
ATOM     18  C   LIG    1       67.671  49.010 100.360  0.00  0.00    +0.030 A 
ENDBRANCH   3  13
TORSDOF 2
ENDMDL
