MODEL 1
REMARK VINA RESULT:      -8.8      0.000      0.000
REMARK  Name = 
REMARK                            x       y       z     vdW  Elec       q    Type
REMARK                         _______ _______ _______ _____ _____    ______ ____
ROOT
ATOM      1  C   LIG    1       38.016  34.067   7.164  0.00  0.00    +0.090 A 
ATOM      2  N   LIG    1       38.923  33.091   6.885  0.00  0.00    -0.244 NA
ATOM      3  C   LIG    1       39.134  32.090   7.783  0.00  0.00    +0.090 A 
ATOM      4  C   LIG    1       38.433  32.046   8.988  0.00  0.00    +0.030 A 
ATOM      5  C   LIG    1       37.514  33.048   9.281  0.00  0.00    +0.004 A 
ATOM      6  C   LIG    1       37.306  34.070   8.362  0.00  0.00    +0.030 A 
ENDROOT
BRANCH   1   9
ATOM      7  C   LIG    1       38.023  37.375   5.320  0.00  0.00    +0.004 A 
ATOM      8  C   LIG    1       38.218  36.436   6.331  0.00  0.00    +0.030 A 
ATOM      9  C   LIG    1       37.825  35.111   6.129  0.00  0.00    +0.089 A 
ATOM     10  N   LIG    1       37.250  34.716   4.956  0.00  0.00    -0.253 NA
ATOM     11  C   LIG    1       37.069  35.650   3.995  0.00  0.00    +0.111 A 
ATOM     12  C   LIG    1       37.436  36.977   4.128  0.00  0.00    +0.020 A 
ENDBRANCH   1   9
BRANCH   3  13
ATOM     13  C   LIG    1       40.148  31.071   7.408  0.00  0.00    +0.089 A 
ATOM     14  N   LIG    1       40.396  30.093   8.322  0.00  0.00    -0.253 NA
ATOM     15  C   LIG    1       41.306  29.144   8.014  0.00  0.00    +0.111 A 
ATOM     16  C   LIG    1       42.011  29.110   6.826  0.00  0.00    +0.020 A 
ATOM     17  C   LIG    1       41.762  30.107   5.893  0.00  0.00    +0.004 A 
ATOM     18  C   LIG    1       40.821  31.095   6.183  0.00  0.00    +0.030 A 
ENDBRANCH   3  13
TORSDOF 2
ENDMDL
MODEL 2
REMARK VINA RESULT:      -8.8      0.036      6.202
REMARK  Name = 
REMARK                            x       y       z     vdW  Elec       q    Type
REMARK                         _______ _______ _______ _____ _____    ______ ____
ROOT
ATOM      1  C   LIG    1       39.119  32.089   7.809  0.00  0.00    +0.090 A 
ATOM      2  N   LIG    1       38.904  33.083   6.905  0.00  0.00    -0.244 NA
ATOM      3  C   LIG    1       38.009  34.070   7.187  0.00  0.00    +0.090 A 
ATOM      4  C   LIG    1       37.307  34.080   8.392  0.00  0.00    +0.030 A 
ATOM      5  C   LIG    1       37.517  33.059   9.313  0.00  0.00    +0.004 A 
ATOM      6  C   LIG    1       38.428  32.052   9.018  0.00  0.00    +0.030 A 
ENDROOT
BRANCH   1   9
ATOM      7  C   LIG    1       41.719  30.090   5.915  0.00  0.00    +0.004 A 
ATOM      8  C   LIG    1       40.776  31.074   6.206  0.00  0.00    +0.030 A 
ATOM      9  C   LIG    1       40.123  31.063   7.441  0.00  0.00    +0.089 A 
ATOM     10  N   LIG    1       40.390  30.101   8.372  0.00  0.00    -0.253 NA
ATOM     11  C   LIG    1       41.305  29.156   8.060  0.00  0.00    +0.111 A 
ATOM     12  C   LIG    1       41.989  29.109   6.858  0.00  0.00    +0.020 A 
ENDBRANCH   1   9
BRANCH   3  13
ATOM     13  C   LIG    1       37.824  35.109   6.143  0.00  0.00    +0.089 A 
ATOM     14  N   LIG    1       37.239  34.708   4.980  0.00  0.00    -0.253 NA
ATOM     15  C   LIG    1       37.046  35.626   4.009  0.00  0.00    +0.111 A 
ATOM     16  C   LIG    1       37.416  36.953   4.120  0.00  0.00    +0.020 A 
ATOM     17  C   LIG    1       38.015  37.365   5.302  0.00  0.00    +0.004 A 
ATOM     18  C   LIG    1       38.218  36.439   6.325  0.00  0.00    +0.030 A 
ENDBRANCH   3  13
TORSDOF 2
ENDMDL
MODEL 3
REMARK VINA RESULT:      -8.3      2.284      7.425
REMARK  Name = 
REMARK                            x       y       z     vdW  Elec       q    Type
REMARK                         _______ _______ _______ _____ _____    ______ ____
ROOT
ATOM      1  C   LIG    1       41.082  29.323   7.642  0.00  0.00    +0.090 A 
ATOM      2  N   LIG    1       40.170  30.250   8.045  0.00  0.00    -0.244 NA
ATOM      3  C   LIG    1       39.961  31.362   7.289  0.00  0.00    +0.090 A 
ATOM      4  C   LIG    1       40.666  31.569   6.104  0.00  0.00    +0.030 A 
ATOM      5  C   LIG    1       41.606  30.629   5.696  0.00  0.00    +0.004 A 
ATOM      6  C   LIG    1       41.820  29.497   6.474  0.00  0.00    +0.030 A 
ENDROOT
BRANCH   1   9
ATOM      7  C   LIG    1       42.458  26.189   9.264  0.00  0.00    +0.004 A 
ATOM      8  C   LIG    1       42.357  27.294   8.421  0.00  0.00    +0.030 A 
ATOM      9  C   LIG    1       41.240  28.128   8.506  0.00  0.00    +0.089 A 
ATOM     10  N   LIG    1       40.239  27.880   9.401  0.00  0.00    -0.253 NA
ATOM     11  C   LIG    1       40.362  26.798  10.202  0.00  0.00    +0.111 A 
ATOM     12  C   LIG    1       41.441  25.933  10.172  0.00  0.00    +0.020 A 
ENDBRANCH   1   9
BRANCH   3  13
ATOM     13  C   LIG    1       38.958  32.329   7.804  0.00  0.00    +0.089 A 
ATOM     14  N   LIG    1       38.473  32.096   9.055  0.00  0.00    -0.253 NA
ATOM     15  C   LIG    1       37.565  32.957   9.562  0.00  0.00    +0.111 A 
ATOM     16  C   LIG    1       37.090  34.063   8.882  0.00  0.00    +0.020 A 
ATOM     17  C   LIG    1       37.580  34.303   7.606  0.00  0.00    +0.004 A 
ATOM     18  C   LIG    1       38.525  33.433   7.062  0.00  0.00    +0.030 A 
ENDBRANCH   3  13
TORSDOF 2
ENDMDL
MODEL 4
REMARK VINA RESULT:      -8.3      2.207      4.358
REMARK  Name = 
REMARK                            x       y       z     vdW  Elec       q    Type
REMARK                         _______ _______ _______ _____ _____    ______ ____
ROOT
ATOM      1  C   LIG    1       39.990  31.360   7.229  0.00  0.00    +0.090 A 
ATOM      2  N   LIG    1       40.181  30.255   8.000  0.00  0.00    -0.244 NA
ATOM      3  C   LIG    1       41.097  29.320   7.624  0.00  0.00    +0.090 A 
ATOM      4  C   LIG    1       41.847  29.477   6.460  0.00  0.00    +0.030 A 
ATOM      5  C   LIG    1       41.647  30.600   5.664  0.00  0.00    +0.004 A 
ATOM      6  C   LIG    1       40.708  31.549   6.050  0.00  0.00    +0.030 A 
ENDROOT
BRANCH   1   9
ATOM      7  C   LIG    1       37.664  34.340   7.454  0.00  0.00    +0.004 A 
ATOM      8  C   LIG    1       38.614  33.452   6.953  0.00  0.00    +0.030 A 
ATOM      9  C   LIG    1       38.992  32.343   7.714  0.00  0.00    +0.089 A 
ATOM     10  N   LIG    1       38.449  32.112   8.944  0.00  0.00    -0.253 NA
ATOM     11  C   LIG    1       37.533  32.993   9.406  0.00  0.00    +0.111 A 
ATOM     12  C   LIG    1       37.112  34.109   8.705  0.00  0.00    +0.020 A 
ENDBRANCH   1   9
BRANCH   3  13
ATOM     13  C   LIG    1       41.234  28.138   8.514  0.00  0.00    +0.089 A 
ATOM     14  N   LIG    1       40.242  27.943   9.426  0.00  0.00    -0.253 NA
ATOM     15  C   LIG    1       40.328  26.875  10.248  0.00  0.00    +0.111 A 
ATOM     16  C   LIG    1       41.370  25.968  10.224  0.00  0.00    +0.020 A 
ATOM     17  C   LIG    1       42.383  26.164   9.298  0.00  0.00    +0.004 A 
ATOM     18  C   LIG    1       42.316  27.255   8.432  0.00  0.00    +0.030 A 
ENDBRANCH   3  13
TORSDOF 2
ENDMDL
MODEL 5
REMARK VINA RESULT:      -7.9      3.074      4.998
REMARK  Name = 
REMARK                            x       y       z     vdW  Elec       q    Type
REMARK                         _______ _______ _______ _____ _____    ______ ____
ROOT
ATOM      1  C   LIG    1       38.551  29.486   8.783  0.00  0.00    +0.090 A 
ATOM      2  N   LIG    1       39.728  28.839   9.000  0.00  0.00    -0.244 NA
ATOM      3  C   LIG    1       39.723  27.598   9.560  0.00  0.00    +0.090 A 
ATOM      4  C   LIG    1       38.527  26.975   9.915  0.00  0.00    +0.030 A 
ATOM      5  C   LIG    1       37.322  27.639   9.704  0.00  0.00    +0.004 A 
ATOM      6  C   LIG    1       37.334  28.907   9.137  0.00  0.00    +0.030 A 
ENDROOT
BRANCH   1   9
ATOM      7  C   LIG    1       39.713  32.447   6.726  0.00  0.00    +0.004 A 
ATOM      8  C   LIG    1       39.687  31.177   7.302  0.00  0.00    +0.030 A 
ATOM      9  C   LIG    1       38.636  30.824   8.150  0.00  0.00    +0.089 A 
ATOM     10  N   LIG    1       37.629  31.701   8.430  0.00  0.00    -0.253 NA
ATOM     11  C   LIG    1       37.683  32.927   7.862  0.00  0.00    +0.111 A 
ATOM     12  C   LIG    1       38.692  33.341   7.011  0.00  0.00    +0.020 A 
ENDBRANCH   1   9
BRANCH   3  13
ATOM     13  C   LIG    1       41.050  26.966   9.775  0.00  0.00    +0.089 A 
ATOM     14  N   LIG    1       41.148  26.092  10.813  0.00  0.00    -0.253 NA
ATOM     15  C   LIG    1       42.337  25.491  11.036  0.00  0.00    +0.111 A 
ATOM     16  C   LIG    1       43.468  25.717  10.274  0.00  0.00    +0.020 A 
ATOM     17  C   LIG    1       43.372  26.610   9.216  0.00  0.00    +0.004 A 
ATOM     18  C   LIG    1       42.154  27.238   8.960  0.00  0.00    +0.030 A 
ENDBRANCH   3  13
TORSDOF 2
ENDMDL
MODEL 6
REMARK VINA RESULT:      -7.9      3.088      7.912
REMARK  Name = 
REMARK                            x       y       z     vdW  Elec       q    Type
REMARK                         _______ _______ _______ _____ _____    ______ ____
ROOT
ATOM      1  C   LIG    1       39.762  27.561   9.554  0.00  0.00    +0.090 A 
ATOM      2  N   LIG    1       39.756  28.802   8.993  0.00  0.00    -0.244 NA
ATOM      3  C   LIG    1       38.572  29.440   8.781  0.00  0.00    +0.090 A 
ATOM      4  C   LIG    1       37.361  28.844   9.131  0.00  0.00    +0.030 A 
ATOM      5  C   LIG    1       37.364  27.572   9.694  0.00  0.00    +0.004 A 
ATOM      6  C   LIG    1       38.575  26.923   9.904  0.00  0.00    +0.030 A 
ENDROOT
BRANCH   1   9
ATOM      7  C   LIG    1       43.412  26.610   9.207  0.00  0.00    +0.004 A 
ATOM      8  C   LIG    1       42.183  27.216   8.950  0.00  0.00    +0.030 A 
ATOM      9  C   LIG    1       41.090  26.939   9.773  0.00  0.00    +0.089 A 
ATOM     10  N   LIG    1       41.199  26.081  10.829  0.00  0.00    -0.253 NA
ATOM     11  C   LIG    1       42.402  25.503  11.051  0.00  0.00    +0.111 A 
ATOM     12  C   LIG    1       43.525  25.735  10.277  0.00  0.00    +0.020 A 
ENDBRANCH   1   9
BRANCH   3  13
ATOM     13  C   LIG    1       38.652  30.784   8.153  0.00  0.00    +0.089 A 
ATOM     14  N   LIG    1       37.658  31.662   8.464  0.00  0.00    -0.253 NA
ATOM     15  C   LIG    1       37.700  32.897   7.920  0.00  0.00    +0.111 A 
ATOM     16  C   LIG    1       38.691  33.324   7.056  0.00  0.00    +0.020 A 
ATOM     17  C   LIG    1       39.704  32.431   6.736  0.00  0.00    +0.004 A 
ATOM     18  C   LIG    1       39.689  31.152   7.290  0.00  0.00    +0.030 A 
ENDBRANCH   3  13
TORSDOF 2
ENDMDL
MODEL 7
REMARK VINA RESULT:      -7.9      1.992      4.096
REMARK  Name = 
REMARK                            x       y       z     vdW  Elec       q    Type
REMARK                         _______ _______ _______ _____ _____    ______ ____
ROOT
ATOM      1  C   LIG    1       39.751  31.615   7.122  0.00  0.00    +0.090 A 
ATOM      2  N   LIG    1       39.601  30.523   7.921  0.00  0.00    -0.244 NA
ATOM      3  C   LIG    1       40.378  29.425   7.715  0.00  0.00    +0.090 A 
ATOM      4  C   LIG    1       41.330  29.399   6.697  0.00  0.00    +0.030 A 
ATOM      5  C   LIG    1       41.478  30.509   5.872  0.00  0.00    +0.004 A 
ATOM      6  C   LIG    1       40.679  31.626   6.084  0.00  0.00    +0.030 A 
ENDROOT
BRANCH   1   9
ATOM      7  C   LIG    1       37.952  34.940   6.884  0.00  0.00    +0.004 A 
ATOM      8  C   LIG    1       38.789  33.874   6.558  0.00  0.00    +0.030 A 
ATOM      9  C   LIG    1       38.884  32.780   7.421  0.00  0.00    +0.089 A 
ATOM     10  N   LIG    1       38.172  32.734   8.584  0.00  0.00    -0.253 NA
ATOM     11  C   LIG    1       37.371  33.785   8.877  0.00  0.00    +0.111 A 
ATOM     12  C   LIG    1       37.229  34.897   8.067  0.00  0.00    +0.020 A 
ENDBRANCH   1   9
BRANCH   3  13
ATOM     13  C   LIG    1       40.142  28.272   8.623  0.00  0.00    +0.089 A 
ATOM     14  N   LIG    1       41.231  27.779   9.276  0.00  0.00    -0.253 NA
ATOM     15  C   LIG    1       41.056  26.736  10.115  0.00  0.00    +0.111 A 
ATOM     16  C   LIG    1       39.835  26.131  10.348  0.00  0.00    +0.020 A 
ATOM     17  C   LIG    1       38.725  26.630   9.683  0.00  0.00    +0.004 A 
ATOM     18  C   LIG    1       38.876  27.712   8.816  0.00  0.00    +0.030 A 
ENDBRANCH   3  13
TORSDOF 2
ENDMDL
MODEL 8
REMARK VINA RESULT:      -7.8      3.031      7.447
REMARK  Name = 
REMARK                            x       y       z     vdW  Elec       q    Type
REMARK                         _______ _______ _______ _____ _____    ______ ____
ROOT
ATOM      1  C   LIG    1       40.015  29.108  10.049  0.00  0.00    +0.090 A 
ATOM      2  N   LIG    1       39.674  30.339   9.579  0.00  0.00    -0.244 NA
ATOM      3  C   LIG    1       38.846  30.446   8.503  0.00  0.00    +0.090 A 
ATOM      4  C   LIG    1       38.337  29.311   7.874  0.00  0.00    +0.030 A 
ATOM      5  C   LIG    1       38.692  28.051   8.345  0.00  0.00    +0.004 A 
ATOM      6  C   LIG    1       39.541  27.948   9.440  0.00  0.00    +0.030 A 
ENDROOT
BRANCH   1   9
ATOM      7  C   LIG    1       41.284  28.892  13.610  0.00  0.00    +0.004 A 
ATOM      8  C   LIG    1       40.403  28.927  12.531  0.00  0.00    +0.030 A 
ATOM      9  C   LIG    1       40.903  29.073  11.235  0.00  0.00    +0.089 A 
ATOM     10  N   LIG    1       42.243  29.183  11.003  0.00  0.00    -0.253 NA
ATOM     11  C   LIG    1       43.074  29.150  12.070  0.00  0.00    +0.111 A 
ATOM     12  C   LIG    1       42.647  29.006  13.378  0.00  0.00    +0.020 A 
ENDBRANCH   1   9
BRANCH   3  13
ATOM     13  C   LIG    1       38.534  31.824   8.047  0.00  0.00    +0.089 A 
ATOM     14  N   LIG    1       37.465  32.432   8.631  0.00  0.00    -0.253 NA
ATOM     15  C   LIG    1       37.154  33.689   8.248  0.00  0.00    +0.111 A 
ATOM     16  C   LIG    1       37.853  34.396   7.288  0.00  0.00    +0.020 A 
ATOM     17  C   LIG    1       38.941  33.779   6.689  0.00  0.00    +0.004 A 
ATOM     18  C   LIG    1       39.288  32.484   7.072  0.00  0.00    +0.030 A 
ENDBRANCH   3  13
TORSDOF 2
ENDMDL
MODEL 9
REMARK VINA RESULT:      -7.6      2.960      7.482
REMARK  Name = 
REMARK                            x       y       z     vdW  Elec       q    Type
REMARK                         _______ _______ _______ _____ _____    ______ ____
ROOT
ATOM      1  C   LIG    1       39.889  29.341  10.116  0.00  0.00    +0.090 A 
ATOM      2  N   LIG    1       39.533  30.593   9.715  0.00  0.00    -0.244 NA
ATOM      3  C   LIG    1       38.662  30.748   8.680  0.00  0.00    +0.090 A 
ATOM      4  C   LIG    1       38.123  29.642   8.023  0.00  0.00    +0.030 A 
ATOM      5  C   LIG    1       38.493  28.362   8.423  0.00  0.00    +0.004 A 
ATOM      6  C   LIG    1       39.387  28.210   9.476  0.00  0.00    +0.030 A 
ENDROOT
BRANCH   1   9
ATOM      7  C   LIG    1       43.028  29.402  12.234  0.00  0.00    +0.004 A 
ATOM      8  C   LIG    1       42.194  29.491  11.120  0.00  0.00    +0.030 A 
ATOM      9  C   LIG    1       40.825  29.252  11.261  0.00  0.00    +0.089 A 
ATOM     10  N   LIG    1       40.285  28.931  12.473  0.00  0.00    -0.253 NA
ATOM     11  C   LIG    1       41.119  28.847  13.534  0.00  0.00    +0.111 A 
ATOM     12  C   LIG    1       42.482  29.073  13.465  0.00  0.00    +0.020 A 
ENDBRANCH   1   9
BRANCH   3  13
ATOM     13  C   LIG    1       38.336  32.146   8.298  0.00  0.00    +0.089 A 
ATOM     14  N   LIG    1       38.932  32.624   7.171  0.00  0.00    -0.253 NA
ATOM     15  C   LIG    1       38.655  33.888   6.787  0.00  0.00    +0.111 A 
ATOM     16  C   LIG    1       37.805  34.733   7.474  0.00  0.00    +0.020 A 
ATOM     17  C   LIG    1       37.197  34.250   8.624  0.00  0.00    +0.004 A 
ATOM     18  C   LIG    1       37.460  32.945   9.039  0.00  0.00    +0.030 A 
ENDBRANCH   3  13
TORSDOF 2
ENDMDL
