MODEL 1
REMARK VINA RESULT:      -8.8      0.000      0.000
REMARK  Name = 
REMARK                            x       y       z     vdW  Elec       q    Type
REMARK                         _______ _______ _______ _____ _____    ______ ____
ROOT
ATOM      1  C   LIG    1        1.885  -1.470  22.727  0.00  0.00    +0.090 A 
ATOM      2  N   LIG    1        1.909  -0.109  22.673  0.00  0.00    -0.244 NA
ATOM      3  C   LIG    1        2.569   0.514  21.659  0.00  0.00    +0.090 A 
ATOM      4  C   LIG    1        3.223  -0.219  20.670  0.00  0.00    +0.030 A 
ATOM      5  C   LIG    1        3.210  -1.609  20.728  0.00  0.00    +0.004 A 
ATOM      6  C   LIG    1        2.539  -2.240  21.768  0.00  0.00    +0.030 A 
ENDROOT
BRANCH   1   9
ATOM      7  C   LIG    1       -0.320  -1.929  25.772  0.00  0.00    +0.004 A 
ATOM      8  C   LIG    1        0.380  -1.305  24.741  0.00  0.00    +0.030 A 
ATOM      9  C   LIG    1        1.129  -2.076  23.849  0.00  0.00    +0.089 A 
ATOM     10  N   LIG    1        1.190  -3.434  23.968  0.00  0.00    -0.253 NA
ATOM     11  C   LIG    1        0.506  -4.011  24.982  0.00  0.00    +0.111 A 
ATOM     12  C   LIG    1       -0.256  -3.309  25.898  0.00  0.00    +0.020 A 
ENDBRANCH   1   9
BRANCH   3  13
ATOM     13  C   LIG    1        2.557   1.999  21.681  0.00  0.00    +0.089 A 
ATOM     14  N   LIG    1        3.331   2.629  20.755  0.00  0.00    -0.253 NA
ATOM     15  C   LIG    1        3.341   3.979  20.737  0.00  0.00    +0.111 A 
ATOM     16  C   LIG    1        2.614   4.765  21.612  0.00  0.00    +0.020 A 
ATOM     17  C   LIG    1        1.825   4.127  22.558  0.00  0.00    +0.004 A 
ATOM     18  C   LIG    1        1.791   2.733  22.593  0.00  0.00    +0.030 A 
ENDBRANCH   3  13
TORSDOF 2
ENDMDL
MODEL 2
REMARK VINA RESULT:      -8.8      0.023      6.169
REMARK  Name = 
REMARK                            x       y       z     vdW  Elec       q    Type
REMARK                         _______ _______ _______ _____ _____    ______ ____
ROOT
ATOM      1  C   LIG    1        2.556   0.498  21.662  0.00  0.00    +0.090 A 
ATOM      2  N   LIG    1        1.888  -0.123  22.673  0.00  0.00    -0.244 NA
ATOM      3  C   LIG    1        1.872  -1.483  22.735  0.00  0.00    +0.090 A 
ATOM      4  C   LIG    1        2.533  -2.253  21.780  0.00  0.00    +0.030 A 
ATOM      5  C   LIG    1        3.208  -1.622  20.740  0.00  0.00    +0.004 A 
ATOM      6  C   LIG    1        3.216  -0.234  20.678  0.00  0.00    +0.030 A 
ENDROOT
BRANCH   1   9
ATOM      7  C   LIG    1        1.815   4.103  22.556  0.00  0.00    +0.004 A 
ATOM      8  C   LIG    1        1.781   2.710  22.585  0.00  0.00    +0.030 A 
ATOM      9  C   LIG    1        2.546   1.981  21.673  0.00  0.00    +0.089 A 
ATOM     10  N   LIG    1        3.329   2.607  20.747  0.00  0.00    -0.253 NA
ATOM     11  C   LIG    1        3.339   3.960  20.739  0.00  0.00    +0.111 A 
ATOM     12  C   LIG    1        2.608   4.743  21.615  0.00  0.00    +0.020 A 
ENDBRANCH   1   9
BRANCH   3  13
ATOM     13  C   LIG    1        1.111  -2.081  23.862  0.00  0.00    +0.089 A 
ATOM     14  N   LIG    1        1.173  -3.435  23.988  0.00  0.00    -0.253 NA
ATOM     15  C   LIG    1        0.500  -4.016  25.004  0.00  0.00    +0.111 A 
ATOM     16  C   LIG    1       -0.258  -3.317  25.924  0.00  0.00    +0.020 A 
ATOM     17  C   LIG    1       -0.325  -1.937  25.797  0.00  0.00    +0.004 A 
ATOM     18  C   LIG    1        0.367  -1.311  24.761  0.00  0.00    +0.030 A 
ENDBRANCH   3  13
TORSDOF 2
ENDMDL
MODEL 3
REMARK VINA RESULT:      -8.4      1.821      6.369
REMARK  Name = 
REMARK                            x       y       z     vdW  Elec       q    Type
REMARK                         _______ _______ _______ _____ _____    ______ ____
ROOT
ATOM      1  C   LIG    1        2.976  -0.370  21.450  0.00  0.00    +0.090 A 
ATOM      2  N   LIG    1        2.403  -1.288  22.276  0.00  0.00    -0.244 NA
ATOM      3  C   LIG    1        1.491  -0.885  23.203  0.00  0.00    +0.090 A 
ATOM      4  C   LIG    1        1.129   0.457  23.318  0.00  0.00    +0.030 A 
ATOM      5  C   LIG    1        1.720   1.398  22.482  0.00  0.00    +0.004 A 
ATOM      6  C   LIG    1        2.655   0.982  21.542  0.00  0.00    +0.030 A 
ENDROOT
BRANCH   1   9
ATOM      7  C   LIG    1        4.495  -1.814  18.295  0.00  0.00    +0.004 A 
ATOM      8  C   LIG    1        3.541  -1.346  19.197  0.00  0.00    +0.030 A 
ATOM      9  C   LIG    1        3.944  -0.887  20.453  0.00  0.00    +0.089 A 
ATOM     10  N   LIG    1        5.259  -0.890  20.818  0.00  0.00    -0.253 NA
ATOM     11  C   LIG    1        6.162  -1.354  19.924  0.00  0.00    +0.111 A 
ATOM     12  C   LIG    1        5.832  -1.820  18.664  0.00  0.00    +0.020 A 
ENDBRANCH   1   9
BRANCH   3  13
ATOM     13  C   LIG    1        0.923  -1.946  24.073  0.00  0.00    +0.089 A 
ATOM     14  N   LIG    1        1.223  -3.232  23.740  0.00  0.00    -0.253 NA
ATOM     15  C   LIG    1        0.732  -4.225  24.512  0.00  0.00    +0.111 A 
ATOM     16  C   LIG    1       -0.067  -4.016  25.620  0.00  0.00    +0.020 A 
ATOM     17  C   LIG    1       -0.376  -2.707  25.961  0.00  0.00    +0.004 A 
ATOM     18  C   LIG    1        0.125  -1.662  25.185  0.00  0.00    +0.030 A 
ENDBRANCH   3  13
TORSDOF 2
ENDMDL
MODEL 4
REMARK VINA RESULT:      -7.7      2.524      4.903
REMARK  Name = 
REMARK                            x       y       z     vdW  Elec       q    Type
REMARK                         _______ _______ _______ _____ _____    ______ ____
ROOT
ATOM      1  C   LIG    1        4.098  -1.014  21.031  0.00  0.00    +0.090 A 
ATOM      2  N   LIG    1        3.906   0.332  21.103  0.00  0.00    -0.244 NA
ATOM      3  C   LIG    1        2.757   0.822  21.644  0.00  0.00    +0.090 A 
ATOM      4  C   LIG    1        1.769  -0.034  22.129  0.00  0.00    +0.030 A 
ATOM      5  C   LIG    1        1.957  -1.410  22.046  0.00  0.00    +0.004 A 
ATOM      6  C   LIG    1        3.130  -1.905  21.489  0.00  0.00    +0.030 A 
ENDROOT
BRANCH   1   9
ATOM      7  C   LIG    1        6.725  -2.289  18.618  0.00  0.00    +0.004 A 
ATOM      8  C   LIG    1        5.490  -1.876  19.116  0.00  0.00    +0.030 A 
ATOM      9  C   LIG    1        5.382  -1.471  20.449  0.00  0.00    +0.089 A 
ATOM     10  N   LIG    1        6.467  -1.472  21.277  0.00  0.00    -0.253 NA
ATOM     11  C   LIG    1        7.651  -1.882  20.768  0.00  0.00    +0.111 A 
ATOM     12  C   LIG    1        7.828  -2.294  19.459  0.00  0.00    +0.020 A 
ENDBRANCH   1   9
BRANCH   3  13
ATOM     13  C   LIG    1        2.622   2.301  21.674  0.00  0.00    +0.089 A 
ATOM     14  N   LIG    1        3.310   2.995  20.726  0.00  0.00    -0.253 NA
ATOM     15  C   LIG    1        3.207   4.341  20.716  0.00  0.00    +0.111 A 
ATOM     16  C   LIG    1        2.447   5.062  21.618  0.00  0.00    +0.020 A 
ATOM     17  C   LIG    1        1.745   4.358  22.586  0.00  0.00    +0.004 A 
ATOM     18  C   LIG    1        1.829   2.966  22.614  0.00  0.00    +0.030 A 
ENDBRANCH   3  13
TORSDOF 2
ENDMDL
MODEL 5
REMARK VINA RESULT:      -7.7      2.600      6.227
REMARK  Name = 
REMARK                            x       y       z     vdW  Elec       q    Type
REMARK                         _______ _______ _______ _____ _____    ______ ____
ROOT
ATOM      1  C   LIG    1        2.798   0.844  21.566  0.00  0.00    +0.090 A 
ATOM      2  N   LIG    1        3.967   0.364  21.058  0.00  0.00    -0.244 NA
ATOM      3  C   LIG    1        4.156  -0.981  20.957  0.00  0.00    +0.090 A 
ATOM      4  C   LIG    1        3.169  -1.878  21.363  0.00  0.00    +0.030 A 
ATOM      5  C   LIG    1        1.978  -1.390  21.892  0.00  0.00    +0.004 A 
ATOM      6  C   LIG    1        1.792  -0.017  21.998  0.00  0.00    +0.030 A 
ENDROOT
BRANCH   1   9
ATOM      7  C   LIG    1        1.847   4.345  22.654  0.00  0.00    +0.004 A 
ATOM      8  C   LIG    1        1.941   2.955  22.642  0.00  0.00    +0.030 A 
ATOM      9  C   LIG    1        2.657   2.319  21.625  0.00  0.00    +0.089 A 
ATOM     10  N   LIG    1        3.269   3.035  20.638  0.00  0.00    -0.253 NA
ATOM     11  C   LIG    1        3.157   4.383  20.673  0.00  0.00    +0.111 A 
ATOM     12  C   LIG    1        2.466   5.076  21.650  0.00  0.00    +0.020 A 
ENDBRANCH   1   9
BRANCH   3  13
ATOM     13  C   LIG    1        5.462  -1.422  20.405  0.00  0.00    +0.089 A 
ATOM     14  N   LIG    1        6.539  -1.320  21.232  0.00  0.00    -0.253 NA
ATOM     15  C   LIG    1        7.743  -1.719  20.769  0.00  0.00    +0.111 A 
ATOM     16  C   LIG    1        7.952  -2.218  19.498  0.00  0.00    +0.020 A 
ATOM     17  C   LIG    1        6.857  -2.321  18.651  0.00  0.00    +0.004 A 
ATOM     18  C   LIG    1        5.601  -1.924  19.107  0.00  0.00    +0.030 A 
ENDBRANCH   3  13
TORSDOF 2
ENDMDL
MODEL 6
REMARK VINA RESULT:      -7.5     10.171     10.945
REMARK  Name = 
REMARK                            x       y       z     vdW  Elec       q    Type
REMARK                         _______ _______ _______ _____ _____    ______ ____
ROOT
ATOM      1  C   LIG    1        8.949  -3.952  28.240  0.00  0.00    +0.090 A 
ATOM      2  N   LIG    1       10.193  -3.477  27.959  0.00  0.00    -0.244 NA
ATOM      3  C   LIG    1       10.585  -3.337  26.663  0.00  0.00    +0.090 A 
ATOM      4  C   LIG    1        9.729  -3.670  25.613  0.00  0.00    +0.030 A 
ATOM      5  C   LIG    1        8.461  -4.166  25.897  0.00  0.00    +0.004 A 
ATOM      6  C   LIG    1        8.068  -4.312  27.222  0.00  0.00    +0.030 A 
ENDROOT
BRANCH   1   9
ATOM      7  C   LIG    1        6.974  -4.170  31.464  0.00  0.00    +0.004 A 
ATOM      8  C   LIG    1        7.258  -4.060  30.104  0.00  0.00    +0.030 A 
ATOM      9  C   LIG    1        8.587  -4.057  29.674  0.00  0.00    +0.089 A 
ATOM     10  N   LIG    1        9.617  -4.160  30.562  0.00  0.00    -0.253 NA
ATOM     11  C   LIG    1        9.312  -4.260  31.876  0.00  0.00    +0.111 A 
ATOM     12  C   LIG    1        8.020  -4.271  32.370  0.00  0.00    +0.020 A 
ENDBRANCH   1   9
BRANCH   3  13
ATOM     13  C   LIG    1       11.962  -2.824  26.443  0.00  0.00    +0.089 A 
ATOM     14  N   LIG    1       12.634  -2.392  27.545  0.00  0.00    -0.253 NA
ATOM     15  C   LIG    1       13.892  -1.926  27.387  0.00  0.00    +0.111 A 
ATOM     16  C   LIG    1       14.538  -1.853  26.168  0.00  0.00    +0.020 A 
ATOM     17  C   LIG    1       13.855  -2.291  25.042  0.00  0.00    +0.004 A 
ATOM     18  C   LIG    1       12.558  -2.784  25.179  0.00  0.00    +0.030 A 
ENDBRANCH   3  13
TORSDOF 2
ENDMDL
MODEL 7
REMARK VINA RESULT:      -7.5     10.113     12.053
REMARK  Name = 
REMARK                            x       y       z     vdW  Elec       q    Type
REMARK                         _______ _______ _______ _____ _____    ______ ____
ROOT
ATOM      1  C   LIG    1       10.446  -3.397  26.767  0.00  0.00    +0.090 A 
ATOM      2  N   LIG    1       10.057  -3.515  28.066  0.00  0.00    -0.244 NA
ATOM      3  C   LIG    1        8.819  -4.001  28.358  0.00  0.00    +0.090 A 
ATOM      4  C   LIG    1        7.940  -4.384  27.345  0.00  0.00    +0.030 A 
ATOM      5  C   LIG    1        8.331  -4.254  26.016  0.00  0.00    +0.004 A 
ATOM      6  C   LIG    1        9.594  -3.753  25.724  0.00  0.00    +0.030 A 
ENDROOT
BRANCH   1   9
ATOM      7  C   LIG    1       13.667  -2.330  25.084  0.00  0.00    +0.004 A 
ATOM      8  C   LIG    1       12.378  -2.834  25.251  0.00  0.00    +0.030 A 
ATOM      9  C   LIG    1       11.815  -2.881  26.529  0.00  0.00    +0.089 A 
ATOM     10  N   LIG    1       12.505  -2.442  27.621  0.00  0.00    -0.253 NA
ATOM     11  C   LIG    1       13.755  -1.963  27.429  0.00  0.00    +0.111 A 
ATOM     12  C   LIG    1       14.372  -1.886  26.193  0.00  0.00    +0.020 A 
ENDBRANCH   1   9
BRANCH   3  13
ATOM     13  C   LIG    1        8.468  -4.086  29.799  0.00  0.00    +0.089 A 
ATOM     14  N   LIG    1        9.507  -4.128  30.678  0.00  0.00    -0.253 NA
ATOM     15  C   LIG    1        9.228  -4.198  31.997  0.00  0.00    +0.111 A 
ATOM     16  C   LIG    1        7.946  -4.238  32.512  0.00  0.00    +0.020 A 
ATOM     17  C   LIG    1        6.885  -4.198  31.619  0.00  0.00    +0.004 A 
ATOM     18  C   LIG    1        7.145  -4.118  30.251  0.00  0.00    +0.030 A 
ENDBRANCH   3  13
TORSDOF 2
ENDMDL
MODEL 8
REMARK VINA RESULT:      -7.4      3.701      6.046
REMARK  Name = 
REMARK                            x       y       z     vdW  Elec       q    Type
REMARK                         _______ _______ _______ _____ _____    ______ ____
ROOT
ATOM      1  C   LIG    1        5.728  -2.405  20.185  0.00  0.00    +0.090 A 
ATOM      2  N   LIG    1        4.749  -2.111  21.085  0.00  0.00    -0.244 NA
ATOM      3  C   LIG    1        3.671  -1.378  20.693  0.00  0.00    +0.090 A 
ATOM      4  C   LIG    1        3.550  -0.923  19.381  0.00  0.00    +0.030 A 
ATOM      5  C   LIG    1        4.553  -1.213  18.462  0.00  0.00    +0.004 A 
ATOM      6  C   LIG    1        5.654  -1.957  18.869  0.00  0.00    +0.030 A 
ENDROOT
BRANCH   1   9
ATOM      7  C   LIG    1        9.194  -3.832  20.728  0.00  0.00    +0.004 A 
ATOM      8  C   LIG    1        8.166  -3.039  20.222  0.00  0.00    +0.030 A 
ATOM      9  C   LIG    1        6.859  -3.225  20.680  0.00  0.00    +0.089 A 
ATOM     10  N   LIG    1        6.568  -4.174  21.617  0.00  0.00    -0.253 NA
ATOM     11  C   LIG    1        7.585  -4.932  22.086  0.00  0.00    +0.111 A 
ATOM     12  C   LIG    1        8.900  -4.799  21.678  0.00  0.00    +0.020 A 
ENDBRANCH   1   9
BRANCH   3  13
ATOM     13  C   LIG    1        2.655  -1.091  21.738  0.00  0.00    +0.089 A 
ATOM     14  N   LIG    1        2.158  -2.163  22.416  0.00  0.00    -0.253 NA
ATOM     15  C   LIG    1        1.239  -1.942  23.380  0.00  0.00    +0.111 A 
ATOM     16  C   LIG    1        0.762  -0.689  23.716  0.00  0.00    +0.020 A 
ATOM     17  C   LIG    1        1.264   0.405  23.026  0.00  0.00    +0.004 A 
ATOM     18  C   LIG    1        2.221   0.205  22.031  0.00  0.00    +0.030 A 
ENDBRANCH   3  13
TORSDOF 2
ENDMDL
MODEL 9
REMARK VINA RESULT:      -7.4      3.693      6.082
REMARK  Name = 
REMARK                            x       y       z     vdW  Elec       q    Type
REMARK                         _______ _______ _______ _____ _____    ______ ____
ROOT
ATOM      1  C   LIG    1        3.642  -1.389  20.666  0.00  0.00    +0.090 A 
ATOM      2  N   LIG    1        4.732  -2.109  21.050  0.00  0.00    -0.244 NA
ATOM      3  C   LIG    1        5.696  -2.410  20.138  0.00  0.00    +0.090 A 
ATOM      4  C   LIG    1        5.588  -1.991  18.813  0.00  0.00    +0.030 A 
ATOM      5  C   LIG    1        4.471  -1.265  18.415  0.00  0.00    +0.004 A 
ATOM      6  C   LIG    1        3.486  -0.964  19.349  0.00  0.00    +0.030 A 
ENDROOT
BRANCH   1   9
ATOM      7  C   LIG    1        1.276   0.454  22.980  0.00  0.00    +0.004 A 
ATOM      8  C   LIG    1        2.223   0.223  21.983  0.00  0.00    +0.030 A 
ATOM      9  C   LIG    1        2.645  -1.082  21.719  0.00  0.00    +0.089 A 
ATOM     10  N   LIG    1        2.146  -2.141  22.421  0.00  0.00    -0.253 NA
ATOM     11  C   LIG    1        1.232  -1.886  23.385  0.00  0.00    +0.111 A 
ATOM     12  C   LIG    1        0.770  -0.620  23.697  0.00  0.00    +0.020 A 
ENDBRANCH   1   9
BRANCH   3  13
ATOM     13  C   LIG    1        6.846  -3.209  20.635  0.00  0.00    +0.089 A 
ATOM     14  N   LIG    1        6.564  -4.178  21.550  0.00  0.00    -0.253 NA
ATOM     15  C   LIG    1        7.582  -4.931  22.020  0.00  0.00    +0.111 A 
ATOM     16  C   LIG    1        8.899  -4.771  21.634  0.00  0.00    +0.020 A 
ATOM     17  C   LIG    1        9.190  -3.784  20.704  0.00  0.00    +0.004 A 
ATOM     18  C   LIG    1        8.156  -2.997  20.196  0.00  0.00    +0.030 A 
ENDBRANCH   3  13
TORSDOF 2
ENDMDL
