MODEL 1
REMARK VINA RESULT:      -8.4      0.000      0.000
REMARK  Name = 
REMARK                            x       y       z     vdW  Elec       q    Type
REMARK                         _______ _______ _______ _____ _____    ______ ____
ROOT
ATOM      1  C   LIG    1       10.670   2.163  30.563  0.00  0.00    +0.090 A 
ATOM      2  N   LIG    1       10.646   1.864  31.890  0.00  0.00    -0.244 NA
ATOM      3  C   LIG    1       11.248   2.698  32.781  0.00  0.00    +0.090 A 
ATOM      4  C   LIG    1       11.889   3.861  32.356  0.00  0.00    +0.030 A 
ATOM      5  C   LIG    1       11.925   4.164  30.999  0.00  0.00    +0.004 A 
ATOM      6  C   LIG    1       11.313   3.306  30.094  0.00  0.00    +0.030 A 
ENDROOT
BRANCH   1   9
ATOM      7  C   LIG    1        8.498  -0.643  29.240  0.00  0.00    +0.004 A 
ATOM      8  C   LIG    1        9.133   0.213  30.137  0.00  0.00    +0.030 A 
ATOM      9  C   LIG    1        9.975   1.218  29.656  0.00  0.00    +0.089 A 
ATOM     10  N   LIG    1       10.191   1.379  28.318  0.00  0.00    -0.253 NA
ATOM     11  C   LIG    1        9.565   0.530  27.471  0.00  0.00    +0.111 A 
ATOM     12  C   LIG    1        8.718  -0.484  27.879  0.00  0.00    +0.020 A 
ENDBRANCH   1   9
BRANCH   3  13
ATOM     13  C   LIG    1       11.186   2.292  34.209  0.00  0.00    +0.089 A 
ATOM     14  N   LIG    1       10.047   1.668  34.616  0.00  0.00    -0.253 NA
ATOM     15  C   LIG    1        9.956   1.276  35.905  0.00  0.00    +0.111 A 
ATOM     16  C   LIG    1       10.951   1.479  36.843  0.00  0.00    +0.020 A 
ATOM     17  C   LIG    1       12.113   2.117  36.432  0.00  0.00    +0.004 A 
ATOM     18  C   LIG    1       12.235   2.525  35.104  0.00  0.00    +0.030 A 
ENDBRANCH   3  13
TORSDOF 2
ENDMDL
MODEL 2
REMARK VINA RESULT:      -8.4      0.048      6.220
REMARK  Name = 
REMARK                            x       y       z     vdW  Elec       q    Type
REMARK                         _______ _______ _______ _____ _____    ______ ____
ROOT
ATOM      1  C   LIG    1       11.213   2.698  32.766  0.00  0.00    +0.090 A 
ATOM      2  N   LIG    1       10.601   1.870  31.875  0.00  0.00    -0.244 NA
ATOM      3  C   LIG    1       10.636   2.165  30.546  0.00  0.00    +0.090 A 
ATOM      4  C   LIG    1       11.293   3.303  30.080  0.00  0.00    +0.030 A 
ATOM      5  C   LIG    1       11.909   4.157  30.989  0.00  0.00    +0.004 A 
ATOM      6  C   LIG    1       11.866   3.854  32.344  0.00  0.00    +0.030 A 
ENDROOT
BRANCH   1   9
ATOM      7  C   LIG    1       12.069   2.193  36.421  0.00  0.00    +0.004 A 
ATOM      8  C   LIG    1       12.184   2.583  35.087  0.00  0.00    +0.030 A 
ATOM      9  C   LIG    1       11.149   2.300  34.192  0.00  0.00    +0.089 A 
ATOM     10  N   LIG    1       10.023   1.646  34.599  0.00  0.00    -0.253 NA
ATOM     11  C   LIG    1        9.941   1.276  35.897  0.00  0.00    +0.111 A 
ATOM     12  C   LIG    1       10.926   1.525  36.836  0.00  0.00    +0.020 A 
ENDBRANCH   1   9
BRANCH   3  13
ATOM     13  C   LIG    1        9.935   1.217  29.643  0.00  0.00    +0.089 A 
ATOM     14  N   LIG    1       10.124   1.396  28.306  0.00  0.00    -0.253 NA
ATOM     15  C   LIG    1        9.509   0.550  27.452  0.00  0.00    +0.111 A 
ATOM     16  C   LIG    1        8.688  -0.487  27.854  0.00  0.00    +0.020 A 
ATOM     17  C   LIG    1        8.491  -0.670  29.216  0.00  0.00    +0.004 A 
ATOM     18  C   LIG    1        9.121   0.185  30.119  0.00  0.00    +0.030 A 
ENDBRANCH   3  13
TORSDOF 2
ENDMDL
MODEL 3
REMARK VINA RESULT:      -8.3      1.000      6.142
REMARK  Name = 
REMARK                            x       y       z     vdW  Elec       q    Type
REMARK                         _______ _______ _______ _____ _____    ______ ____
ROOT
ATOM      1  C   LIG    1       11.516   2.563  32.532  0.00  0.00    +0.090 A 
ATOM      2  N   LIG    1       10.779   1.826  31.657  0.00  0.00    -0.244 NA
ATOM      3  C   LIG    1       10.992   1.955  30.319  0.00  0.00    +0.090 A 
ATOM      4  C   LIG    1       11.958   2.832  29.827  0.00  0.00    +0.030 A 
ATOM      5  C   LIG    1       12.706   3.594  30.718  0.00  0.00    +0.004 A 
ATOM      6  C   LIG    1       12.481   3.462  32.083  0.00  0.00    +0.030 A 
ENDROOT
BRANCH   1   9
ATOM      7  C   LIG    1        9.975   1.385  35.785  0.00  0.00    +0.004 A 
ATOM      8  C   LIG    1       10.183   1.556  34.418  0.00  0.00    +0.030 A 
ATOM      9  C   LIG    1       11.241   2.352  33.974  0.00  0.00    +0.089 A 
ATOM     10  N   LIG    1       12.079   2.970  34.856  0.00  0.00    -0.253 NA
ATOM     11  C   LIG    1       11.851   2.790  36.177  0.00  0.00    +0.111 A 
ATOM     12  C   LIG    1       10.824   2.014  36.684  0.00  0.00    +0.020 A 
ENDBRANCH   1   9
BRANCH   3  13
ATOM     13  C   LIG    1       10.137   1.125  29.432  0.00  0.00    +0.089 A 
ATOM     14  N   LIG    1        9.306   0.237  30.045  0.00  0.00    -0.253 NA
ATOM     15  C   LIG    1        8.508  -0.531  29.273  0.00  0.00    +0.111 A 
ATOM     16  C   LIG    1        8.488  -0.476  27.892  0.00  0.00    +0.020 A 
ATOM     17  C   LIG    1        9.335   0.426  27.265  0.00  0.00    +0.004 A 
ATOM     18  C   LIG    1       10.164   1.237  28.039  0.00  0.00    +0.030 A 
ENDBRANCH   3  13
TORSDOF 2
ENDMDL
MODEL 4
REMARK VINA RESULT:      -8.3      0.749      1.197
REMARK  Name = 
REMARK                            x       y       z     vdW  Elec       q    Type
REMARK                         _______ _______ _______ _____ _____    ______ ____
ROOT
ATOM      1  C   LIG    1       10.969   1.939  30.391  0.00  0.00    +0.090 A 
ATOM      2  N   LIG    1       10.795   1.773  31.731  0.00  0.00    -0.244 NA
ATOM      3  C   LIG    1       11.529   2.515  32.603  0.00  0.00    +0.090 A 
ATOM      4  C   LIG    1       12.459   3.449  32.147  0.00  0.00    +0.030 A 
ATOM      5  C   LIG    1       12.647   3.613  30.779  0.00  0.00    +0.004 A 
ATOM      6  C   LIG    1       11.898   2.849  29.892  0.00  0.00    +0.030 A 
ENDROOT
BRANCH   1   9
ATOM      7  C   LIG    1        9.345   0.420  27.324  0.00  0.00    +0.004 A 
ATOM      8  C   LIG    1       10.160   1.231  28.112  0.00  0.00    +0.030 A 
ATOM      9  C   LIG    1       10.118   1.110  29.503  0.00  0.00    +0.089 A 
ATOM     10  N   LIG    1        9.290   0.211  30.109  0.00  0.00    -0.253 NA
ATOM     11  C   LIG    1        8.507  -0.559  29.320  0.00  0.00    +0.111 A 
ATOM     12  C   LIG    1        8.500  -0.492  27.938  0.00  0.00    +0.020 A 
ENDBRANCH   1   9
BRANCH   3  13
ATOM     13  C   LIG    1       11.287   2.264  34.047  0.00  0.00    +0.089 A 
ATOM     14  N   LIG    1       10.151   1.586  34.366  0.00  0.00    -0.253 NA
ATOM     15  C   LIG    1        9.899   1.331  35.668  0.00  0.00    +0.111 A 
ATOM     16  C   LIG    1       10.726   1.725  36.703  0.00  0.00    +0.020 A 
ATOM     17  C   LIG    1       11.884   2.419  36.382  0.00  0.00    +0.004 A 
ATOM     18  C   LIG    1       12.171   2.688  35.044  0.00  0.00    +0.030 A 
ENDBRANCH   3  13
TORSDOF 2
ENDMDL
MODEL 5
REMARK VINA RESULT:      -7.7      4.753      6.998
REMARK  Name = 
REMARK                            x       y       z     vdW  Elec       q    Type
REMARK                         _______ _______ _______ _____ _____    ______ ____
ROOT
ATOM      1  C   LIG    1        6.530   4.039  27.542  0.00  0.00    +0.090 A 
ATOM      2  N   LIG    1        7.818   3.887  27.958  0.00  0.00    -0.244 NA
ATOM      3  C   LIG    1        8.436   2.683  27.815  0.00  0.00    +0.090 A 
ATOM      4  C   LIG    1        7.771   1.597  27.246  0.00  0.00    +0.030 A 
ATOM      5  C   LIG    1        6.452   1.746  26.831  0.00  0.00    +0.004 A 
ATOM      6  C   LIG    1        5.824   2.976  26.983  0.00  0.00    +0.030 A 
ENDROOT
BRANCH   1   9
ATOM      7  C   LIG    1        4.202   6.866  28.507  0.00  0.00    +0.004 A 
ATOM      8  C   LIG    1        4.715   5.578  28.368  0.00  0.00    +0.030 A 
ATOM      9  C   LIG    1        5.932   5.385  27.711  0.00  0.00    +0.089 A 
ATOM     10  N   LIG    1        6.633   6.437  27.198  0.00  0.00    -0.253 NA
ATOM     11  C   LIG    1        6.109   7.676  27.343  0.00  0.00    +0.111 A 
ATOM     12  C   LIG    1        4.911   7.938  27.983  0.00  0.00    +0.020 A 
ENDBRANCH   1   9
BRANCH   3  13
ATOM     13  C   LIG    1        9.835   2.598  28.306  0.00  0.00    +0.089 A 
ATOM     14  N   LIG    1       10.324   3.697  28.946  0.00  0.00    -0.253 NA
ATOM     15  C   LIG    1       11.590   3.656  29.413  0.00  0.00    +0.111 A 
ATOM     16  C   LIG    1       12.427   2.565  29.273  0.00  0.00    +0.020 A 
ATOM     17  C   LIG    1       11.934   1.445  28.620  0.00  0.00    +0.004 A 
ATOM     18  C   LIG    1       10.626   1.458  28.134  0.00  0.00    +0.030 A 
ENDBRANCH   3  13
TORSDOF 2
ENDMDL
MODEL 6
REMARK VINA RESULT:      -7.5      2.457      6.851
REMARK  Name = 
REMARK                            x       y       z     vdW  Elec       q    Type
REMARK                         _______ _______ _______ _____ _____    ______ ____
ROOT
ATOM      1  C   LIG    1       10.274   1.828  30.875  0.00  0.00    +0.090 A 
ATOM      2  N   LIG    1       10.207   2.711  29.841  0.00  0.00    -0.244 NA
ATOM      3  C   LIG    1        9.508   2.385  28.720  0.00  0.00    +0.090 A 
ATOM      4  C   LIG    1        8.855   1.158  28.611  0.00  0.00    +0.030 A 
ATOM      5  C   LIG    1        8.931   0.249  29.661  0.00  0.00    +0.004 A 
ATOM      6  C   LIG    1        9.650   0.585  30.802  0.00  0.00    +0.030 A 
ENDROOT
BRANCH   1   9
ATOM      7  C   LIG    1       11.519   2.193  34.433  0.00  0.00    +0.004 A 
ATOM      8  C   LIG    1       10.766   1.757  33.345  0.00  0.00    +0.030 A 
ATOM      9  C   LIG    1       11.036   2.262  32.071  0.00  0.00    +0.089 A 
ATOM     10  N   LIG    1       12.025   3.179  31.869  0.00  0.00    -0.253 NA
ATOM     11  C   LIG    1       12.736   3.588  32.945  0.00  0.00    +0.111 A 
ATOM     12  C   LIG    1       12.524   3.128  34.232  0.00  0.00    +0.020 A 
ENDBRANCH   1   9
BRANCH   3  13
ATOM     13  C   LIG    1        9.495   3.399  27.634  0.00  0.00    +0.089 A 
ATOM     14  N   LIG    1        8.347   3.498  26.907  0.00  0.00    -0.253 NA
ATOM     15  C   LIG    1        8.293   4.414  25.917  0.00  0.00    +0.111 A 
ATOM     16  C   LIG    1        9.340   5.255  25.589  0.00  0.00    +0.020 A 
ATOM     17  C   LIG    1       10.511   5.155  26.326  0.00  0.00    +0.004 A 
ATOM     18  C   LIG    1       10.590   4.223  27.360  0.00  0.00    +0.030 A 
ENDBRANCH   3  13
TORSDOF 2
ENDMDL
MODEL 7
REMARK VINA RESULT:      -7.5      4.578      7.383
REMARK  Name = 
REMARK                            x       y       z     vdW  Elec       q    Type
REMARK                         _______ _______ _______ _____ _____    ______ ____
ROOT
ATOM      1  C   LIG    1        7.821   2.081  28.375  0.00  0.00    +0.090 A 
ATOM      2  N   LIG    1        7.366   3.362  28.440  0.00  0.00    -0.244 NA
ATOM      3  C   LIG    1        6.348   3.759  27.626  0.00  0.00    +0.090 A 
ATOM      4  C   LIG    1        5.761   2.871  26.726  0.00  0.00    +0.030 A 
ATOM      5  C   LIG    1        6.231   1.564  26.650  0.00  0.00    +0.004 A 
ATOM      6  C   LIG    1        7.273   1.166  27.479  0.00  0.00    +0.030 A 
ENDROOT
BRANCH   1   9
ATOM      7  C   LIG    1        9.762   0.623  31.283  0.00  0.00    +0.004 A 
ATOM      8  C   LIG    1        8.693   0.943  30.446  0.00  0.00    +0.030 A 
ATOM      9  C   LIG    1        8.916   1.718  29.306  0.00  0.00    +0.089 A 
ATOM     10  N   LIG    1       10.164   2.173  28.994  0.00  0.00    -0.253 NA
ATOM     11  C   LIG    1       11.180   1.852  29.826  0.00  0.00    +0.111 A 
ATOM     12  C   LIG    1       11.031   1.087  30.969  0.00  0.00    +0.020 A 
ENDBRANCH   1   9
BRANCH   3  13
ATOM     13  C   LIG    1        5.920   5.175  27.751  0.00  0.00    +0.089 A 
ATOM     14  N   LIG    1        6.731   6.110  27.183  0.00  0.00    -0.253 NA
ATOM     15  C   LIG    1        6.372   7.408  27.268  0.00  0.00    +0.111 A 
ATOM     16  C   LIG    1        5.228   7.850  27.907  0.00  0.00    +0.020 A 
ATOM     17  C   LIG    1        4.400   6.901  28.489  0.00  0.00    +0.004 A 
ATOM     18  C   LIG    1        4.744   5.552  28.408  0.00  0.00    +0.030 A 
ENDBRANCH   3  13
TORSDOF 2
ENDMDL
MODEL 8
REMARK VINA RESULT:      -7.5      2.828      4.705
REMARK  Name = 
REMARK                            x       y       z     vdW  Elec       q    Type
REMARK                         _______ _______ _______ _____ _____    ______ ____
ROOT
ATOM      1  C   LIG    1        8.159   1.773  27.842  0.00  0.00    +0.090 A 
ATOM      2  N   LIG    1        8.863   2.074  28.969  0.00  0.00    -0.244 NA
ATOM      3  C   LIG    1        9.400   1.071  29.716  0.00  0.00    +0.090 A 
ATOM      4  C   LIG    1        9.245  -0.264  29.345  0.00  0.00    +0.030 A 
ATOM      5  C   LIG    1        8.518  -0.575  28.201  0.00  0.00    +0.004 A 
ATOM      6  C   LIG    1        7.967   0.452  27.445  0.00  0.00    +0.030 A 
ENDROOT
BRANCH   1   9
ATOM      7  C   LIG    1        5.937   3.962  25.694  0.00  0.00    +0.004 A 
ATOM      8  C   LIG    1        6.399   2.852  26.399  0.00  0.00    +0.030 A 
ATOM      9  C   LIG    1        7.622   2.919  27.070  0.00  0.00    +0.089 A 
ATOM     10  N   LIG    1        8.379   4.054  27.048  0.00  0.00    -0.253 NA
ATOM     11  C   LIG    1        7.908   5.114  26.352  0.00  0.00    +0.111 A 
ATOM     12  C   LIG    1        6.705   5.116  25.668  0.00  0.00    +0.020 A 
ENDBRANCH   1   9
BRANCH   3  13
ATOM     13  C   LIG    1       10.142   1.484  30.935  0.00  0.00    +0.089 A 
ATOM     14  N   LIG    1       11.023   2.513  30.794  0.00  0.00    -0.253 NA
ATOM     15  C   LIG    1       11.710   2.922  31.881  0.00  0.00    +0.111 A 
ATOM     16  C   LIG    1       11.579   2.353  33.134  0.00  0.00    +0.020 A 
ATOM     17  C   LIG    1       10.684   1.303  33.281  0.00  0.00    +0.004 A 
ATOM     18  C   LIG    1        9.956   0.866  32.175  0.00  0.00    +0.030 A 
ENDBRANCH   3  13
TORSDOF 2
ENDMDL
MODEL 9
REMARK VINA RESULT:      -7.5      2.817      7.188
REMARK  Name = 
REMARK                            x       y       z     vdW  Elec       q    Type
REMARK                         _______ _______ _______ _____ _____    ______ ____
ROOT
ATOM      1  C   LIG    1        9.440   1.117  29.772  0.00  0.00    +0.090 A 
ATOM      2  N   LIG    1        8.917   2.119  29.013  0.00  0.00    -0.244 NA
ATOM      3  C   LIG    1        8.213   1.816  27.888  0.00  0.00    +0.090 A 
ATOM      4  C   LIG    1        8.016   0.492  27.498  0.00  0.00    +0.030 A 
ATOM      5  C   LIG    1        8.559  -0.534  28.266  0.00  0.00    +0.004 A 
ATOM      6  C   LIG    1        9.280  -0.219  29.411  0.00  0.00    +0.030 A 
ENDROOT
BRANCH   1   9
ATOM      7  C   LIG    1       10.692   1.317  33.341  0.00  0.00    +0.004 A 
ATOM      8  C   LIG    1        9.967   0.900  32.226  0.00  0.00    +0.030 A 
ATOM      9  C   LIG    1       10.175   1.524  30.993  0.00  0.00    +0.089 A 
ATOM     10  N   LIG    1       11.077   2.539  30.859  0.00  0.00    -0.253 NA
ATOM     11  C   LIG    1       11.762   2.925  31.958  0.00  0.00    +0.111 A 
ATOM     12  C   LIG    1       11.607   2.351  33.207  0.00  0.00    +0.020 A 
ENDBRANCH   1   9
BRANCH   3  13
ATOM     13  C   LIG    1        7.687   2.967  27.110  0.00  0.00    +0.089 A 
ATOM     14  N   LIG    1        8.418   4.115  27.152  0.00  0.00    -0.253 NA
ATOM     15  C   LIG    1        7.977   5.182  26.451  0.00  0.00    +0.111 A 
ATOM     16  C   LIG    1        6.818   5.182  25.698  0.00  0.00    +0.020 A 
ATOM     17  C   LIG    1        6.070   4.014  25.655  0.00  0.00    +0.004 A 
ATOM     18  C   LIG    1        6.508   2.895  26.363  0.00  0.00    +0.030 A 
ENDBRANCH   3  13
TORSDOF 2
ENDMDL
