MODEL 1
REMARK VINA RESULT:      -2.9      0.000      0.000
REMARK  Name = 
REMARK                            x       y       z     vdW  Elec       q    Type
REMARK                         _______ _______ _______ _____ _____    ______ ____
ROOT
ATOM      1  C   LIG    1       17.345   4.332  52.133  0.00  0.00    +0.090 A 
ATOM      2  N   LIG    1       16.786   3.124  51.847  0.00  0.00    -0.244 NA
ATOM      3  C   LIG    1       15.532   2.839  52.294  0.00  0.00    +0.090 A 
ATOM      4  C   LIG    1       14.807   3.766  53.040  0.00  0.00    +0.030 A 
ATOM      5  C   LIG    1       15.380   4.998  53.343  0.00  0.00    +0.004 A 
ATOM      6  C   LIG    1       16.662   5.282  52.889  0.00  0.00    +0.030 A 
ENDROOT
BRANCH   1   9
ATOM      7  C   LIG    1       20.837   3.822  50.756  0.00  0.00    +0.004 A 
ATOM      8  C   LIG    1       19.573   3.534  51.268  0.00  0.00    +0.030 A 
ATOM      9  C   LIG    1       18.704   4.578  51.595  0.00  0.00    +0.089 A 
ATOM     10  N   LIG    1       19.072   5.881  51.424  0.00  0.00    -0.253 NA
ATOM     11  C   LIG    1       20.306   6.131  50.931  0.00  0.00    +0.111 A 
ATOM     12  C   LIG    1       21.214   5.146  50.585  0.00  0.00    +0.020 A 
ENDBRANCH   1   9
BRANCH   3  13
ATOM     13  C   LIG    1       15.001   1.495  51.950  0.00  0.00    +0.089 A 
ATOM     14  N   LIG    1       15.654   0.426  52.484  0.00  0.00    -0.253 NA
ATOM     15  C   LIG    1       15.197  -0.812  52.200  0.00  0.00    +0.111 A 
ATOM     16  C   LIG    1       14.105  -1.062  51.391  0.00  0.00    +0.020 A 
ATOM     17  C   LIG    1       13.438   0.024  50.844  0.00  0.00    +0.004 A 
ATOM     18  C   LIG    1       13.885   1.314  51.127  0.00  0.00    +0.030 A 
ENDBRANCH   3  13
TORSDOF 2
ENDMDL
MODEL 2
REMARK VINA RESULT:      -2.9      0.369      6.226
REMARK  Name = 
REMARK                            x       y       z     vdW  Elec       q    Type
REMARK                         _______ _______ _______ _____ _____    ______ ____
ROOT
ATOM      1  C   LIG    1       15.386   2.758  52.372  0.00  0.00    +0.090 A 
ATOM      2  N   LIG    1       16.667   3.050  52.015  0.00  0.00    -0.244 NA
ATOM      3  C   LIG    1       17.220   4.233  52.396  0.00  0.00    +0.090 A 
ATOM      4  C   LIG    1       16.497   5.155  53.152  0.00  0.00    +0.030 A 
ATOM      5  C   LIG    1       15.184   4.864  53.509  0.00  0.00    +0.004 A 
ATOM      6  C   LIG    1       14.622   3.657  53.113  0.00  0.00    +0.030 A 
ENDROOT
BRANCH   1   9
ATOM      7  C   LIG    1       13.438   0.060  50.563  0.00  0.00    +0.004 A 
ATOM      8  C   LIG    1       13.891   1.324  50.938  0.00  0.00    +0.030 A 
ATOM      9  C   LIG    1       14.859   1.442  51.939  0.00  0.00    +0.089 A 
ATOM     10  N   LIG    1       15.370   0.340  52.561  0.00  0.00    -0.253 NA
ATOM     11  C   LIG    1       14.907  -0.872  52.180  0.00  0.00    +0.111 A 
ATOM     12  C   LIG    1       13.953  -1.061  51.196  0.00  0.00    +0.020 A 
ENDBRANCH   1   9
BRANCH   3  13
ATOM     13  C   LIG    1       18.617   4.479  51.954  0.00  0.00    +0.089 A 
ATOM     14  N   LIG    1       19.074   5.757  52.061  0.00  0.00    -0.253 NA
ATOM     15  C   LIG    1       20.341   6.019  51.676  0.00  0.00    +0.111 A 
ATOM     16  C   LIG    1       21.205   5.066  51.172  0.00  0.00    +0.020 A 
ATOM     17  C   LIG    1       20.743   3.762  51.060  0.00  0.00    +0.004 A 
ATOM     18  C   LIG    1       19.440   3.463  51.458  0.00  0.00    +0.030 A 
ENDBRANCH   3  13
TORSDOF 2
ENDMDL
MODEL 3
REMARK VINA RESULT:      -2.6      1.810      2.074
REMARK  Name = 
REMARK                            x       y       z     vdW  Elec       q    Type
REMARK                         _______ _______ _______ _____ _____    ______ ____
ROOT
ATOM      1  C   LIG    1       18.394   2.752  53.126  0.00  0.00    +0.090 A 
ATOM      2  N   LIG    1       17.401   2.146  52.418  0.00  0.00    -0.244 NA
ATOM      3  C   LIG    1       16.354   1.578  53.075  0.00  0.00    +0.090 A 
ATOM      4  C   LIG    1       16.278   1.607  54.467  0.00  0.00    +0.030 A 
ATOM      5  C   LIG    1       17.296   2.215  55.194  0.00  0.00    +0.004 A 
ATOM      6  C   LIG    1       18.365   2.789  54.518  0.00  0.00    +0.030 A 
ENDROOT
BRANCH   1   9
ATOM      7  C   LIG    1       20.310   4.773  50.559  0.00  0.00    +0.004 A 
ATOM      8  C   LIG    1       19.241   4.215  51.258  0.00  0.00    +0.030 A 
ATOM      9  C   LIG    1       19.490   3.367  52.340  0.00  0.00    +0.089 A 
ATOM     10  N   LIG    1       20.765   3.071  52.728  0.00  0.00    -0.253 NA
ATOM     11  C   LIG    1       21.782   3.623  52.028  0.00  0.00    +0.111 A 
ATOM     12  C   LIG    1       21.607   4.472  50.949  0.00  0.00    +0.020 A 
ENDBRANCH   1   9
BRANCH   3  13
ATOM     13  C   LIG    1       15.320   0.928  52.229  0.00  0.00    +0.089 A 
ATOM     14  N   LIG    1       15.299  -0.434  52.232  0.00  0.00    -0.253 NA
ATOM     15  C   LIG    1       14.369  -1.062  51.482  0.00  0.00    +0.111 A 
ATOM     16  C   LIG    1       13.438  -0.404  50.700  0.00  0.00    +0.020 A 
ATOM     17  C   LIG    1       13.458   0.983  50.693  0.00  0.00    +0.004 A 
ATOM     18  C   LIG    1       14.403   1.657  51.466  0.00  0.00    +0.030 A 
ENDBRANCH   3  13
TORSDOF 2
ENDMDL
MODEL 4
REMARK VINA RESULT:      -2.6      1.764      6.226
REMARK  Name = 
REMARK                            x       y       z     vdW  Elec       q    Type
REMARK                         _______ _______ _______ _____ _____    ______ ____
ROOT
ATOM      1  C   LIG    1       16.577   2.847  52.337  0.00  0.00    +0.090 A 
ATOM      2  N   LIG    1       17.894   2.506  52.292  0.00  0.00    -0.244 NA
ATOM      3  C   LIG    1       18.845   3.478  52.356  0.00  0.00    +0.090 A 
ATOM      4  C   LIG    1       18.493   4.822  52.469  0.00  0.00    +0.030 A 
ATOM      5  C   LIG    1       17.147   5.175  52.504  0.00  0.00    +0.004 A 
ATOM      6  C   LIG    1       16.181   4.179  52.433  0.00  0.00    +0.030 A 
ENDROOT
BRANCH   1   9
ATOM      7  C   LIG    1       13.460   0.799  51.679  0.00  0.00    +0.004 A 
ATOM      8  C   LIG    1       14.336   1.883  51.710  0.00  0.00    +0.030 A 
ATOM      9  C   LIG    1       15.601   1.733  52.284  0.00  0.00    +0.089 A 
ATOM     10  N   LIG    1       15.997   0.542  52.820  0.00  0.00    -0.253 NA
ATOM     11  C   LIG    1       15.125  -0.490  52.780  0.00  0.00    +0.111 A 
ATOM     12  C   LIG    1       13.860  -0.412  52.225  0.00  0.00    +0.020 A 
ENDBRANCH   1   9
BRANCH   3  13
ATOM     13  C   LIG    1       20.258   3.023  52.288  0.00  0.00    +0.089 A 
ATOM     14  N   LIG    1       20.648   2.109  53.220  0.00  0.00    -0.253 NA
ATOM     15  C   LIG    1       21.923   1.665  53.186  0.00  0.00    +0.111 A 
ATOM     16  C   LIG    1       22.862   2.088  52.265  0.00  0.00    +0.020 A 
ATOM     17  C   LIG    1       22.468   3.021  51.316  0.00  0.00    +0.004 A 
ATOM     18  C   LIG    1       21.155   3.490  51.323  0.00  0.00    +0.030 A 
ENDBRANCH   3  13
TORSDOF 2
ENDMDL
MODEL 5
REMARK VINA RESULT:      -2.6      1.579      6.381
REMARK  Name = 
REMARK                            x       y       z     vdW  Elec       q    Type
REMARK                         _______ _______ _______ _____ _____    ______ ____
ROOT
ATOM      1  C   LIG    1       16.251   1.494  52.912  0.00  0.00    +0.090 A 
ATOM      2  N   LIG    1       16.993   2.305  52.110  0.00  0.00    -0.244 NA
ATOM      3  C   LIG    1       17.933   3.122  52.661  0.00  0.00    +0.090 A 
ATOM      4  C   LIG    1       18.151   3.140  54.038  0.00  0.00    +0.030 A 
ATOM      5  C   LIG    1       17.386   2.319  54.861  0.00  0.00    +0.004 A 
ATOM      6  C   LIG    1       16.425   1.492  54.294  0.00  0.00    +0.030 A 
ENDROOT
BRANCH   1   9
ATOM      7  C   LIG    1       13.532  -1.062  52.264  0.00  0.00    +0.004 A 
ATOM      8  C   LIG    1       14.451  -0.269  52.949  0.00  0.00    +0.030 A 
ATOM      9  C   LIG    1       15.262   0.618  52.237  0.00  0.00    +0.089 A 
ATOM     10  N   LIG    1       15.174   0.723  50.880  0.00  0.00    -0.253 NA
ATOM     11  C   LIG    1       14.278  -0.064  50.242  0.00  0.00    +0.111 A 
ATOM     12  C   LIG    1       13.443  -0.961  50.884  0.00  0.00    +0.020 A 
ENDBRANCH   1   9
BRANCH   3  13
ATOM     13  C   LIG    1       18.691   3.984  51.718  0.00  0.00    +0.089 A 
ATOM     14  N   LIG    1       17.982   4.951  51.072  0.00  0.00    -0.253 NA
ATOM     15  C   LIG    1       18.637   5.760  50.213  0.00  0.00    +0.111 A 
ATOM     16  C   LIG    1       19.988   5.661  49.941  0.00  0.00    +0.020 A 
ATOM     17  C   LIG    1       20.713   4.676  50.595  0.00  0.00    +0.004 A 
ATOM     18  C   LIG    1       20.063   3.831  51.494  0.00  0.00    +0.030 A 
ENDBRANCH   3  13
TORSDOF 2
ENDMDL
MODEL 6
REMARK VINA RESULT:      -2.5      1.829      2.316
REMARK  Name = 
REMARK                            x       y       z     vdW  Elec       q    Type
REMARK                         _______ _______ _______ _____ _____    ______ ____
ROOT
ATOM      1  C   LIG    1       18.513   3.263  52.545  0.00  0.00    +0.090 A 
ATOM      2  N   LIG    1       17.612   2.306  52.191  0.00  0.00    -0.244 NA
ATOM      3  C   LIG    1       16.281   2.590  52.211  0.00  0.00    +0.090 A 
ATOM      4  C   LIG    1       15.822   3.851  52.589  0.00  0.00    +0.030 A 
ATOM      5  C   LIG    1       16.739   4.829  52.962  0.00  0.00    +0.004 A 
ATOM      6  C   LIG    1       18.096   4.531  52.943  0.00  0.00    +0.030 A 
ENDROOT
BRANCH   1   9
ATOM      7  C   LIG    1       22.160   3.079  51.543  0.00  0.00    +0.004 A 
ATOM      8  C   LIG    1       20.821   3.465  51.557  0.00  0.00    +0.030 A 
ATOM      9  C   LIG    1       19.944   2.886  52.477  0.00  0.00    +0.089 A 
ATOM     10  N   LIG    1       20.375   1.944  53.366  0.00  0.00    -0.253 NA
ATOM     11  C   LIG    1       21.678   1.586  53.326  0.00  0.00    +0.111 A 
ATOM     12  C   LIG    1       22.599   2.120  52.443  0.00  0.00    +0.020 A 
ENDBRANCH   1   9
BRANCH   3  13
ATOM     13  C   LIG    1       15.366   1.487  51.823  0.00  0.00    +0.089 A 
ATOM     14  N   LIG    1       15.659   0.830  50.666  0.00  0.00    -0.253 NA
ATOM     15  C   LIG    1       14.855  -0.184  50.283  0.00  0.00    +0.111 A 
ATOM     16  C   LIG    1       13.742  -0.594  50.992  0.00  0.00    +0.020 A 
ATOM     17  C   LIG    1       13.439   0.074  52.170  0.00  0.00    +0.004 A 
ATOM     18  C   LIG    1       14.258   1.120  52.593  0.00  0.00    +0.030 A 
ENDBRANCH   3  13
TORSDOF 2
ENDMDL
MODEL 7
REMARK VINA RESULT:      -2.4      3.475      6.371
REMARK  Name = 
REMARK                            x       y       z     vdW  Elec       q    Type
REMARK                         _______ _______ _______ _____ _____    ______ ____
ROOT
ATOM      1  C   LIG    1       15.355   2.088  53.226  0.00  0.00    +0.090 A 
ATOM      2  N   LIG    1       14.865   3.358  53.237  0.00  0.00    -0.244 NA
ATOM      3  C   LIG    1       15.308   4.243  54.172  0.00  0.00    +0.090 A 
ATOM      4  C   LIG    1       16.259   3.870  55.121  0.00  0.00    +0.030 A 
ATOM      5  C   LIG    1       16.753   2.570  55.118  0.00  0.00    +0.004 A 
ATOM      6  C   LIG    1       16.294   1.669  54.165  0.00  0.00    +0.030 A 
ENDROOT
BRANCH   1   9
ATOM      7  C   LIG    1       13.442   0.721  50.256  0.00  0.00    +0.004 A 
ATOM      8  C   LIG    1       13.883   1.606  51.238  0.00  0.00    +0.030 A 
ATOM      9  C   LIG    1       14.841   1.188  52.165  0.00  0.00    +0.089 A 
ATOM     10  N   LIG    1       15.354  -0.076  52.129  0.00  0.00    -0.253 NA
ATOM     11  C   LIG    1       14.903  -0.914  51.169  0.00  0.00    +0.111 A 
ATOM     12  C   LIG    1       13.959  -0.565  50.219  0.00  0.00    +0.020 A 
ENDBRANCH   1   9
BRANCH   3  13
ATOM     13  C   LIG    1       14.714   5.604  54.123  0.00  0.00    +0.089 A 
ATOM     14  N   LIG    1       14.002   5.918  53.006  0.00  0.00    -0.253 NA
ATOM     15  C   LIG    1       13.441   7.144  52.928  0.00  0.00    +0.111 A 
ATOM     16  C   LIG    1       13.552   8.106  53.913  0.00  0.00    +0.020 A 
ATOM     17  C   LIG    1       14.278   7.790  55.052  0.00  0.00    +0.004 A 
ATOM     18  C   LIG    1       14.862   6.528  55.162  0.00  0.00    +0.030 A 
ENDBRANCH   3  13
TORSDOF 2
ENDMDL
MODEL 8
REMARK VINA RESULT:      -2.4      1.793      2.785
REMARK  Name = 
REMARK                            x       y       z     vdW  Elec       q    Type
REMARK                         _______ _______ _______ _____ _____    ______ ____
ROOT
ATOM      1  C   LIG    1       18.341   4.193  51.937  0.00  0.00    +0.090 A 
ATOM      2  N   LIG    1       17.197   3.456  51.915  0.00  0.00    -0.244 NA
ATOM      3  C   LIG    1       17.155   2.255  52.555  0.00  0.00    +0.090 A 
ATOM      4  C   LIG    1       18.268   1.767  53.239  0.00  0.00    +0.030 A 
ATOM      5  C   LIG    1       19.442   2.513  53.254  0.00  0.00    +0.004 A 
ATOM      6  C   LIG    1       19.481   3.735  52.595  0.00  0.00    +0.030 A 
ENDROOT
BRANCH   1   9
ATOM      7  C   LIG    1       19.354   7.301  50.024  0.00  0.00    +0.004 A 
ATOM      8  C   LIG    1       19.448   6.075  50.680  0.00  0.00    +0.030 A 
ATOM      9  C   LIG    1       18.303   5.499  51.236  0.00  0.00    +0.089 A 
ATOM     10  N   LIG    1       17.089   6.116  51.150  0.00  0.00    -0.253 NA
ATOM     11  C   LIG    1       17.029   7.306  50.512  0.00  0.00    +0.111 A 
ATOM     12  C   LIG    1       18.121   7.931  49.938  0.00  0.00    +0.020 A 
ENDBRANCH   1   9
BRANCH   3  13
ATOM     13  C   LIG    1       15.874   1.509  52.472  0.00  0.00    +0.089 A 
ATOM     14  N   LIG    1       14.858   2.116  51.798  0.00  0.00    -0.253 NA
ATOM     15  C   LIG    1       13.679   1.465  51.694  0.00  0.00    +0.111 A 
ATOM     16  C   LIG    1       13.438   0.218  52.239  0.00  0.00    +0.020 A 
ATOM     17  C   LIG    1       14.470  -0.402  52.928  0.00  0.00    +0.004 A 
ATOM     18  C   LIG    1       15.700   0.245  53.043  0.00  0.00    +0.030 A 
ENDBRANCH   3  13
TORSDOF 2
ENDMDL
MODEL 9
REMARK VINA RESULT:      -2.4      2.541      4.007
REMARK  Name = 
REMARK                            x       y       z     vdW  Elec       q    Type
REMARK                         _______ _______ _______ _____ _____    ______ ____
ROOT
ATOM      1  C   LIG    1       17.998   5.722  50.572  0.00  0.00    +0.090 A 
ATOM      2  N   LIG    1       17.159   5.084  51.434  0.00  0.00    -0.244 NA
ATOM      3  C   LIG    1       17.338   3.760  51.693  0.00  0.00    +0.090 A 
ATOM      4  C   LIG    1       18.371   3.043  51.092  0.00  0.00    +0.030 A 
ATOM      5  C   LIG    1       19.224   3.689  50.203  0.00  0.00    +0.004 A 
ATOM      6  C   LIG    1       19.033   5.040  49.938  0.00  0.00    +0.030 A 
ENDROOT
BRANCH   1   9
ATOM      7  C   LIG    1       18.512   9.434  50.022  0.00  0.00    +0.004 A 
ATOM      8  C   LIG    1       18.799   8.087  50.233  0.00  0.00    +0.030 A 
ATOM      9  C   LIG    1       17.753   7.168  50.356  0.00  0.00    +0.089 A 
ATOM     10  N   LIG    1       16.451   7.566  50.274  0.00  0.00    -0.253 NA
ATOM     11  C   LIG    1       16.202   8.880  50.073  0.00  0.00    +0.111 A 
ATOM     12  C   LIG    1       17.188   9.841  49.941  0.00  0.00    +0.020 A 
ENDBRANCH   1   9
BRANCH   3  13
ATOM     13  C   LIG    1       16.372   3.137  52.635  0.00  0.00    +0.089 A 
ATOM     14  N   LIG    1       16.299   3.681  53.881  0.00  0.00    -0.253 NA
ATOM     15  C   LIG    1       15.427   3.147  54.763  0.00  0.00    +0.111 A 
ATOM     16  C   LIG    1       14.605   2.073  54.479  0.00  0.00    +0.020 A 
ATOM     17  C   LIG    1       14.678   1.516  53.210  0.00  0.00    +0.004 A 
ATOM     18  C   LIG    1       15.565   2.053  52.278  0.00  0.00    +0.030 A 
ENDBRANCH   3  13
TORSDOF 2
ENDMDL
