MODEL 1
REMARK VINA RESULT:      -8.5      0.000      0.000
REMARK  Name = 
REMARK                            x       y       z     vdW  Elec       q    Type
REMARK                         _______ _______ _______ _____ _____    ______ ____
ROOT
ATOM      1  C   LIG    1       27.037   1.037  19.944  0.00  0.00    +0.090 A 
ATOM      2  N   LIG    1       27.880   0.642  20.937  0.00  0.00    -0.244 NA
ATOM      3  C   LIG    1       28.423  -0.606  20.905  0.00  0.00    +0.090 A 
ATOM      4  C   LIG    1       28.131  -1.490  19.866  0.00  0.00    +0.030 A 
ATOM      5  C   LIG    1       27.262  -1.093  18.855  0.00  0.00    +0.004 A 
ATOM      6  C   LIG    1       26.707   0.181  18.896  0.00  0.00    +0.030 A 
ENDROOT
BRANCH   1   9
ATOM      7  C   LIG    1       25.120   4.105  21.065  0.00  0.00    +0.004 A 
ATOM      8  C   LIG    1       25.583   2.791  21.019  0.00  0.00    +0.030 A 
ATOM      9  C   LIG    1       26.503   2.417  20.036  0.00  0.00    +0.089 A 
ATOM     10  N   LIG    1       26.957   3.315  19.115  0.00  0.00    -0.253 NA
ATOM     11  C   LIG    1       26.486   4.581  19.181  0.00  0.00    +0.111 A 
ATOM     12  C   LIG    1       25.578   5.019  20.129  0.00  0.00    +0.020 A 
ENDBRANCH   1   9
BRANCH   3  13
ATOM     13  C   LIG    1       29.321  -0.962  22.033  0.00  0.00    +0.089 A 
ATOM     14  N   LIG    1       28.783  -0.906  23.282  0.00  0.00    -0.253 NA
ATOM     15  C   LIG    1       29.566  -1.231  24.333  0.00  0.00    +0.111 A 
ATOM     16  C   LIG    1       30.890  -1.610  24.218  0.00  0.00    +0.020 A 
ATOM     17  C   LIG    1       31.443  -1.666  22.946  0.00  0.00    +0.004 A 
ATOM     18  C   LIG    1       30.653  -1.344  21.843  0.00  0.00    +0.030 A 
ENDBRANCH   3  13
TORSDOF 2
ENDMDL
MODEL 2
REMARK VINA RESULT:      -8.5      0.038      6.258
REMARK  Name = 
REMARK                            x       y       z     vdW  Elec       q    Type
REMARK                         _______ _______ _______ _____ _____    ______ ____
ROOT
ATOM      1  C   LIG    1       28.408  -0.617  20.886  0.00  0.00    +0.090 A 
ATOM      2  N   LIG    1       27.875   0.635  20.916  0.00  0.00    -0.244 NA
ATOM      3  C   LIG    1       27.039   1.036  19.919  0.00  0.00    +0.090 A 
ATOM      4  C   LIG    1       26.716   0.182  18.865  0.00  0.00    +0.030 A 
ATOM      5  C   LIG    1       27.267  -1.095  18.827  0.00  0.00    +0.004 A 
ATOM      6  C   LIG    1       28.124  -1.497  19.844  0.00  0.00    +0.030 A 
ENDROOT
BRANCH   1   9
ATOM      7  C   LIG    1       31.405  -1.723  22.920  0.00  0.00    +0.004 A 
ATOM      8  C   LIG    1       30.615  -1.394  21.821  0.00  0.00    +0.030 A 
ATOM      9  C   LIG    1       29.293  -0.989  22.016  0.00  0.00    +0.089 A 
ATOM     10  N   LIG    1       28.756  -0.910  23.269  0.00  0.00    -0.253 NA
ATOM     11  C   LIG    1       29.545  -1.241  24.316  0.00  0.00    +0.111 A 
ATOM     12  C   LIG    1       30.861  -1.648  24.194  0.00  0.00    +0.020 A 
ENDBRANCH   1   9
BRANCH   3  13
ATOM     13  C   LIG    1       26.510   2.420  20.020  0.00  0.00    +0.089 A 
ATOM     14  N   LIG    1       26.973   3.317  19.105  0.00  0.00    -0.253 NA
ATOM     15  C   LIG    1       26.510   4.585  19.159  0.00  0.00    +0.111 A 
ATOM     16  C   LIG    1       25.597   5.031  20.096  0.00  0.00    +0.020 A 
ATOM     17  C   LIG    1       25.126   4.121  21.031  0.00  0.00    +0.004 A 
ATOM     18  C   LIG    1       25.581   2.803  20.992  0.00  0.00    +0.030 A 
ENDBRANCH   3  13
TORSDOF 2
ENDMDL
MODEL 3
REMARK VINA RESULT:      -7.8      1.109      1.640
REMARK  Name = 
REMARK                            x       y       z     vdW  Elec       q    Type
REMARK                         _______ _______ _______ _____ _____    ______ ____
ROOT
ATOM      1  C   LIG    1       26.953   1.059  19.766  0.00  0.00    +0.090 A 
ATOM      2  N   LIG    1       27.917   0.590  20.605  0.00  0.00    -0.244 NA
ATOM      3  C   LIG    1       28.377  -0.683  20.460  0.00  0.00    +0.090 A 
ATOM      4  C   LIG    1       27.877  -1.518  19.461  0.00  0.00    +0.030 A 
ATOM      5  C   LIG    1       26.884  -1.045  18.609  0.00  0.00    +0.004 A 
ATOM      6  C   LIG    1       26.415   0.253  18.765  0.00  0.00    +0.030 A 
ENDROOT
BRANCH   1   9
ATOM      7  C   LIG    1       26.577   4.814  19.439  0.00  0.00    +0.004 A 
ATOM      8  C   LIG    1       27.027   3.515  19.208  0.00  0.00    +0.030 A 
ATOM      9  C   LIG    1       26.519   2.461  19.972  0.00  0.00    +0.089 A 
ATOM     10  N   LIG    1       25.587   2.680  20.945  0.00  0.00    -0.253 NA
ATOM     11  C   LIG    1       25.173   3.950  21.149  0.00  0.00    +0.111 A 
ATOM     12  C   LIG    1       25.632   5.039  20.429  0.00  0.00    +0.020 A 
ENDBRANCH   1   9
BRANCH   3  13
ATOM     13  C   LIG    1       29.420  -1.121  21.423  0.00  0.00    +0.089 A 
ATOM     14  N   LIG    1       30.158  -2.209  21.069  0.00  0.00    -0.253 NA
ATOM     15  C   LIG    1       31.121  -2.633  21.915  0.00  0.00    +0.111 A 
ATOM     16  C   LIG    1       31.399  -2.031  23.128  0.00  0.00    +0.020 A 
ATOM     17  C   LIG    1       30.647  -0.923  23.493  0.00  0.00    +0.004 A 
ATOM     18  C   LIG    1       29.652  -0.460  22.633  0.00  0.00    +0.030 A 
ENDBRANCH   3  13
TORSDOF 2
ENDMDL
MODEL 4
REMARK VINA RESULT:      -7.2      2.846      7.418
REMARK  Name = 
REMARK                            x       y       z     vdW  Elec       q    Type
REMARK                         _______ _______ _______ _____ _____    ______ ____
ROOT
ATOM      1  C   LIG    1       26.652   2.040  19.651  0.00  0.00    +0.090 A 
ATOM      2  N   LIG    1       26.244   2.214  18.364  0.00  0.00    -0.244 NA
ATOM      3  C   LIG    1       25.573   3.346  18.017  0.00  0.00    +0.090 A 
ATOM      4  C   LIG    1       25.296   4.335  18.960  0.00  0.00    +0.030 A 
ATOM      5  C   LIG    1       25.702   4.155  20.278  0.00  0.00    +0.004 A 
ATOM      6  C   LIG    1       26.383   2.996  20.628  0.00  0.00    +0.030 A 
ENDROOT
BRANCH   1   9
ATOM      7  C   LIG    1       28.924  -0.514  21.282  0.00  0.00    +0.004 A 
ATOM      8  C   LIG    1       28.256   0.686  21.044  0.00  0.00    +0.030 A 
ATOM      9  C   LIG    1       27.396   0.793  19.949  0.00  0.00    +0.089 A 
ATOM     10  N   LIG    1       27.197  -0.259  19.102  0.00  0.00    -0.253 NA
ATOM     11  C   LIG    1       27.862  -1.408  19.355  0.00  0.00    +0.111 A 
ATOM     12  C   LIG    1       28.726  -1.583  20.421  0.00  0.00    +0.020 A 
ENDBRANCH   1   9
BRANCH   3  13
ATOM     13  C   LIG    1       25.153   3.453  16.596  0.00  0.00    +0.089 A 
ATOM     14  N   LIG    1       23.828   3.671  16.367  0.00  0.00    -0.253 NA
ATOM     15  C   LIG    1       23.408   3.781  15.088  0.00  0.00    +0.111 A 
ATOM     16  C   LIG    1       24.244   3.678  13.993  0.00  0.00    +0.020 A 
ATOM     17  C   LIG    1       25.594   3.454  14.222  0.00  0.00    +0.004 A 
ATOM     18  C   LIG    1       26.055   3.344  15.534  0.00  0.00    +0.030 A 
ENDBRANCH   3  13
TORSDOF 2
ENDMDL
MODEL 5
REMARK VINA RESULT:      -6.5      1.855      2.308
REMARK  Name = 
REMARK                            x       y       z     vdW  Elec       q    Type
REMARK                         _______ _______ _______ _____ _____    ______ ____
ROOT
ATOM      1  C   LIG    1       29.022   2.320  20.538  0.00  0.00    +0.090 A 
ATOM      2  N   LIG    1       29.058   1.134  21.205  0.00  0.00    -0.244 NA
ATOM      3  C   LIG    1       30.243   0.481  21.355  0.00  0.00    +0.090 A 
ATOM      4  C   LIG    1       31.425   1.009  20.838  0.00  0.00    +0.030 A 
ATOM      5  C   LIG    1       31.390   2.216  20.147  0.00  0.00    +0.004 A 
ATOM      6  C   LIG    1       30.177   2.876  19.992  0.00  0.00    +0.030 A 
ENDROOT
BRANCH   1   9
ATOM      7  C   LIG    1       25.371   3.205  21.025  0.00  0.00    +0.004 A 
ATOM      8  C   LIG    1       26.589   2.540  21.156  0.00  0.00    +0.030 A 
ATOM      9  C   LIG    1       27.699   2.982  20.432  0.00  0.00    +0.089 A 
ATOM     10  N   LIG    1       27.615   4.057  19.596  0.00  0.00    -0.253 NA
ATOM     11  C   LIG    1       26.419   4.679  19.485  0.00  0.00    +0.111 A 
ATOM     12  C   LIG    1       25.282   4.295  20.173  0.00  0.00    +0.020 A 
ENDBRANCH   1   9
BRANCH   3  13
ATOM     13  C   LIG    1       30.194  -0.812  22.084  0.00  0.00    +0.089 A 
ATOM     14  N   LIG    1       29.592  -0.801  23.306  0.00  0.00    -0.253 NA
ATOM     15  C   LIG    1       29.521  -1.959  23.996  0.00  0.00    +0.111 A 
ATOM     16  C   LIG    1       30.031  -3.159  23.540  0.00  0.00    +0.020 A 
ATOM     17  C   LIG    1       30.647  -3.174  22.297  0.00  0.00    +0.004 A 
ATOM     18  C   LIG    1       30.727  -1.993  21.560  0.00  0.00    +0.030 A 
ENDBRANCH   3  13
TORSDOF 2
ENDMDL
MODEL 6
REMARK VINA RESULT:      -6.4      2.421      2.980
REMARK  Name = 
REMARK                            x       y       z     vdW  Elec       q    Type
REMARK                         _______ _______ _______ _____ _____    ______ ____
ROOT
ATOM      1  C   LIG    1       26.436   0.610  18.106  0.00  0.00    +0.090 A 
ATOM      2  N   LIG    1       27.468   0.901  18.945  0.00  0.00    -0.244 NA
ATOM      3  C   LIG    1       28.006  -0.081  19.719  0.00  0.00    +0.090 A 
ATOM      4  C   LIG    1       27.517  -1.386  19.666  0.00  0.00    +0.030 A 
ATOM      5  C   LIG    1       26.456  -1.684  18.817  0.00  0.00    +0.004 A 
ATOM      6  C   LIG    1       25.907  -0.676  18.033  0.00  0.00    +0.030 A 
ENDROOT
BRANCH   1   9
ATOM      7  C   LIG    1       24.723   3.806  17.010  0.00  0.00    +0.004 A 
ATOM      8  C   LIG    1       25.179   2.777  17.832  0.00  0.00    +0.030 A 
ATOM      9  C   LIG    1       25.917   1.727  17.280  0.00  0.00    +0.089 A 
ATOM     10  N   LIG    1       26.200   1.687  15.945  0.00  0.00    -0.253 NA
ATOM     11  C   LIG    1       25.740   2.696  15.172  0.00  0.00    +0.111 A 
ATOM     12  C   LIG    1       25.007   3.766  15.652  0.00  0.00    +0.020 A 
ENDBRANCH   1   9
BRANCH   3  13
ATOM     13  C   LIG    1       29.120   0.323  20.615  0.00  0.00    +0.089 A 
ATOM     14  N   LIG    1       29.535   1.616  20.526  0.00  0.00    -0.253 NA
ATOM     15  C   LIG    1       30.541   2.024  21.330  0.00  0.00    +0.111 A 
ATOM     16  C   LIG    1       31.182   1.201  22.236  0.00  0.00    +0.020 A 
ATOM     17  C   LIG    1       30.763  -0.118  22.328  0.00  0.00    +0.004 A 
ATOM     18  C   LIG    1       29.721  -0.562  21.515  0.00  0.00    +0.030 A 
ENDBRANCH   3  13
TORSDOF 2
ENDMDL
MODEL 7
REMARK VINA RESULT:      -6.3      2.040      3.008
REMARK  Name = 
REMARK                            x       y       z     vdW  Elec       q    Type
REMARK                         _______ _______ _______ _____ _____    ______ ____
ROOT
ATOM      1  C   LIG    1       28.660   1.680  19.861  0.00  0.00    +0.090 A 
ATOM      2  N   LIG    1       28.782   0.506  20.539  0.00  0.00    -0.244 NA
ATOM      3  C   LIG    1       29.827   0.325  21.392  0.00  0.00    +0.090 A 
ATOM      4  C   LIG    1       30.778   1.326  21.585  0.00  0.00    +0.030 A 
ATOM      5  C   LIG    1       30.663   2.523  20.885  0.00  0.00    +0.004 A 
ATOM      6  C   LIG    1       29.596   2.700  20.012  0.00  0.00    +0.030 A 
ENDROOT
BRANCH   1   9
ATOM      7  C   LIG    1       25.884   0.914  17.401  0.00  0.00    +0.004 A 
ATOM      8  C   LIG    1       26.998   0.737  18.219  0.00  0.00    +0.030 A 
ATOM      9  C   LIG    1       27.485   1.812  18.967  0.00  0.00    +0.089 A 
ATOM     10  N   LIG    1       26.889   3.038  18.911  0.00  0.00    -0.253 NA
ATOM     11  C   LIG    1       25.813   3.182  18.105  0.00  0.00    +0.111 A 
ATOM     12  C   LIG    1       25.278   2.160  17.340  0.00  0.00    +0.020 A 
ENDBRANCH   1   9
BRANCH   3  13
ATOM     13  C   LIG    1       29.893  -0.988  22.083  0.00  0.00    +0.089 A 
ATOM     14  N   LIG    1       30.434  -2.021  21.379  0.00  0.00    -0.253 NA
ATOM     15  C   LIG    1       30.518  -3.229  21.976  0.00  0.00    +0.111 A 
ATOM     16  C   LIG    1       30.080  -3.485  23.261  0.00  0.00    +0.020 A 
ATOM     17  C   LIG    1       29.526  -2.435  23.981  0.00  0.00    +0.004 A 
ATOM     18  C   LIG    1       29.434  -1.175  23.391  0.00  0.00    +0.030 A 
ENDBRANCH   3  13
TORSDOF 2
ENDMDL
