MODEL 1
REMARK VINA RESULT:      -8.1      0.000      0.000
REMARK  Name = 
REMARK                            x       y       z     vdW  Elec       q    Type
REMARK                         _______ _______ _______ _____ _____    ______ ____
ROOT
ATOM      1  C   LIG    1        4.174  17.855  31.554  0.00  0.00    +0.090 A 
ATOM      2  N   LIG    1        3.863  17.869  30.228  0.00  0.00    -0.244 NA
ATOM      3  C   LIG    1        4.769  18.340  29.328  0.00  0.00    +0.090 A 
ATOM      4  C   LIG    1        6.015  18.809  29.741  0.00  0.00    +0.030 A 
ATOM      5  C   LIG    1        6.331  18.806  31.095  0.00  0.00    +0.004 A 
ATOM      6  C   LIG    1        5.401  18.329  32.011  0.00  0.00    +0.030 A 
ENDROOT
BRANCH   1   9
ATOM      7  C   LIG    1        1.491  15.662  33.083  0.00  0.00    +0.004 A 
ATOM      8  C   LIG    1        2.441  16.137  32.181  0.00  0.00    +0.030 A 
ATOM      9  C   LIG    1        3.146  17.308  32.471  0.00  0.00    +0.089 A 
ATOM     10  N   LIG    1        2.920  18.000  33.625  0.00  0.00    -0.253 NA
ATOM     11  C   LIG    1        1.989  17.519  34.479  0.00  0.00    +0.111 A 
ATOM     12  C   LIG    1        1.258  16.366  34.255  0.00  0.00    +0.020 A 
ENDBRANCH   1   9
BRANCH   3  13
ATOM     13  C   LIG    1        4.346  18.332  27.904  0.00  0.00    +0.089 A 
ATOM     14  N   LIG    1        3.846  19.498  27.410  0.00  0.00    -0.253 NA
ATOM     15  C   LIG    1        3.458  19.533  26.117  0.00  0.00    +0.111 A 
ATOM     16  C   LIG    1        3.532  18.450  25.262  0.00  0.00    +0.020 A 
ATOM     17  C   LIG    1        4.039  17.259  25.762  0.00  0.00    +0.004 A 
ATOM     18  C   LIG    1        4.454  17.199  27.092  0.00  0.00    +0.030 A 
ENDBRANCH   3  13
TORSDOF 2
ENDMDL
MODEL 2
REMARK VINA RESULT:      -8.1      0.625      6.175
REMARK  Name = 
REMARK                            x       y       z     vdW  Elec       q    Type
REMARK                         _______ _______ _______ _____ _____    ______ ____
ROOT
ATOM      1  C   LIG    1        4.784  18.373  29.366  0.00  0.00    +0.090 A 
ATOM      2  N   LIG    1        3.881  17.922  30.280  0.00  0.00    -0.244 NA
ATOM      3  C   LIG    1        4.203  17.920  31.602  0.00  0.00    +0.090 A 
ATOM      4  C   LIG    1        5.447  18.374  32.039  0.00  0.00    +0.030 A 
ATOM      5  C   LIG    1        6.376  18.825  31.107  0.00  0.00    +0.004 A 
ATOM      6  C   LIG    1        6.043  18.820  29.758  0.00  0.00    +0.030 A 
ENDROOT
BRANCH   1   9
ATOM      7  C   LIG    1        4.025  17.270  25.823  0.00  0.00    +0.004 A 
ATOM      8  C   LIG    1        4.453  17.224  27.148  0.00  0.00    +0.030 A 
ATOM      9  C   LIG    1        4.353  18.365  27.947  0.00  0.00    +0.089 A 
ATOM     10  N   LIG    1        3.842  19.530  27.453  0.00  0.00    -0.253 NA
ATOM     11  C   LIG    1        3.439  19.547  26.163  0.00  0.00    +0.111 A 
ATOM     12  C   LIG    1        3.508  18.453  25.317  0.00  0.00    +0.020 A 
ENDBRANCH   1   9
BRANCH   3  13
ATOM     13  C   LIG    1        3.167  17.401  32.532  0.00  0.00    +0.089 A 
ATOM     14  N   LIG    1        2.541  16.249  32.165  0.00  0.00    -0.253 NA
ATOM     15  C   LIG    1        1.598  15.742  32.987  0.00  0.00    +0.111 A 
ATOM     16  C   LIG    1        1.222  16.328  34.181  0.00  0.00    +0.020 A 
ATOM     17  C   LIG    1        1.857  17.503  34.557  0.00  0.00    +0.004 A 
ATOM     18  C   LIG    1        2.840  18.044  33.729  0.00  0.00    +0.030 A 
ENDBRANCH   3  13
TORSDOF 2
ENDMDL
MODEL 3
REMARK VINA RESULT:      -7.9      2.476      3.406
REMARK  Name = 
REMARK                            x       y       z     vdW  Elec       q    Type
REMARK                         _______ _______ _______ _____ _____    ______ ____
ROOT
ATOM      1  C   LIG    1        2.515  18.668  31.589  0.00  0.00    +0.090 A 
ATOM      2  N   LIG    1        3.764  18.878  31.089  0.00  0.00    -0.244 NA
ATOM      3  C   LIG    1        3.954  19.813  30.119  0.00  0.00    +0.090 A 
ATOM      4  C   LIG    1        2.888  20.564  29.626  0.00  0.00    +0.030 A 
ATOM      5  C   LIG    1        1.609  20.345  30.127  0.00  0.00    +0.004 A 
ATOM      6  C   LIG    1        1.419  19.385  31.114  0.00  0.00    +0.030 A 
ENDROOT
BRANCH   1   9
ATOM      7  C   LIG    1        2.566  16.933  34.955  0.00  0.00    +0.004 A 
ATOM      8  C   LIG    1        2.711  17.927  33.989  0.00  0.00    +0.030 A 
ATOM      9  C   LIG    1        2.390  17.649  32.658  0.00  0.00    +0.089 A 
ATOM     10  N   LIG    1        1.937  16.417  32.283  0.00  0.00    -0.253 NA
ATOM     11  C   LIG    1        1.812  15.471  33.242  0.00  0.00    +0.111 A 
ATOM     12  C   LIG    1        2.109  15.680  34.577  0.00  0.00    +0.020 A 
ENDBRANCH   1   9
BRANCH   3  13
ATOM     13  C   LIG    1        5.344  19.971  29.620  0.00  0.00    +0.089 A 
ATOM     14  N   LIG    1        5.486  20.395  28.334  0.00  0.00    -0.253 NA
ATOM     15  C   LIG    1        6.734  20.558  27.846  0.00  0.00    +0.111 A 
ATOM     16  C   LIG    1        7.883  20.312  28.574  0.00  0.00    +0.020 A 
ATOM     17  C   LIG    1        7.743  19.879  29.885  0.00  0.00    +0.004 A 
ATOM     18  C   LIG    1        6.464  19.710  30.416  0.00  0.00    +0.030 A 
ENDBRANCH   3  13
TORSDOF 2
ENDMDL
MODEL 4
REMARK VINA RESULT:      -7.9      2.399      6.519
REMARK  Name = 
REMARK                            x       y       z     vdW  Elec       q    Type
REMARK                         _______ _______ _______ _____ _____    ______ ____
ROOT
ATOM      1  C   LIG    1        3.965  19.818  30.098  0.00  0.00    +0.090 A 
ATOM      2  N   LIG    1        3.775  18.876  31.063  0.00  0.00    -0.244 NA
ATOM      3  C   LIG    1        2.524  18.654  31.552  0.00  0.00    +0.090 A 
ATOM      4  C   LIG    1        1.429  19.376  31.079  0.00  0.00    +0.030 A 
ATOM      5  C   LIG    1        1.621  20.347  30.102  0.00  0.00    +0.004 A 
ATOM      6  C   LIG    1        2.901  20.573  29.609  0.00  0.00    +0.030 A 
ENDROOT
BRANCH   1   9
ATOM      7  C   LIG    1        7.745  19.899  29.882  0.00  0.00    +0.004 A 
ATOM      8  C   LIG    1        6.464  19.731  30.404  0.00  0.00    +0.030 A 
ATOM      9  C   LIG    1        5.350  19.988  29.600  0.00  0.00    +0.089 A 
ATOM     10  N   LIG    1        5.493  20.404  28.309  0.00  0.00    -0.253 NA
ATOM     11  C   LIG    1        6.748  20.564  27.831  0.00  0.00    +0.111 A 
ATOM     12  C   LIG    1        7.892  20.325  28.570  0.00  0.00    +0.020 A 
ENDBRANCH   1   9
BRANCH   3  13
ATOM     13  C   LIG    1        2.405  17.618  32.610  0.00  0.00    +0.089 A 
ATOM     14  N   LIG    1        2.673  18.016  33.885  0.00  0.00    -0.253 NA
ATOM     15  C   LIG    1        2.569  17.105  34.876  0.00  0.00    +0.111 A 
ATOM     16  C   LIG    1        2.212  15.785  34.674  0.00  0.00    +0.020 A 
ATOM     17  C   LIG    1        1.940  15.376  33.376  0.00  0.00    +0.004 A 
ATOM     18  C   LIG    1        2.033  16.299  32.335  0.00  0.00    +0.030 A 
ENDBRANCH   3  13
TORSDOF 2
ENDMDL
MODEL 5
REMARK VINA RESULT:      -7.8      2.079      3.566
REMARK  Name = 
REMARK                            x       y       z     vdW  Elec       q    Type
REMARK                         _______ _______ _______ _____ _____    ______ ____
ROOT
ATOM      1  C   LIG    1        2.757  18.563  31.001  0.00  0.00    +0.090 A 
ATOM      2  N   LIG    1        4.030  19.004  30.806  0.00  0.00    -0.244 NA
ATOM      3  C   LIG    1        4.480  19.225  29.540  0.00  0.00    +0.090 A 
ATOM      4  C   LIG    1        3.657  19.009  28.436  0.00  0.00    +0.030 A 
ATOM      5  C   LIG    1        2.359  18.548  28.632  0.00  0.00    +0.004 A 
ATOM      6  C   LIG    1        1.906  18.319  29.926  0.00  0.00    +0.030 A 
ENDROOT
BRANCH   1   9
ATOM      7  C   LIG    1        2.797  18.074  34.757  0.00  0.00    +0.004 A 
ATOM      8  C   LIG    1        3.252  18.250  33.451  0.00  0.00    +0.030 A 
ATOM      9  C   LIG    1        2.331  18.365  32.408  0.00  0.00    +0.089 A 
ATOM     10  N   LIG    1        0.988  18.306  32.641  0.00  0.00    -0.253 NA
ATOM     11  C   LIG    1        0.576  18.130  33.917  0.00  0.00    +0.111 A 
ATOM     12  C   LIG    1        1.432  18.011  34.997  0.00  0.00    +0.020 A 
ENDBRANCH   1   9
BRANCH   3  13
ATOM     13  C   LIG    1        5.884  19.693  29.414  0.00  0.00    +0.089 A 
ATOM     14  N   LIG    1        6.324  19.967  28.155  0.00  0.00    -0.253 NA
ATOM     15  C   LIG    1        7.593  20.402  27.999  0.00  0.00    +0.111 A 
ATOM     16  C   LIG    1        8.479  20.581  29.045  0.00  0.00    +0.020 A 
ATOM     17  C   LIG    1        8.035  20.301  30.329  0.00  0.00    +0.004 A 
ATOM     18  C   LIG    1        6.726  19.857  30.518  0.00  0.00    +0.030 A 
ENDBRANCH   3  13
TORSDOF 2
ENDMDL
MODEL 6
REMARK VINA RESULT:      -7.8      2.083      6.588
REMARK  Name = 
REMARK                            x       y       z     vdW  Elec       q    Type
REMARK                         _______ _______ _______ _____ _____    ______ ____
ROOT
ATOM      1  C   LIG    1        4.480  19.230  29.549  0.00  0.00    +0.090 A 
ATOM      2  N   LIG    1        4.023  19.019  30.814  0.00  0.00    -0.244 NA
ATOM      3  C   LIG    1        2.753  18.569  31.006  0.00  0.00    +0.090 A 
ATOM      4  C   LIG    1        1.909  18.317  29.925  0.00  0.00    +0.030 A 
ATOM      5  C   LIG    1        2.370  18.542  28.632  0.00  0.00    +0.004 A 
ATOM      6  C   LIG    1        3.666  19.007  28.442  0.00  0.00    +0.030 A 
ENDROOT
BRANCH   1   9
ATOM      7  C   LIG    1        8.026  20.297  30.349  0.00  0.00    +0.004 A 
ATOM      8  C   LIG    1        6.714  19.860  30.529  0.00  0.00    +0.030 A 
ATOM      9  C   LIG    1        5.880  19.700  29.420  0.00  0.00    +0.089 A 
ATOM     10  N   LIG    1        6.325  19.966  28.157  0.00  0.00    -0.253 NA
ATOM     11  C   LIG    1        7.600  20.393  28.014  0.00  0.00    +0.111 A 
ATOM     12  C   LIG    1        8.479  20.570  29.067  0.00  0.00    +0.020 A 
ENDBRANCH   1   9
BRANCH   3  13
ATOM     13  C   LIG    1        2.328  18.376  32.416  0.00  0.00    +0.089 A 
ATOM     14  N   LIG    1        0.987  18.318  32.646  0.00  0.00    -0.253 NA
ATOM     15  C   LIG    1        0.562  18.135  33.915  0.00  0.00    +0.111 A 
ATOM     16  C   LIG    1        1.408  18.012  35.000  0.00  0.00    +0.020 A 
ATOM     17  C   LIG    1        2.775  18.073  34.770  0.00  0.00    +0.004 A 
ATOM     18  C   LIG    1        3.241  18.253  33.468  0.00  0.00    +0.030 A 
ENDBRANCH   3  13
TORSDOF 2
ENDMDL
MODEL 7
REMARK VINA RESULT:      -7.6      2.736      6.810
REMARK  Name = 
REMARK                            x       y       z     vdW  Elec       q    Type
REMARK                         _______ _______ _______ _____ _____    ______ ____
ROOT
ATOM      1  C   LIG    1        5.267  19.105  27.168  0.00  0.00    +0.090 A 
ATOM      2  N   LIG    1        4.701  19.196  28.403  0.00  0.00    -0.244 NA
ATOM      3  C   LIG    1        3.751  18.296  28.778  0.00  0.00    +0.090 A 
ATOM      4  C   LIG    1        3.347  17.277  27.917  0.00  0.00    +0.030 A 
ATOM      5  C   LIG    1        3.915  17.188  26.650  0.00  0.00    +0.004 A 
ATOM      6  C   LIG    1        4.881  18.112  26.271  0.00  0.00    +0.030 A 
ENDROOT
BRANCH   1   9
ATOM      7  C   LIG    1        8.291  20.816  25.661  0.00  0.00    +0.004 A 
ATOM      8  C   LIG    1        7.342  19.834  25.941  0.00  0.00    +0.030 A 
ATOM      9  C   LIG    1        6.309  20.107  26.840  0.00  0.00    +0.089 A 
ATOM     10  N   LIG    1        6.210  21.321  27.455  0.00  0.00    -0.253 NA
ATOM     11  C   LIG    1        7.147  22.253  27.168  0.00  0.00    +0.111 A 
ATOM     12  C   LIG    1        8.194  22.050  26.287  0.00  0.00    +0.020 A 
ENDBRANCH   1   9
BRANCH   3  13
ATOM     13  C   LIG    1        3.175  18.474  30.136  0.00  0.00    +0.089 A 
ATOM     14  N   LIG    1        2.172  19.386  30.258  0.00  0.00    -0.253 NA
ATOM     15  C   LIG    1        1.617  19.570  31.475  0.00  0.00    +0.111 A 
ATOM     16  C   LIG    1        2.014  18.892  32.612  0.00  0.00    +0.020 A 
ATOM     17  C   LIG    1        3.039  17.964  32.492  0.00  0.00    +0.004 A 
ATOM     18  C   LIG    1        3.623  17.748  31.245  0.00  0.00    +0.030 A 
ENDBRANCH   3  13
TORSDOF 2
ENDMDL
MODEL 8
REMARK VINA RESULT:      -7.6      2.763      3.863
REMARK  Name = 
REMARK                            x       y       z     vdW  Elec       q    Type
REMARK                         _______ _______ _______ _____ _____    ______ ____
ROOT
ATOM      1  C   LIG    1        3.748  18.316  28.710  0.00  0.00    +0.090 A 
ATOM      2  N   LIG    1        4.707  19.208  28.340  0.00  0.00    -0.244 NA
ATOM      3  C   LIG    1        5.290  19.103  27.115  0.00  0.00    +0.090 A 
ATOM      4  C   LIG    1        4.919  18.095  26.226  0.00  0.00    +0.030 A 
ATOM      5  C   LIG    1        3.947  17.174  26.605  0.00  0.00    +0.004 A 
ATOM      6  C   LIG    1        3.359  17.283  27.860  0.00  0.00    +0.030 A 
ENDROOT
BRANCH   1   9
ATOM      7  C   LIG    1        2.930  17.963  32.391  0.00  0.00    +0.004 A 
ATOM      8  C   LIG    1        3.524  17.735  31.151  0.00  0.00    +0.030 A 
ATOM      9  C   LIG    1        3.144  18.506  30.050  0.00  0.00    +0.089 A 
ATOM     10  N   LIG    1        2.198  19.483  30.165  0.00  0.00    -0.253 NA
ATOM     11  C   LIG    1        1.635  19.678  31.379  0.00  0.00    +0.111 A 
ATOM     12  C   LIG    1        1.965  18.952  32.510  0.00  0.00    +0.020 A 
ENDBRANCH   1   9
BRANCH   3  13
ATOM     13  C   LIG    1        6.335  20.109  26.794  0.00  0.00    +0.089 A 
ATOM     14  N   LIG    1        6.233  21.314  27.421  0.00  0.00    -0.253 NA
ATOM     15  C   LIG    1        7.169  22.252  27.162  0.00  0.00    +0.111 A 
ATOM     16  C   LIG    1        8.225  22.066  26.289  0.00  0.00    +0.020 A 
ATOM     17  C   LIG    1        8.330  20.840  25.648  0.00  0.00    +0.004 A 
ATOM     18  C   LIG    1        7.381  19.851  25.904  0.00  0.00    +0.030 A 
ENDBRANCH   3  13
TORSDOF 2
ENDMDL
MODEL 9
REMARK VINA RESULT:      -7.2      2.176      2.817
REMARK  Name = 
REMARK                            x       y       z     vdW  Elec       q    Type
REMARK                         _______ _______ _______ _____ _____    ______ ____
ROOT
ATOM      1  C   LIG    1        2.157  18.871  31.785  0.00  0.00    +0.090 A 
ATOM      2  N   LIG    1        3.071  18.830  30.777  0.00  0.00    -0.244 NA
ATOM      3  C   LIG    1        3.116  19.840  29.865  0.00  0.00    +0.090 A 
ATOM      4  C   LIG    1        2.241  20.922  29.948  0.00  0.00    +0.030 A 
ATOM      5  C   LIG    1        1.298  20.962  30.971  0.00  0.00    +0.004 A 
ATOM      6  C   LIG    1        1.253  19.926  31.895  0.00  0.00    +0.030 A 
ENDROOT
BRANCH   1   9
ATOM      7  C   LIG    1        2.589  16.825  34.943  0.00  0.00    +0.004 A 
ATOM      8  C   LIG    1        2.593  17.916  34.075  0.00  0.00    +0.030 A 
ATOM      9  C   LIG    1        2.182  17.747  32.750  0.00  0.00    +0.089 A 
ATOM     10  N   LIG    1        1.777  16.529  32.287  0.00  0.00    -0.253 NA
ATOM     11  C   LIG    1        1.788  15.488  33.150  0.00  0.00    +0.111 A 
ATOM     12  C   LIG    1        2.180  15.586  34.473  0.00  0.00    +0.020 A 
ENDBRANCH   1   9
BRANCH   3  13
ATOM     13  C   LIG    1        4.134  19.712  28.791  0.00  0.00    +0.089 A 
ATOM     14  N   LIG    1        5.088  20.682  28.737  0.00  0.00    -0.253 NA
ATOM     15  C   LIG    1        6.035  20.596  27.778  0.00  0.00    +0.111 A 
ATOM     16  C   LIG    1        6.091  19.584  26.839  0.00  0.00    +0.020 A 
ATOM     17  C   LIG    1        5.119  18.595  26.890  0.00  0.00    +0.004 A 
ATOM     18  C   LIG    1        4.133  18.656  27.875  0.00  0.00    +0.030 A 
ENDBRANCH   3  13
TORSDOF 2
ENDMDL
