MODEL 1
REMARK VINA RESULT:      -9.2      0.000      0.000
REMARK  Name = 
REMARK                            x       y       z     vdW  Elec       q    Type
REMARK                         _______ _______ _______ _____ _____    ______ ____
ROOT
ATOM      1  C   LIG    1       23.961 -16.017  17.489  0.00  0.00    +0.090 A 
ATOM      2  N   LIG    1       24.889 -15.470  18.322  0.00  0.00    -0.244 NA
ATOM      3  C   LIG    1       26.208 -15.752  18.141  0.00  0.00    +0.090 A 
ATOM      4  C   LIG    1       26.628 -16.594  17.112  0.00  0.00    +0.030 A 
ATOM      5  C   LIG    1       25.682 -17.163  16.266  0.00  0.00    +0.004 A 
ATOM      6  C   LIG    1       24.336 -16.875  16.458  0.00  0.00    +0.030 A 
ENDROOT
BRANCH   1   9
ATOM      7  C   LIG    1       20.455 -14.651  17.064  0.00  0.00    +0.004 A 
ATOM      8  C   LIG    1       21.783 -14.967  16.783  0.00  0.00    +0.030 A 
ATOM      9  C   LIG    1       22.547 -15.646  17.735  0.00  0.00    +0.089 A 
ATOM     10  N   LIG    1       22.018 -16.006  18.940  0.00  0.00    -0.253 NA
ATOM     11  C   LIG    1       20.729 -15.681  19.187  0.00  0.00    +0.111 A 
ATOM     12  C   LIG    1       19.915 -15.013  18.289  0.00  0.00    +0.020 A 
ENDBRANCH   1   9
BRANCH   3  13
ATOM     13  C   LIG    1       27.153 -15.126  19.101  0.00  0.00    +0.089 A 
ATOM     14  N   LIG    1       26.755 -13.955  19.671  0.00  0.00    -0.253 NA
ATOM     15  C   LIG    1       27.583 -13.358  20.555  0.00  0.00    +0.111 A 
ATOM     16  C   LIG    1       28.820 -13.861  20.911  0.00  0.00    +0.020 A 
ATOM     17  C   LIG    1       29.230 -15.053  20.330  0.00  0.00    +0.004 A 
ATOM     18  C   LIG    1       28.390 -15.694  19.420  0.00  0.00    +0.030 A 
ENDBRANCH   3  13
TORSDOF 2
ENDMDL
MODEL 2
REMARK VINA RESULT:      -9.2      0.034      6.171
REMARK  Name = 
REMARK                            x       y       z     vdW  Elec       q    Type
REMARK                         _______ _______ _______ _____ _____    ______ ____
ROOT
ATOM      1  C   LIG    1       26.220 -15.739  18.171  0.00  0.00    +0.090 A 
ATOM      2  N   LIG    1       24.898 -15.462  18.334  0.00  0.00    -0.244 NA
ATOM      3  C   LIG    1       23.983 -16.018  17.493  0.00  0.00    +0.090 A 
ATOM      4  C   LIG    1       24.379 -16.871  16.463  0.00  0.00    +0.030 A 
ATOM      5  C   LIG    1       25.731 -17.147  16.287  0.00  0.00    +0.004 A 
ATOM      6  C   LIG    1       26.661 -16.573  17.146  0.00  0.00    +0.030 A 
ENDROOT
BRANCH   1   9
ATOM      7  C   LIG    1       29.225 -15.059  20.373  0.00  0.00    +0.004 A 
ATOM      8  C   LIG    1       28.382 -15.694  19.464  0.00  0.00    +0.030 A 
ATOM      9  C   LIG    1       27.154 -15.114  19.138  0.00  0.00    +0.089 A 
ATOM     10  N   LIG    1       26.760 -13.933  19.696  0.00  0.00    -0.253 NA
ATOM     11  C   LIG    1       27.597 -13.342  20.579  0.00  0.00    +0.111 A 
ATOM     12  C   LIG    1       28.826 -13.859  20.945  0.00  0.00    +0.020 A 
ENDBRANCH   1   9
BRANCH   3  13
ATOM     13  C   LIG    1       22.563 -15.656  17.732  0.00  0.00    +0.089 A 
ATOM     14  N   LIG    1       22.034 -16.023  18.932  0.00  0.00    -0.253 NA
ATOM     15  C   LIG    1       20.747 -15.704  19.190  0.00  0.00    +0.111 A 
ATOM     16  C   LIG    1       19.928 -15.031  18.303  0.00  0.00    +0.020 A 
ATOM     17  C   LIG    1       20.463 -14.658  17.078  0.00  0.00    +0.004 A 
ATOM     18  C   LIG    1       21.792 -14.968  16.790  0.00  0.00    +0.030 A 
ENDBRANCH   3  13
TORSDOF 2
ENDMDL
MODEL 3
REMARK VINA RESULT:      -9.1      3.560      7.425
REMARK  Name = 
REMARK                            x       y       z     vdW  Elec       q    Type
REMARK                         _______ _______ _______ _____ _____    ______ ____
ROOT
ATOM      1  C   LIG    1       22.300 -16.479  17.401  0.00  0.00    +0.090 A 
ATOM      2  N   LIG    1       21.068 -16.728  17.923  0.00  0.00    -0.244 NA
ATOM      3  C   LIG    1       20.076 -15.806  17.780  0.00  0.00    +0.090 A 
ATOM      4  C   LIG    1       20.301 -14.607  17.105  0.00  0.00    +0.030 A 
ATOM      5  C   LIG    1       21.563 -14.345  16.580  0.00  0.00    +0.004 A 
ATOM      6  C   LIG    1       22.572 -15.288  16.732  0.00  0.00    +0.030 A 
ENDROOT
BRANCH   1   9
ATOM      7  C   LIG    1       25.543 -18.431  17.279  0.00  0.00    +0.004 A 
ATOM      8  C   LIG    1       24.620 -17.408  17.077  0.00  0.00    +0.030 A 
ATOM      9  C   LIG    1       23.322 -17.538  17.577  0.00  0.00    +0.089 A 
ATOM     10  N   LIG    1       22.939 -18.654  18.263  0.00  0.00    -0.253 NA
ATOM     11  C   LIG    1       23.855 -19.633  18.440  0.00  0.00    +0.111 A 
ATOM     12  C   LIG    1       25.155 -19.568  17.973  0.00  0.00    +0.020 A 
ENDBRANCH   1   9
BRANCH   3  13
ATOM     13  C   LIG    1       18.766 -16.149  18.389  0.00  0.00    +0.089 A 
ATOM     14  N   LIG    1       18.534 -17.469  18.632  0.00  0.00    -0.253 NA
ATOM     15  C   LIG    1       17.357 -17.820  19.193  0.00  0.00    +0.111 A 
ATOM     16  C   LIG    1       16.365 -16.919  19.529  0.00  0.00    +0.020 A 
ATOM     17  C   LIG    1       16.597 -15.573  19.281  0.00  0.00    +0.004 A 
ATOM     18  C   LIG    1       17.808 -15.183  18.710  0.00  0.00    +0.030 A 
ENDBRANCH   3  13
TORSDOF 2
ENDMDL
MODEL 4
REMARK VINA RESULT:      -9.1      3.570      4.990
REMARK  Name = 
REMARK                            x       y       z     vdW  Elec       q    Type
REMARK                         _______ _______ _______ _____ _____    ______ ____
ROOT
ATOM      1  C   LIG    1       20.071 -15.803  17.775  0.00  0.00    +0.090 A 
ATOM      2  N   LIG    1       21.065 -16.724  17.910  0.00  0.00    -0.244 NA
ATOM      3  C   LIG    1       22.298 -16.466  17.393  0.00  0.00    +0.090 A 
ATOM      4  C   LIG    1       22.563 -15.271  16.727  0.00  0.00    +0.030 A 
ATOM      5  C   LIG    1       21.547 -14.332  16.578  0.00  0.00    +0.004 A 
ATOM      6  C   LIG    1       20.289 -14.602  17.103  0.00  0.00    +0.030 A 
ENDROOT
BRANCH   1   9
ATOM      7  C   LIG    1       16.592 -15.548  19.249  0.00  0.00    +0.004 A 
ATOM      8  C   LIG    1       17.810 -15.170  18.688  0.00  0.00    +0.030 A 
ATOM      9  C   LIG    1       18.763 -16.145  18.381  0.00  0.00    +0.089 A 
ATOM     10  N   LIG    1       18.524 -17.466  18.624  0.00  0.00    -0.253 NA
ATOM     11  C   LIG    1       17.335 -17.803  19.174  0.00  0.00    +0.111 A 
ATOM     12  C   LIG    1       16.348 -16.890  19.499  0.00  0.00    +0.020 A 
ENDBRANCH   1   9
BRANCH   3  13
ATOM     13  C   LIG    1       23.321 -17.528  17.573  0.00  0.00    +0.089 A 
ATOM     14  N   LIG    1       22.936 -18.635  18.265  0.00  0.00    -0.253 NA
ATOM     15  C   LIG    1       23.836 -19.626  18.443  0.00  0.00    +0.111 A 
ATOM     16  C   LIG    1       25.133 -19.581  17.970  0.00  0.00    +0.020 A 
ATOM     17  C   LIG    1       25.531 -18.453  17.266  0.00  0.00    +0.004 A 
ATOM     18  C   LIG    1       24.618 -17.418  17.062  0.00  0.00    +0.030 A 
ENDBRANCH   3  13
TORSDOF 2
ENDMDL
MODEL 5
REMARK VINA RESULT:      -8.7      1.377      1.737
REMARK  Name = 
REMARK                            x       y       z     vdW  Elec       q    Type
REMARK                         _______ _______ _______ _____ _____    ______ ____
ROOT
ATOM      1  C   LIG    1       22.576 -16.466  17.318  0.00  0.00    +0.090 A 
ATOM      2  N   LIG    1       23.506 -15.652  17.887  0.00  0.00    -0.244 NA
ATOM      3  C   LIG    1       24.810 -15.749  17.508  0.00  0.00    +0.090 A 
ATOM      4  C   LIG    1       25.210 -16.670  16.541  0.00  0.00    +0.030 A 
ATOM      5  C   LIG    1       24.264 -17.512  15.966  0.00  0.00    +0.004 A 
ATOM      6  C   LIG    1       22.935 -17.412  16.361  0.00  0.00    +0.030 A 
ENDROOT
BRANCH   1   9
ATOM      7  C   LIG    1       19.135 -15.010  17.938  0.00  0.00    +0.004 A 
ATOM      8  C   LIG    1       20.453 -15.121  17.500  0.00  0.00    +0.030 A 
ATOM      9  C   LIG    1       21.174 -16.288  17.767  0.00  0.00    +0.089 A 
ATOM     10  N   LIG    1       20.611 -17.324  18.453  0.00  0.00    -0.253 NA
ATOM     11  C   LIG    1       19.332 -17.186  18.870  0.00  0.00    +0.111 A 
ATOM     12  C   LIG    1       18.561 -16.061  18.638  0.00  0.00    +0.020 A 
ENDBRANCH   1   9
BRANCH   3  13
ATOM     13  C   LIG    1       25.763 -14.833  18.186  0.00  0.00    +0.089 A 
ATOM     14  N   LIG    1       25.291 -13.599  18.517  0.00  0.00    -0.253 NA
ATOM     15  C   LIG    1       26.125 -12.740  19.141  0.00  0.00    +0.111 A 
ATOM     16  C   LIG    1       27.437 -13.036  19.459  0.00  0.00    +0.020 A 
ATOM     17  C   LIG    1       27.922 -14.291  19.122  0.00  0.00    +0.004 A 
ATOM     18  C   LIG    1       27.079 -15.200  18.483  0.00  0.00    +0.030 A 
ENDBRANCH   3  13
TORSDOF 2
ENDMDL
MODEL 6
REMARK VINA RESULT:      -8.5      2.247      7.160
REMARK  Name = 
REMARK                            x       y       z     vdW  Elec       q    Type
REMARK                         _______ _______ _______ _____ _____    ______ ____
ROOT
ATOM      1  C   LIG    1       22.862 -15.616  17.963  0.00  0.00    +0.090 A 
ATOM      2  N   LIG    1       21.730 -16.265  18.349  0.00  0.00    -0.244 NA
ATOM      3  C   LIG    1       20.516 -15.810  17.934  0.00  0.00    +0.090 A 
ATOM      4  C   LIG    1       20.411 -14.687  17.115  0.00  0.00    +0.030 A 
ATOM      5  C   LIG    1       21.566 -14.014  16.727  0.00  0.00    +0.004 A 
ATOM      6  C   LIG    1       22.802 -14.481  17.158  0.00  0.00    +0.030 A 
ENDROOT
BRANCH   1   9
ATOM      7  C   LIG    1       25.931 -16.369  20.050  0.00  0.00    +0.004 A 
ATOM      8  C   LIG    1       24.726 -15.797  19.648  0.00  0.00    +0.030 A 
ATOM      9  C   LIG    1       24.147 -16.183  18.437  0.00  0.00    +0.089 A 
ATOM     10  N   LIG    1       24.742 -17.112  17.634  0.00  0.00    -0.253 NA
ATOM     11  C   LIG    1       25.914 -17.646  18.047  0.00  0.00    +0.111 A 
ATOM     12  C   LIG    1       26.540 -17.311  19.235  0.00  0.00    +0.020 A 
ENDBRANCH   1   9
BRANCH   3  13
ATOM     13  C   LIG    1       19.330 -16.568  18.410  0.00  0.00    +0.089 A 
ATOM     14  N   LIG    1       18.141 -15.904  18.409  0.00  0.00    -0.253 NA
ATOM     15  C   LIG    1       17.039 -16.561  18.827  0.00  0.00    +0.111 A 
ATOM     16  C   LIG    1       17.045 -17.871  19.267  0.00  0.00    +0.020 A 
ATOM     17  C   LIG    1       18.255 -18.551  19.273  0.00  0.00    +0.004 A 
ATOM     18  C   LIG    1       19.408 -17.897  18.838  0.00  0.00    +0.030 A 
ENDBRANCH   3  13
TORSDOF 2
ENDMDL
MODEL 7
REMARK VINA RESULT:      -8.4      3.930      9.097
REMARK  Name = 
REMARK                            x       y       z     vdW  Elec       q    Type
REMARK                         _______ _______ _______ _____ _____    ______ ____
ROOT
ATOM      1  C   LIG    1       19.396 -16.453  18.491  0.00  0.00    +0.090 A 
ATOM      2  N   LIG    1       18.196 -15.816  18.399  0.00  0.00    -0.244 NA
ATOM      3  C   LIG    1       17.050 -16.489  18.694  0.00  0.00    +0.090 A 
ATOM      4  C   LIG    1       17.084 -17.825  19.093  0.00  0.00    +0.030 A 
ATOM      5  C   LIG    1       18.308 -18.482  19.177  0.00  0.00    +0.004 A 
ATOM      6  C   LIG    1       19.474 -17.791  18.870  0.00  0.00    +0.030 A 
ENDROOT
BRANCH   1   9
ATOM      7  C   LIG    1       21.796 -14.030  16.843  0.00  0.00    +0.004 A 
ATOM      8  C   LIG    1       20.640 -14.769  17.090  0.00  0.00    +0.030 A 
ATOM      9  C   LIG    1       20.600 -15.648  18.174  0.00  0.00    +0.089 A 
ATOM     10  N   LIG    1       21.676 -15.801  19.000  0.00  0.00    -0.253 NA
ATOM     11  C   LIG    1       22.785 -15.075  18.733  0.00  0.00    +0.111 A 
ATOM     12  C   LIG    1       22.891 -14.185  17.679  0.00  0.00    +0.020 A 
ENDBRANCH   1   9
BRANCH   3  13
ATOM     13  C   LIG    1       15.784 -15.726  18.557  0.00  0.00    +0.089 A 
ATOM     14  N   LIG    1       14.633 -16.398  18.838  0.00  0.00    -0.253 NA
ATOM     15  C   LIG    1       13.461 -15.735  18.733  0.00  0.00    +0.111 A 
ATOM     16  C   LIG    1       13.357 -14.413  18.346  0.00  0.00    +0.020 A 
ATOM     17  C   LIG    1       14.527 -13.725  18.056  0.00  0.00    +0.004 A 
ATOM     18  C   LIG    1       15.752 -14.384  18.165  0.00  0.00    +0.030 A 
ENDBRANCH   3  13
TORSDOF 2
ENDMDL
MODEL 8
REMARK VINA RESULT:      -8.4      3.930      6.983
REMARK  Name = 
REMARK                            x       y       z     vdW  Elec       q    Type
REMARK                         _______ _______ _______ _____ _____    ______ ____
ROOT
ATOM      1  C   LIG    1       17.048 -16.452  18.716  0.00  0.00    +0.090 A 
ATOM      2  N   LIG    1       18.196 -15.780  18.429  0.00  0.00    -0.244 NA
ATOM      3  C   LIG    1       19.391 -16.431  18.485  0.00  0.00    +0.090 A 
ATOM      4  C   LIG    1       19.458 -17.780  18.832  0.00  0.00    +0.030 A 
ATOM      5  C   LIG    1       18.288 -18.466  19.137  0.00  0.00    +0.004 A 
ATOM      6  C   LIG    1       17.072 -17.795  19.083  0.00  0.00    +0.030 A 
ENDROOT
BRANCH   1   9
ATOM      7  C   LIG    1       14.536 -13.698  18.045  0.00  0.00    +0.004 A 
ATOM      8  C   LIG    1       15.753 -14.372  18.129  0.00  0.00    +0.030 A 
ATOM      9  C   LIG    1       15.785 -15.682  18.613  0.00  0.00    +0.089 A 
ATOM     10  N   LIG    1       14.644 -16.318  19.008  0.00  0.00    -0.253 NA
ATOM     11  C   LIG    1       13.479 -15.637  18.920  0.00  0.00    +0.111 A 
ATOM     12  C   LIG    1       13.375 -14.340  18.449  0.00  0.00    +0.020 A 
ENDBRANCH   1   9
BRANCH   3  13
ATOM     13  C   LIG    1       20.596 -15.623  18.169  0.00  0.00    +0.089 A 
ATOM     14  N   LIG    1       21.667 -15.776  18.996  0.00  0.00    -0.253 NA
ATOM     15  C   LIG    1       22.785 -15.064  18.737  0.00  0.00    +0.111 A 
ATOM     16  C   LIG    1       22.906 -14.179  17.682  0.00  0.00    +0.020 A 
ATOM     17  C   LIG    1       21.816 -14.019  16.839  0.00  0.00    +0.004 A 
ATOM     18  C   LIG    1       20.652 -14.748  17.079  0.00  0.00    +0.030 A 
ENDBRANCH   3  13
TORSDOF 2
ENDMDL
MODEL 9
REMARK VINA RESULT:      -8.4      1.591      6.393
REMARK  Name = 
REMARK                            x       y       z     vdW  Elec       q    Type
REMARK                         _______ _______ _______ _____ _____    ______ ____
ROOT
ATOM      1  C   LIG    1       24.714 -15.395  17.839  0.00  0.00    +0.090 A 
ATOM      2  N   LIG    1       23.383 -15.374  18.121  0.00  0.00    -0.244 NA
ATOM      3  C   LIG    1       22.527 -16.146  17.397  0.00  0.00    +0.090 A 
ATOM      4  C   LIG    1       22.993 -16.963  16.368  0.00  0.00    +0.030 A 
ATOM      5  C   LIG    1       24.351 -16.979  16.069  0.00  0.00    +0.004 A 
ATOM      6  C   LIG    1       25.220 -16.185  16.809  0.00  0.00    +0.030 A 
ENDROOT
BRANCH   1   9
ATOM      7  C   LIG    1       26.576 -13.943  20.801  0.00  0.00    +0.004 A 
ATOM      8  C   LIG    1       25.736 -14.769  20.055  0.00  0.00    +0.030 A 
ATOM      9  C   LIG    1       25.586 -14.545  18.684  0.00  0.00    +0.089 A 
ATOM     10  N   LIG    1       26.247 -13.529  18.058  0.00  0.00    -0.253 NA
ATOM     11  C   LIG    1       27.051 -12.741  18.808  0.00  0.00    +0.111 A 
ATOM     12  C   LIG    1       27.246 -12.907  20.167  0.00  0.00    +0.020 A 
ENDBRANCH   1   9
BRANCH   3  13
ATOM     13  C   LIG    1       21.090 -16.055  17.761  0.00  0.00    +0.089 A 
ATOM     14  N   LIG    1       20.550 -17.138  18.386  0.00  0.00    -0.253 NA
ATOM     15  C   LIG    1       19.248 -17.090  18.740  0.00  0.00    +0.111 A 
ATOM     16  C   LIG    1       18.423 -16.008  18.498  0.00  0.00    +0.020 A 
ATOM     17  C   LIG    1       18.970 -14.904  17.860  0.00  0.00    +0.004 A 
ATOM     18  C   LIG    1       20.314 -14.923  17.491  0.00  0.00    +0.030 A 
ENDBRANCH   3  13
TORSDOF 2
ENDMDL
