MODEL 1
REMARK VINA RESULT:      -8.3      0.000      0.000
REMARK  Name = 
REMARK                            x       y       z     vdW  Elec       q    Type
REMARK                         _______ _______ _______ _____ _____    ______ ____
ROOT
ATOM      1  C   LIG    1       14.860   0.886  -4.988  0.00  0.00    +0.090 A 
ATOM      2  N   LIG    1       14.737   0.854  -6.344  0.00  0.00    -0.244 NA
ATOM      3  C   LIG    1       15.699   0.250  -7.095  0.00  0.00    +0.090 A 
ATOM      4  C   LIG    1       16.811  -0.341  -6.497  0.00  0.00    +0.030 A 
ATOM      5  C   LIG    1       16.945  -0.300  -5.113  0.00  0.00    +0.004 A 
ATOM      6  C   LIG    1       15.963   0.322  -4.352  0.00  0.00    +0.030 A 
ENDROOT
BRANCH   1   9
ATOM      7  C   LIG    1       11.450   1.747  -3.584  0.00  0.00    +0.004 A 
ATOM      8  C   LIG    1       12.441   1.098  -4.319  0.00  0.00    +0.030 A 
ATOM      9  C   LIG    1       13.763   1.542  -4.238  0.00  0.00    +0.089 A 
ATOM     10  N   LIG    1       14.105   2.603  -3.452  0.00  0.00    -0.253 NA
ATOM     11  C   LIG    1       13.122   3.216  -2.755  0.00  0.00    +0.111 A 
ATOM     12  C   LIG    1       11.794   2.828  -2.787  0.00  0.00    +0.020 A 
ENDBRANCH   1   9
BRANCH   3  13
ATOM     13  C   LIG    1       15.495   0.270  -8.566  0.00  0.00    +0.089 A 
ATOM     14  N   LIG    1       14.333  -0.270  -9.027  0.00  0.00    -0.253 NA
ATOM     15  C   LIG    1       14.108  -0.264 -10.358  0.00  0.00    +0.111 A 
ATOM     16  C   LIG    1       14.992   0.253 -11.286  0.00  0.00    +0.020 A 
ATOM     17  C   LIG    1       16.178   0.802 -10.820  0.00  0.00    +0.004 A 
ATOM     18  C   LIG    1       16.432   0.815  -9.449  0.00  0.00    +0.030 A 
ENDBRANCH   3  13
TORSDOF 2
ENDMDL
MODEL 2
REMARK VINA RESULT:      -8.3      0.082      6.257
REMARK  Name = 
REMARK                            x       y       z     vdW  Elec       q    Type
REMARK                         _______ _______ _______ _____ _____    ______ ____
ROOT
ATOM      1  C   LIG    1       15.653   0.254  -7.078  0.00  0.00    +0.090 A 
ATOM      2  N   LIG    1       14.672   0.832  -6.332  0.00  0.00    -0.244 NA
ATOM      3  C   LIG    1       14.788   0.867  -4.976  0.00  0.00    +0.090 A 
ATOM      4  C   LIG    1       15.899   0.322  -4.335  0.00  0.00    +0.030 A 
ATOM      5  C   LIG    1       16.899  -0.279  -5.094  0.00  0.00    +0.004 A 
ATOM      6  C   LIG    1       16.773  -0.317  -6.477  0.00  0.00    +0.030 A 
ENDROOT
BRANCH   1   9
ATOM      7  C   LIG    1       16.192   0.815 -10.785  0.00  0.00    +0.004 A 
ATOM      8  C   LIG    1       16.414   0.833  -9.409  0.00  0.00    +0.030 A 
ATOM      9  C   LIG    1       15.467   0.272  -8.548  0.00  0.00    +0.089 A 
ATOM     10  N   LIG    1       14.323  -0.294  -9.030  0.00  0.00    -0.253 NA
ATOM     11  C   LIG    1       14.132  -0.292 -10.369  0.00  0.00    +0.111 A 
ATOM     12  C   LIG    1       15.028   0.243 -11.277  0.00  0.00    +0.020 A 
ENDBRANCH   1   9
BRANCH   3  13
ATOM     13  C   LIG    1       13.668   1.505  -4.236  0.00  0.00    +0.089 A 
ATOM     14  N   LIG    1       13.982   2.583  -3.466  0.00  0.00    -0.253 NA
ATOM     15  C   LIG    1       12.990   3.194  -2.784  0.00  0.00    +0.111 A 
ATOM     16  C   LIG    1       11.670   2.786  -2.814  0.00  0.00    +0.020 A 
ATOM     17  C   LIG    1       11.347   1.686  -3.596  0.00  0.00    +0.004 A 
ATOM     18  C   LIG    1       12.351   1.041  -4.317  0.00  0.00    +0.030 A 
ENDBRANCH   3  13
TORSDOF 2
ENDMDL
MODEL 3
REMARK VINA RESULT:      -7.9      1.572      2.360
REMARK  Name = 
REMARK                            x       y       z     vdW  Elec       q    Type
REMARK                         _______ _______ _______ _____ _____    ______ ____
ROOT
ATOM      1  C   LIG    1       13.149   1.787  -4.168  0.00  0.00    +0.090 A 
ATOM      2  N   LIG    1       13.435   1.363  -5.430  0.00  0.00    -0.244 NA
ATOM      3  C   LIG    1       14.698   0.959  -5.736  0.00  0.00    +0.090 A 
ATOM      4  C   LIG    1       15.708   0.968  -4.776  0.00  0.00    +0.030 A 
ATOM      5  C   LIG    1       15.423   1.411  -3.488  0.00  0.00    +0.004 A 
ATOM      6  C   LIG    1       14.133   1.827  -3.182  0.00  0.00    +0.030 A 
ENDROOT
BRANCH   1   9
ATOM      7  C   LIG    1        9.971   2.897  -2.433  0.00  0.00    +0.004 A 
ATOM      8  C   LIG    1       11.298   2.514  -2.622  0.00  0.00    +0.030 A 
ATOM      9  C   LIG    1       11.748   2.191  -3.905  0.00  0.00    +0.089 A 
ATOM     10  N   LIG    1       10.910   2.241  -4.980  0.00  0.00    -0.253 NA
ATOM     11  C   LIG    1        9.627   2.611  -4.766  0.00  0.00    +0.111 A 
ATOM     12  C   LIG    1        9.117   2.946  -3.524  0.00  0.00    +0.020 A 
ENDBRANCH   1   9
BRANCH   3  13
ATOM     13  C   LIG    1       14.928   0.524  -7.138  0.00  0.00    +0.089 A 
ATOM     14  N   LIG    1       13.823   0.384  -7.922  0.00  0.00    -0.253 NA
ATOM     15  C   LIG    1       13.992  -0.002  -9.205  0.00  0.00    +0.111 A 
ATOM     16  C   LIG    1       15.223  -0.274  -9.771  0.00  0.00    +0.020 A 
ATOM     17  C   LIG    1       16.351  -0.135  -8.974  0.00  0.00    +0.004 A 
ATOM     18  C   LIG    1       16.205   0.270  -7.648  0.00  0.00    +0.030 A 
ENDBRANCH   3  13
TORSDOF 2
ENDMDL
MODEL 4
REMARK VINA RESULT:      -7.9      1.584      6.332
REMARK  Name = 
REMARK                            x       y       z     vdW  Elec       q    Type
REMARK                         _______ _______ _______ _____ _____    ______ ____
ROOT
ATOM      1  C   LIG    1       14.709   0.988  -5.631  0.00  0.00    +0.090 A 
ATOM      2  N   LIG    1       13.440   1.371  -5.321  0.00  0.00    -0.244 NA
ATOM      3  C   LIG    1       13.154   1.799  -4.061  0.00  0.00    +0.090 A 
ATOM      4  C   LIG    1       14.142   1.854  -3.079  0.00  0.00    +0.030 A 
ATOM      5  C   LIG    1       15.437   1.453  -3.390  0.00  0.00    +0.004 A 
ATOM      6  C   LIG    1       15.723   1.012  -4.676  0.00  0.00    +0.030 A 
ENDROOT
BRANCH   1   9
ATOM      7  C   LIG    1       16.402  -0.095  -8.842  0.00  0.00    +0.004 A 
ATOM      8  C   LIG    1       16.235   0.320  -7.522  0.00  0.00    +0.030 A 
ATOM      9  C   LIG    1       14.949   0.554  -7.028  0.00  0.00    +0.089 A 
ATOM     10  N   LIG    1       13.848   0.385  -7.817  0.00  0.00    -0.253 NA
ATOM     11  C   LIG    1       14.041  -0.014  -9.095  0.00  0.00    +0.111 A 
ATOM     12  C   LIG    1       15.285  -0.265  -9.646  0.00  0.00    +0.020 A 
ENDBRANCH   1   9
BRANCH   3  13
ATOM     13  C   LIG    1       11.743   2.186  -3.802  0.00  0.00    +0.089 A 
ATOM     14  N   LIG    1       10.951   2.366  -4.895  0.00  0.00    -0.253 NA
ATOM     15  C   LIG    1        9.660   2.712  -4.701  0.00  0.00    +0.111 A 
ATOM     16  C   LIG    1        9.093   2.903  -3.455  0.00  0.00    +0.020 A 
ATOM     17  C   LIG    1        9.899   2.722  -2.339  0.00  0.00    +0.004 A 
ATOM     18  C   LIG    1       11.233   2.358  -2.512  0.00  0.00    +0.030 A 
ENDBRANCH   3  13
TORSDOF 2
ENDMDL
MODEL 5
REMARK VINA RESULT:      -7.3      8.787      9.979
REMARK  Name = 
REMARK                            x       y       z     vdW  Elec       q    Type
REMARK                         _______ _______ _______ _____ _____    ______ ____
ROOT
ATOM      1  C   LIG    1        9.889   6.494  -9.778  0.00  0.00    +0.090 A 
ATOM      2  N   LIG    1       10.124   7.229 -10.900  0.00  0.00    -0.244 NA
ATOM      3  C   LIG    1       10.144   8.588 -10.824  0.00  0.00    +0.090 A 
ATOM      4  C   LIG    1        9.930   9.243  -9.612  0.00  0.00    +0.030 A 
ATOM      5  C   LIG    1        9.678   8.496  -8.466  0.00  0.00    +0.004 A 
ATOM      6  C   LIG    1        9.654   7.109  -8.551  0.00  0.00    +0.030 A 
ENDROOT
BRANCH   1   9
ATOM      7  C   LIG    1       10.467   3.008 -11.142  0.00  0.00    +0.004 A 
ATOM      8  C   LIG    1       10.474   4.399 -11.049  0.00  0.00    +0.030 A 
ATOM      9  C   LIG    1        9.903   5.020  -9.936  0.00  0.00    +0.089 A 
ATOM     10  N   LIG    1        9.335   4.290  -8.933  0.00  0.00    -0.253 NA
ATOM     11  C   LIG    1        9.339   2.943  -9.052  0.00  0.00    +0.111 A 
ATOM     12  C   LIG    1        9.888   2.263 -10.125  0.00  0.00    +0.020 A 
ENDBRANCH   1   9
BRANCH   3  13
ATOM     13  C   LIG    1       10.395   9.315 -12.095  0.00  0.00    +0.089 A 
ATOM     14  N   LIG    1       11.501   8.948 -12.799  0.00  0.00    -0.253 NA
ATOM     15  C   LIG    1       11.759   9.580 -13.963  0.00  0.00    +0.111 A 
ATOM     16  C   LIG    1       10.969  10.587 -14.484  0.00  0.00    +0.020 A 
ATOM     17  C   LIG    1        9.841  10.965 -13.769  0.00  0.00    +0.004 A 
ATOM     18  C   LIG    1        9.548  10.323 -12.566  0.00  0.00    +0.030 A 
ENDBRANCH   3  13
TORSDOF 2
ENDMDL
MODEL 6
REMARK VINA RESULT:      -7.3      8.768     10.306
REMARK  Name = 
REMARK                            x       y       z     vdW  Elec       q    Type
REMARK                         _______ _______ _______ _____ _____    ______ ____
ROOT
ATOM      1  C   LIG    1       10.131   8.552 -10.834  0.00  0.00    +0.090 A 
ATOM      2  N   LIG    1       10.128   7.192 -10.899  0.00  0.00    -0.244 NA
ATOM      3  C   LIG    1        9.880   6.464  -9.776  0.00  0.00    +0.090 A 
ATOM      4  C   LIG    1        9.626   7.089  -8.556  0.00  0.00    +0.030 A 
ATOM      5  C   LIG    1        9.639   8.478  -8.484  0.00  0.00    +0.004 A 
ATOM      6  C   LIG    1        9.898   9.217  -9.632  0.00  0.00    +0.030 A 
ENDROOT
BRANCH   1   9
ATOM      7  C   LIG    1        9.844  10.952 -13.749  0.00  0.00    +0.004 A 
ATOM      8  C   LIG    1        9.551  10.299 -12.554  0.00  0.00    +0.030 A 
ATOM      9  C   LIG    1       10.388   9.276 -12.102  0.00  0.00    +0.089 A 
ATOM     10  N   LIG    1       11.493   8.902 -12.811  0.00  0.00    -0.253 NA
ATOM     11  C   LIG    1       11.750   9.551 -13.969  0.00  0.00    +0.111 A 
ATOM     12  C   LIG    1       10.965  10.572 -14.474  0.00  0.00    +0.020 A 
ENDBRANCH   1   9
BRANCH   3  13
ATOM     13  C   LIG    1        9.908   4.987  -9.930  0.00  0.00    +0.089 A 
ATOM     14  N   LIG    1        9.341   4.259  -8.928  0.00  0.00    -0.253 NA
ATOM     15  C   LIG    1        9.339   2.913  -9.035  0.00  0.00    +0.111 A 
ATOM     16  C   LIG    1        9.887   2.225 -10.101  0.00  0.00    +0.020 A 
ATOM     17  C   LIG    1       10.468   2.963 -11.123  0.00  0.00    +0.004 A 
ATOM     18  C   LIG    1       10.476   4.355 -11.040  0.00  0.00    +0.030 A 
ENDBRANCH   3  13
TORSDOF 2
ENDMDL
MODEL 7
REMARK VINA RESULT:      -7.1     13.498     15.434
REMARK  Name = 
REMARK                            x       y       z     vdW  Elec       q    Type
REMARK                         _______ _______ _______ _____ _____    ______ ____
ROOT
ATOM      1  C   LIG    1        3.546   8.735  -3.271  0.00  0.00    +0.090 A 
ATOM      2  N   LIG    1        3.935   9.771  -2.478  0.00  0.00    -0.244 NA
ATOM      3  C   LIG    1        4.071  11.016  -3.013  0.00  0.00    +0.090 A 
ATOM      4  C   LIG    1        3.815  11.250  -4.363  0.00  0.00    +0.030 A 
ATOM      5  C   LIG    1        3.429  10.191  -5.179  0.00  0.00    +0.004 A 
ATOM      6  C   LIG    1        3.297   8.921  -4.629  0.00  0.00    +0.030 A 
ENDROOT
BRANCH   1   9
ATOM      7  C   LIG    1        2.531   5.166  -2.513  0.00  0.00    +0.004 A 
ATOM      8  C   LIG    1        2.627   6.392  -3.169  0.00  0.00    +0.030 A 
ATOM      9  C   LIG    1        3.400   7.414  -2.614  0.00  0.00    +0.089 A 
ATOM     10  N   LIG    1        4.065   7.237  -1.436  0.00  0.00    -0.253 NA
ATOM     11  C   LIG    1        3.950   6.039  -0.819  0.00  0.00    +0.111 A 
ATOM     12  C   LIG    1        3.203   4.984  -1.313  0.00  0.00    +0.020 A 
ENDBRANCH   1   9
BRANCH   3  13
ATOM     13  C   LIG    1        4.510  12.087  -2.082  0.00  0.00    +0.089 A 
ATOM     14  N   LIG    1        4.157  13.361  -2.409  0.00  0.00    -0.253 NA
ATOM     15  C   LIG    1        4.531  14.362  -1.584  0.00  0.00    +0.111 A 
ATOM     16  C   LIG    1        5.262  14.172  -0.426  0.00  0.00    +0.020 A 
ATOM     17  C   LIG    1        5.626  12.876  -0.091  0.00  0.00    +0.004 A 
ATOM     18  C   LIG    1        5.245  11.823  -0.922  0.00  0.00    +0.030 A 
ENDBRANCH   3  13
TORSDOF 2
ENDMDL
MODEL 8
REMARK VINA RESULT:      -7.1     12.170     14.604
REMARK  Name = 
REMARK                            x       y       z     vdW  Elec       q    Type
REMARK                         _______ _______ _______ _____ _____    ______ ____
ROOT
ATOM      1  C   LIG    1        4.197  10.270  -2.718  0.00  0.00    +0.090 A 
ATOM      2  N   LIG    1        4.357   9.112  -2.022  0.00  0.00    -0.244 NA
ATOM      3  C   LIG    1        4.051   7.923  -2.610  0.00  0.00    +0.090 A 
ATOM      4  C   LIG    1        3.577   7.870  -3.920  0.00  0.00    +0.030 A 
ATOM      5  C   LIG    1        3.402   9.053  -4.631  0.00  0.00    +0.004 A 
ATOM      6  C   LIG    1        3.711  10.264  -4.024  0.00  0.00    +0.030 A 
ENDROOT
BRANCH   1   9
ATOM      7  C   LIG    1        4.560  13.924  -1.791  0.00  0.00    +0.004 A 
ATOM      8  C   LIG    1        4.188  12.779  -2.493  0.00  0.00    +0.030 A 
ATOM      9  C   LIG    1        4.570  11.522  -2.019  0.00  0.00    +0.089 A 
ATOM     10  N   LIG    1        5.305  11.393  -0.876  0.00  0.00    -0.253 NA
ATOM     11  C   LIG    1        5.656  12.521  -0.218  0.00  0.00    +0.111 A 
ATOM     12  C   LIG    1        5.309  13.795  -0.631  0.00  0.00    +0.020 A 
ENDBRANCH   1   9
BRANCH   3  13
ATOM     13  C   LIG    1        4.243   6.708  -1.778  0.00  0.00    +0.089 A 
ATOM     14  N   LIG    1        3.248   6.410  -0.896  0.00  0.00    -0.253 NA
ATOM     15  C   LIG    1        3.382   5.308  -0.127  0.00  0.00    +0.111 A 
ATOM     16  C   LIG    1        4.476   4.465  -0.174  0.00  0.00    +0.020 A 
ATOM     17  C   LIG    1        5.492   4.766  -1.069  0.00  0.00    +0.004 A 
ATOM     18  C   LIG    1        5.375   5.894  -1.881  0.00  0.00    +0.030 A 
ENDBRANCH   3  13
TORSDOF 2
ENDMDL
MODEL 9
REMARK VINA RESULT:      -7.0     12.323     14.272
REMARK  Name = 
REMARK                            x       y       z     vdW  Elec       q    Type
REMARK                         _______ _______ _______ _____ _____    ______ ____
ROOT
ATOM      1  C   LIG    1        3.328   9.571  -1.720  0.00  0.00    +0.090 A 
ATOM      2  N   LIG    1        4.047   9.417  -2.866  0.00  0.00    -0.244 NA
ATOM      3  C   LIG    1        4.636  10.499  -3.444  0.00  0.00    +0.090 A 
ATOM      4  C   LIG    1        4.518  11.768  -2.879  0.00  0.00    +0.030 A 
ATOM      5  C   LIG    1        3.776  11.931  -1.714  0.00  0.00    +0.004 A 
ATOM      6  C   LIG    1        3.172  10.824  -1.131  0.00  0.00    +0.030 A 
ENDROOT
BRANCH   1   9
ATOM      7  C   LIG    1        1.744   7.108   0.681  0.00  0.00    +0.004 A 
ATOM      8  C   LIG    1        2.303   8.286   0.189  0.00  0.00    +0.030 A 
ATOM      9  C   LIG    1        2.734   8.344  -1.139  0.00  0.00    +0.089 A 
ATOM     10  N   LIG    1        2.619   7.265  -1.966  0.00  0.00    -0.253 NA
ATOM     11  C   LIG    1        2.077   6.134  -1.459  0.00  0.00    +0.111 A 
ATOM     12  C   LIG    1        1.628   6.009  -0.157  0.00  0.00    +0.020 A 
ENDBRANCH   1   9
BRANCH   3  13
ATOM     13  C   LIG    1        5.391  10.247  -4.698  0.00  0.00    +0.089 A 
ATOM     14  N   LIG    1        5.184   9.044  -5.302  0.00  0.00    -0.253 NA
ATOM     15  C   LIG    1        5.847   8.780  -6.449  0.00  0.00    +0.111 A 
ATOM     16  C   LIG    1        6.732   9.657  -7.046  0.00  0.00    +0.020 A 
ATOM     17  C   LIG    1        6.946  10.883  -6.432  0.00  0.00    +0.004 A 
ATOM     18  C   LIG    1        6.269  11.184  -5.251  0.00  0.00    +0.030 A 
ENDBRANCH   3  13
TORSDOF 2
ENDMDL
