MODEL 1
REMARK VINA RESULT:      -7.3      0.000      0.000
REMARK  Name = 
REMARK                            x       y       z     vdW  Elec       q    Type
REMARK                         _______ _______ _______ _____ _____    ______ ____
ROOT
ATOM      1  C   LIG    1        0.546  32.668   5.744  0.00  0.00    +0.090 A 
ATOM      2  N   LIG    1        1.666  31.930   5.511  0.00  0.00    -0.244 NA
ATOM      3  C   LIG    1        1.704  30.623   5.890  0.00  0.00    +0.090 A 
ATOM      4  C   LIG    1        0.611  30.024   6.515  0.00  0.00    +0.030 A 
ATOM      5  C   LIG    1       -0.531  30.779   6.765  0.00  0.00    +0.004 A 
ATOM      6  C   LIG    1       -0.562  32.113   6.380  0.00  0.00    +0.030 A 
ENDROOT
BRANCH   1   9
ATOM      7  C   LIG    1        1.626  36.237   5.084  0.00  0.00    +0.004 A 
ATOM      8  C   LIG    1        1.650  34.924   5.549  0.00  0.00    +0.030 A 
ATOM      9  C   LIG    1        0.572  34.076   5.284  0.00  0.00    +0.089 A 
ATOM     10  N   LIG    1       -0.512  34.512   4.577  0.00  0.00    -0.253 NA
ATOM     11  C   LIG    1       -0.510  35.793   4.143  0.00  0.00    +0.111 A 
ATOM     12  C   LIG    1        0.525  36.683   4.368  0.00  0.00    +0.020 A 
ENDBRANCH   1   9
BRANCH   3  13
ATOM     13  C   LIG    1        2.967  29.892   5.610  0.00  0.00    +0.089 A 
ATOM     14  N   LIG    1        2.911  28.533   5.673  0.00  0.00    -0.253 NA
ATOM     15  C   LIG    1        4.037  27.833   5.416  0.00  0.00    +0.111 A 
ATOM     16  C   LIG    1        5.250  28.415   5.100  0.00  0.00    +0.020 A 
ATOM     17  C   LIG    1        5.311  29.800   5.038  0.00  0.00    +0.004 A 
ATOM     18  C   LIG    1        4.160  30.546   5.290  0.00  0.00    +0.030 A 
ENDBRANCH   3  13
TORSDOF 2
ENDMDL
MODEL 2
REMARK VINA RESULT:      -7.3      0.146      6.153
REMARK  Name = 
REMARK                            x       y       z     vdW  Elec       q    Type
REMARK                         _______ _______ _______ _____ _____    ______ ____
ROOT
ATOM      1  C   LIG    1        1.615  30.574   5.881  0.00  0.00    +0.090 A 
ATOM      2  N   LIG    1        1.627  31.882   5.502  0.00  0.00    -0.244 NA
ATOM      3  C   LIG    1        0.540  32.664   5.744  0.00  0.00    +0.090 A 
ATOM      4  C   LIG    1       -0.590  32.148   6.377  0.00  0.00    +0.030 A 
ATOM      5  C   LIG    1       -0.610  30.810   6.756  0.00  0.00    +0.004 A 
ATOM      6  C   LIG    1        0.501  30.014   6.502  0.00  0.00    +0.030 A 
ENDROOT
BRANCH   1   9
ATOM      7  C   LIG    1        5.192  29.621   5.081  0.00  0.00    +0.004 A 
ATOM      8  C   LIG    1        4.067  30.406   5.326  0.00  0.00    +0.030 A 
ATOM      9  C   LIG    1        2.843  29.792   5.604  0.00  0.00    +0.089 A 
ATOM     10  N   LIG    1        2.727  28.432   5.638  0.00  0.00    -0.253 NA
ATOM     11  C   LIG    1        3.834  27.697   5.391  0.00  0.00    +0.111 A 
ATOM     12  C   LIG    1        5.076  28.239   5.112  0.00  0.00    +0.020 A 
ENDBRANCH   1   9
BRANCH   3  13
ATOM     13  C   LIG    1        0.629  34.075   5.289  0.00  0.00    +0.089 A 
ATOM     14  N   LIG    1       -0.425  34.552   4.570  0.00  0.00    -0.253 NA
ATOM     15  C   LIG    1       -0.384  35.833   4.145  0.00  0.00    +0.111 A 
ATOM     16  C   LIG    1        0.671  36.691   4.388  0.00  0.00    +0.020 A 
ATOM     17  C   LIG    1        1.748  36.208   5.118  0.00  0.00    +0.004 A 
ATOM     18  C   LIG    1        1.728  34.891   5.576  0.00  0.00    +0.030 A 
ENDBRANCH   3  13
TORSDOF 2
ENDMDL
MODEL 3
REMARK VINA RESULT:      -7.0     11.995     12.603
REMARK  Name = 
REMARK                            x       y       z     vdW  Elec       q    Type
REMARK                         _______ _______ _______ _____ _____    ______ ____
ROOT
ATOM      1  C   LIG    1        2.943  21.266  10.407  0.00  0.00    +0.090 A 
ATOM      2  N   LIG    1        3.561  20.811   9.282  0.00  0.00    -0.244 NA
ATOM      3  C   LIG    1        2.814  20.377   8.230  0.00  0.00    +0.090 A 
ATOM      4  C   LIG    1        1.421  20.392   8.283  0.00  0.00    +0.030 A 
ATOM      5  C   LIG    1        0.786  20.846   9.435  0.00  0.00    +0.004 A 
ATOM      6  C   LIG    1        1.554  21.283  10.508  0.00  0.00    +0.030 A 
ENDROOT
BRANCH   1   9
ATOM      7  C   LIG    1        4.591  21.707  13.788  0.00  0.00    +0.004 A 
ATOM      8  C   LIG    1        3.733  21.230  12.799  0.00  0.00    +0.030 A 
ATOM      9  C   LIG    1        3.822  21.741  11.502  0.00  0.00    +0.089 A 
ATOM     10  N   LIG    1        4.736  22.703  11.183  0.00  0.00    -0.253 NA
ATOM     11  C   LIG    1        5.551  23.150  12.164  0.00  0.00    +0.111 A 
ATOM     12  C   LIG    1        5.518  22.687  13.468  0.00  0.00    +0.020 A 
ENDBRANCH   1   9
BRANCH   3  13
ATOM     13  C   LIG    1        3.566  19.886   7.047  0.00  0.00    +0.089 A 
ATOM     14  N   LIG    1        4.830  19.433   7.273  0.00  0.00    -0.253 NA
ATOM     15  C   LIG    1        5.543  18.971   6.224  0.00  0.00    +0.111 A 
ATOM     16  C   LIG    1        5.069  18.938   4.926  0.00  0.00    +0.020 A 
ATOM     17  C   LIG    1        3.782  19.401   4.691  0.00  0.00    +0.004 A 
ATOM     18  C   LIG    1        3.022  19.876   5.759  0.00  0.00    +0.030 A 
ENDBRANCH   3  13
TORSDOF 2
ENDMDL
MODEL 4
REMARK VINA RESULT:      -6.9      1.740      2.923
REMARK  Name = 
REMARK                            x       y       z     vdW  Elec       q    Type
REMARK                         _______ _______ _______ _____ _____    ______ ____
ROOT
ATOM      1  C   LIG    1        2.210  33.301   4.397  0.00  0.00    +0.090 A 
ATOM      2  N   LIG    1        1.791  32.031   4.650  0.00  0.00    -0.244 NA
ATOM      3  C   LIG    1        2.707  31.032   4.782  0.00  0.00    +0.090 A 
ATOM      4  C   LIG    1        4.072  31.289   4.664  0.00  0.00    +0.030 A 
ATOM      5  C   LIG    1        4.503  32.584   4.395  0.00  0.00    +0.004 A 
ATOM      6  C   LIG    1        3.563  33.599   4.256  0.00  0.00    +0.030 A 
ENDROOT
BRANCH   1   9
ATOM      7  C   LIG    1        0.395  36.625   4.386  0.00  0.00    +0.004 A 
ATOM      8  C   LIG    1        1.422  35.691   4.511  0.00  0.00    +0.030 A 
ATOM      9  C   LIG    1        1.156  34.338   4.288  0.00  0.00    +0.089 A 
ATOM     10  N   LIG    1       -0.095  33.910   3.950  0.00  0.00    -0.253 NA
ATOM     11  C   LIG    1       -1.072  34.838   3.841  0.00  0.00    +0.111 A 
ATOM     12  C   LIG    1       -0.878  36.193   4.045  0.00  0.00    +0.020 A 
ENDBRANCH   1   9
BRANCH   3  13
ATOM     13  C   LIG    1        2.166  29.674   5.044  0.00  0.00    +0.089 A 
ATOM     14  N   LIG    1        0.894  29.607   5.525  0.00  0.00    -0.253 NA
ATOM     15  C   LIG    1        0.364  28.389   5.769  0.00  0.00    +0.111 A 
ATOM     16  C   LIG    1        1.040  27.201   5.567  0.00  0.00    +0.020 A 
ATOM     17  C   LIG    1        2.337  27.265   5.078  0.00  0.00    +0.004 A 
ATOM     18  C   LIG    1        2.906  28.510   4.811  0.00  0.00    +0.030 A 
ENDBRANCH   3  13
TORSDOF 2
ENDMDL
MODEL 5
REMARK VINA RESULT:      -6.9      1.747      6.565
REMARK  Name = 
REMARK                            x       y       z     vdW  Elec       q    Type
REMARK                         _______ _______ _______ _____ _____    ______ ____
ROOT
ATOM      1  C   LIG    1        2.689  31.020   4.776  0.00  0.00    +0.090 A 
ATOM      2  N   LIG    1        1.781  32.026   4.646  0.00  0.00    -0.244 NA
ATOM      3  C   LIG    1        2.208  33.291   4.382  0.00  0.00    +0.090 A 
ATOM      4  C   LIG    1        3.566  33.576   4.240  0.00  0.00    +0.030 A 
ATOM      5  C   LIG    1        4.497  32.553   4.383  0.00  0.00    +0.004 A 
ATOM      6  C   LIG    1        4.055  31.264   4.658  0.00  0.00    +0.030 A 
ENDROOT
BRANCH   1   9
ATOM      7  C   LIG    1        2.350  27.264   5.117  0.00  0.00    +0.004 A 
ATOM      8  C   LIG    1        2.907  28.512   4.843  0.00  0.00    +0.030 A 
ATOM      9  C   LIG    1        2.147  29.667   5.042  0.00  0.00    +0.089 A 
ATOM     10  N   LIG    1        0.864  29.598   5.501  0.00  0.00    -0.253 NA
ATOM     11  C   LIG    1        0.348  28.373   5.754  0.00  0.00    +0.111 A 
ATOM     12  C   LIG    1        1.045  27.190   5.581  0.00  0.00    +0.020 A 
ENDBRANCH   1   9
BRANCH   3  13
ATOM     13  C   LIG    1        1.154  34.332   4.267  0.00  0.00    +0.089 A 
ATOM     14  N   LIG    1       -0.095  33.900   3.941  0.00  0.00    -0.253 NA
ATOM     15  C   LIG    1       -1.083  34.815   3.835  0.00  0.00    +0.111 A 
ATOM     16  C   LIG    1       -0.900  36.171   4.030  0.00  0.00    +0.020 A 
ATOM     17  C   LIG    1        0.373  36.615   4.361  0.00  0.00    +0.004 A 
ATOM     18  C   LIG    1        1.409  35.689   4.485  0.00  0.00    +0.030 A 
ENDBRANCH   3  13
TORSDOF 2
ENDMDL
MODEL 6
REMARK VINA RESULT:      -4.5     11.630     12.532
REMARK  Name = 
REMARK                            x       y       z     vdW  Elec       q    Type
REMARK                         _______ _______ _______ _____ _____    ______ ____
ROOT
ATOM      1  C   LIG    1        2.922  21.330  10.414  0.00  0.00    +0.090 A 
ATOM      2  N   LIG    1        3.933  20.889   9.615  0.00  0.00    -0.244 NA
ATOM      3  C   LIG    1        3.641  20.276   8.435  0.00  0.00    +0.090 A 
ATOM      4  C   LIG    1        2.320  20.093   8.027  0.00  0.00    +0.030 A 
ATOM      5  C   LIG    1        1.285  20.532   8.847  0.00  0.00    +0.004 A 
ATOM      6  C   LIG    1        1.589  21.152  10.052  0.00  0.00    +0.030 A 
ENDROOT
BRANCH   1   9
ATOM      7  C   LIG    1        4.308  23.838  12.890  0.00  0.00    +0.004 A 
ATOM      8  C   LIG    1        3.966  23.243  11.677  0.00  0.00    +0.030 A 
ATOM      9  C   LIG    1        3.318  22.006  11.672  0.00  0.00    +0.089 A 
ATOM     10  N   LIG    1        3.012  21.364  12.837  0.00  0.00    -0.253 NA
ATOM     11  C   LIG    1        3.360  21.963  13.999  0.00  0.00    +0.111 A 
ATOM     12  C   LIG    1        4.001  23.187  14.075  0.00  0.00    +0.020 A 
ENDBRANCH   1   9
BRANCH   3  13
ATOM     13  C   LIG    1        4.800  19.815   7.629  0.00  0.00    +0.089 A 
ATOM     14  N   LIG    1        4.533  19.393   6.362  0.00  0.00    -0.253 NA
ATOM     15  C   LIG    1        5.562  18.973   5.595  0.00  0.00    +0.111 A 
ATOM     16  C   LIG    1        6.875  18.938   6.022  0.00  0.00    +0.020 A 
ATOM     17  C   LIG    1        7.152  19.365   7.313  0.00  0.00    +0.004 A 
ATOM     18  C   LIG    1        6.108  19.811   8.123  0.00  0.00    +0.030 A 
ENDBRANCH   3  13
TORSDOF 2
ENDMDL
