MODEL 1
REMARK VINA RESULT:      -7.4      0.000      0.000
REMARK  Name = 
REMARK                            x       y       z     vdW  Elec       q    Type
REMARK                         _______ _______ _______ _____ _____    ______ ____
ROOT
ATOM      1  C   LIG    1      -45.177  12.588 -44.775  0.00  0.00    +0.090 A 
ATOM      2  N   LIG    1      -45.903  12.151 -43.710  0.00  0.00    -0.244 NA
ATOM      3  C   LIG    1      -47.013  11.390 -43.915  0.00  0.00    +0.090 A 
ATOM      4  C   LIG    1      -47.421  11.048 -45.204  0.00  0.00    +0.030 A 
ATOM      5  C   LIG    1      -46.687  11.502 -46.296  0.00  0.00    +0.004 A 
ATOM      6  C   LIG    1      -45.558  12.282 -46.080  0.00  0.00    +0.030 A 
ENDROOT
BRANCH   1   9
ATOM      7  C   LIG    1      -42.000  13.875 -43.166  0.00  0.00    +0.004 A 
ATOM      8  C   LIG    1      -43.127  13.089 -43.401  0.00  0.00    +0.030 A 
ATOM      9  C   LIG    1      -43.971  13.393 -44.472  0.00  0.00    +0.089 A 
ATOM     10  N   LIG    1      -43.714  14.451 -45.295  0.00  0.00    -0.253 NA
ATOM     11  C   LIG    1      -42.616  15.198 -45.040  0.00  0.00    +0.111 A 
ATOM     12  C   LIG    1      -41.738  14.952 -43.999  0.00  0.00    +0.020 A 
ENDBRANCH   1   9
BRANCH   3  13
ATOM     13  C   LIG    1      -47.755  10.965 -42.700  0.00  0.00    +0.089 A 
ATOM     14  N   LIG    1      -47.490   9.714 -42.232  0.00  0.00    -0.253 NA
ATOM     15  C   LIG    1      -48.139   9.295 -41.124  0.00  0.00    +0.111 A 
ATOM     16  C   LIG    1      -49.065  10.058 -40.439  0.00  0.00    +0.020 A 
ATOM     17  C   LIG    1      -49.338  11.332 -40.914  0.00  0.00    +0.004 A 
ATOM     18  C   LIG    1      -48.676  11.793 -42.052  0.00  0.00    +0.030 A 
ENDBRANCH   3  13
TORSDOF 2
ENDMDL
MODEL 2
REMARK VINA RESULT:      -7.3      0.875      6.251
REMARK  Name = 
REMARK                            x       y       z     vdW  Elec       q    Type
REMARK                         _______ _______ _______ _____ _____    ______ ____
ROOT
ATOM      1  C   LIG    1      -47.168  11.029 -43.152  0.00  0.00    +0.090 A 
ATOM      2  N   LIG    1      -46.057  11.813 -43.212  0.00  0.00    -0.244 NA
ATOM      3  C   LIG    1      -45.569  12.200 -44.423  0.00  0.00    +0.090 A 
ATOM      4  C   LIG    1      -46.192  11.810 -45.607  0.00  0.00    +0.030 A 
ATOM      5  C   LIG    1      -47.322  11.000 -45.550  0.00  0.00    +0.004 A 
ATOM      6  C   LIG    1      -47.813  10.603 -44.312  0.00  0.00    +0.030 A 
ENDROOT
BRANCH   1   9
ATOM      7  C   LIG    1      -49.313  10.687 -40.049  0.00  0.00    +0.004 A 
ATOM      8  C   LIG    1      -48.904  11.065 -41.327  0.00  0.00    +0.030 A 
ATOM      9  C   LIG    1      -47.652  10.665 -41.799  0.00  0.00    +0.089 A 
ATOM     10  N   LIG    1      -46.816   9.910 -41.030  0.00  0.00    -0.253 NA
ATOM     11  C   LIG    1      -47.236   9.562 -39.793  0.00  0.00    +0.111 A 
ATOM     12  C   LIG    1      -48.463   9.922 -39.264  0.00  0.00    +0.020 A 
ENDBRANCH   1   9
BRANCH   3  13
ATOM     13  C   LIG    1      -44.346  13.043 -44.400  0.00  0.00    +0.089 A 
ATOM     14  N   LIG    1      -44.255  14.010 -45.354  0.00  0.00    -0.253 NA
ATOM     15  C   LIG    1      -43.161  14.802 -45.362  0.00  0.00    +0.111 A 
ATOM     16  C   LIG    1      -42.120  14.686 -44.461  0.00  0.00    +0.020 A 
ATOM     17  C   LIG    1      -42.209  13.700 -43.488  0.00  0.00    +0.004 A 
ATOM     18  C   LIG    1      -43.331  12.873 -43.453  0.00  0.00    +0.030 A 
ENDBRANCH   3  13
TORSDOF 2
ENDMDL
MODEL 3
REMARK VINA RESULT:      -7.2      5.219      6.433
REMARK  Name = 
REMARK                            x       y       z     vdW  Elec       q    Type
REMARK                         _______ _______ _______ _____ _____    ______ ____
ROOT
ATOM      1  C   LIG    1      -47.412   7.183 -44.533  0.00  0.00    +0.090 A 
ATOM      2  N   LIG    1      -47.794   7.955 -43.479  0.00  0.00    -0.244 NA
ATOM      3  C   LIG    1      -47.157   7.827 -42.282  0.00  0.00    +0.090 A 
ATOM      4  C   LIG    1      -46.114   6.916 -42.118  0.00  0.00    +0.030 A 
ATOM      5  C   LIG    1      -45.729   6.118 -43.190  0.00  0.00    +0.004 A 
ATOM      6  C   LIG    1      -46.386   6.249 -44.407  0.00  0.00    +0.030 A 
ENDROOT
BRANCH   1   9
ATOM      7  C   LIG    1      -50.144   7.379 -47.149  0.00  0.00    +0.004 A 
ATOM      8  C   LIG    1      -49.510   7.156 -45.928  0.00  0.00    +0.030 A 
ATOM      9  C   LIG    1      -48.138   7.393 -45.808  0.00  0.00    +0.089 A 
ATOM     10  N   LIG    1      -47.404   7.841 -46.867  0.00  0.00    -0.253 NA
ATOM     11  C   LIG    1      -48.045   8.044 -48.040  0.00  0.00    +0.111 A 
ATOM     12  C   LIG    1      -49.399   7.831 -48.228  0.00  0.00    +0.020 A 
ENDBRANCH   1   9
BRANCH   3  13
ATOM     13  C   LIG    1      -47.643   8.698 -41.181  0.00  0.00    +0.089 A 
ATOM     14  N   LIG    1      -47.311   8.321 -39.915  0.00  0.00    -0.253 NA
ATOM     15  C   LIG    1      -47.727   9.092 -38.888  0.00  0.00    +0.111 A 
ATOM     16  C   LIG    1      -48.480  10.240 -39.043  0.00  0.00    +0.020 A 
ATOM     17  C   LIG    1      -48.822  10.625 -40.331  0.00  0.00    +0.004 A 
ATOM     18  C   LIG    1      -48.398   9.852 -41.411  0.00  0.00    +0.030 A 
ENDBRANCH   3  13
TORSDOF 2
ENDMDL
MODEL 4
REMARK VINA RESULT:      -7.1      1.676      2.080
REMARK  Name = 
REMARK                            x       y       z     vdW  Elec       q    Type
REMARK                         _______ _______ _______ _____ _____    ______ ____
ROOT
ATOM      1  C   LIG    1      -43.926  11.878 -43.607  0.00  0.00    +0.090 A 
ATOM      2  N   LIG    1      -45.125  11.951 -42.965  0.00  0.00    -0.244 NA
ATOM      3  C   LIG    1      -45.817  10.809 -42.699  0.00  0.00    +0.090 A 
ATOM      4  C   LIG    1      -45.318   9.562 -43.072  0.00  0.00    +0.030 A 
ATOM      5  C   LIG    1      -44.099   9.486 -43.738  0.00  0.00    +0.004 A 
ATOM      6  C   LIG    1      -43.398  10.655 -44.011  0.00  0.00    +0.030 A 
ENDROOT
BRANCH   1   9
ATOM      7  C   LIG    1      -41.600  14.846 -43.246  0.00  0.00    +0.004 A 
ATOM      8  C   LIG    1      -42.238  13.637 -42.972  0.00  0.00    +0.030 A 
ATOM      9  C   LIG    1      -43.221  13.161 -43.842  0.00  0.00    +0.089 A 
ATOM     10  N   LIG    1      -43.573  13.859 -44.961  0.00  0.00    -0.253 NA
ATOM     11  C   LIG    1      -42.941  15.031 -45.199  0.00  0.00    +0.111 A 
ATOM     12  C   LIG    1      -41.958  15.559 -44.381  0.00  0.00    +0.020 A 
ENDBRANCH   1   9
BRANCH   3  13
ATOM     13  C   LIG    1      -47.121  10.976 -42.006  0.00  0.00    +0.089 A 
ATOM     14  N   LIG    1      -47.883  12.037 -42.391  0.00  0.00    -0.253 NA
ATOM     15  C   LIG    1      -49.079  12.219 -41.790  0.00  0.00    +0.111 A 
ATOM     16  C   LIG    1      -49.575  11.394 -40.799  0.00  0.00    +0.020 A 
ATOM     17  C   LIG    1      -48.800  10.313 -40.403  0.00  0.00    +0.004 A 
ATOM     18  C   LIG    1      -47.564  10.098 -41.013  0.00  0.00    +0.030 A 
ENDBRANCH   3  13
TORSDOF 2
ENDMDL
MODEL 5
REMARK VINA RESULT:      -7.1      1.625      6.502
REMARK  Name = 
REMARK                            x       y       z     vdW  Elec       q    Type
REMARK                         _______ _______ _______ _____ _____    ______ ____
ROOT
ATOM      1  C   LIG    1      -45.604  10.981 -42.830  0.00  0.00    +0.090 A 
ATOM      2  N   LIG    1      -44.894  12.121 -43.053  0.00  0.00    -0.244 NA
ATOM      3  C   LIG    1      -43.695  12.054 -43.695  0.00  0.00    +0.090 A 
ATOM      4  C   LIG    1      -43.181  10.834 -44.132  0.00  0.00    +0.030 A 
ATOM      5  C   LIG    1      -43.900   9.666 -43.896  0.00  0.00    +0.004 A 
ATOM      6  C   LIG    1      -45.120   9.740 -43.236  0.00  0.00    +0.030 A 
ENDROOT
BRANCH   1   9
ATOM      7  C   LIG    1      -49.082  12.155 -41.898  0.00  0.00    +0.004 A 
ATOM      8  C   LIG    1      -47.868  12.058 -42.574  0.00  0.00    +0.030 A 
ATOM      9  C   LIG    1      -46.909  11.136 -42.145  0.00  0.00    +0.089 A 
ATOM     10  N   LIG    1      -47.139  10.327 -41.070  0.00  0.00    -0.253 NA
ATOM     11  C   LIG    1      -48.324  10.448 -40.430  0.00  0.00    +0.111 A 
ATOM     12  C   LIG    1      -49.317  11.337 -40.803  0.00  0.00    +0.020 A 
ENDBRANCH   1   9
BRANCH   3  13
ATOM     13  C   LIG    1      -42.979  13.341 -43.887  0.00  0.00    +0.089 A 
ATOM     14  N   LIG    1      -43.278  14.043 -45.015  0.00  0.00    -0.253 NA
ATOM     15  C   LIG    1      -42.653  15.222 -45.222  0.00  0.00    +0.111 A 
ATOM     16  C   LIG    1      -41.718  15.759 -44.358  0.00  0.00    +0.020 A 
ATOM     17  C   LIG    1      -41.408  15.045 -43.209  0.00  0.00    +0.004 A 
ATOM     18  C   LIG    1      -42.045  13.829 -42.967  0.00  0.00    +0.030 A 
ENDBRANCH   3  13
TORSDOF 2
ENDMDL
MODEL 6
REMARK VINA RESULT:      -7.1      5.343      6.972
REMARK  Name = 
REMARK                            x       y       z     vdW  Elec       q    Type
REMARK                         _______ _______ _______ _____ _____    ______ ____
ROOT
ATOM      1  C   LIG    1      -47.080   7.619 -42.434  0.00  0.00    +0.090 A 
ATOM      2  N   LIG    1      -47.831   7.750 -43.562  0.00  0.00    -0.244 NA
ATOM      3  C   LIG    1      -47.534   7.001 -44.660  0.00  0.00    +0.090 A 
ATOM      4  C   LIG    1      -46.472   6.099 -44.649  0.00  0.00    +0.030 A 
ATOM      5  C   LIG    1      -45.696   5.971 -43.501  0.00  0.00    +0.004 A 
ATOM      6  C   LIG    1      -46.000   6.741 -42.385  0.00  0.00    +0.030 A 
ENDROOT
BRANCH   1   9
ATOM      7  C   LIG    1      -48.625  10.331 -40.288  0.00  0.00    +0.004 A 
ATOM      8  C   LIG    1      -48.274   9.590 -41.415  0.00  0.00    +0.030 A 
ATOM      9  C   LIG    1      -47.477   8.451 -41.273  0.00  0.00    +0.089 A 
ATOM     10  N   LIG    1      -47.030   8.050 -40.048  0.00  0.00    -0.253 NA
ATOM     11  C   LIG    1      -47.382   8.791 -38.973  0.00  0.00    +0.111 A 
ATOM     12  C   LIG    1      -48.170   9.926 -39.041  0.00  0.00    +0.020 A 
ENDBRANCH   1   9
BRANCH   3  13
ATOM     13  C   LIG    1      -48.394   7.213 -45.853  0.00  0.00    +0.089 A 
ATOM     14  N   LIG    1      -47.786   7.720 -46.961  0.00  0.00    -0.253 NA
ATOM     15  C   LIG    1      -48.532   7.919 -48.068  0.00  0.00    +0.111 A 
ATOM     16  C   LIG    1      -49.885   7.646 -48.143  0.00  0.00    +0.020 A 
ATOM     17  C   LIG    1      -50.509   7.131 -47.016  0.00  0.00    +0.004 A 
ATOM     18  C   LIG    1      -49.759   6.909 -45.861  0.00  0.00    +0.030 A 
ENDBRANCH   3  13
TORSDOF 2
ENDMDL
MODEL 7
REMARK VINA RESULT:      -6.9      5.868      9.092
REMARK  Name = 
REMARK                            x       y       z     vdW  Elec       q    Type
REMARK                         _______ _______ _______ _____ _____    ______ ____
ROOT
ATOM      1  C   LIG    1      -39.990  16.515 -45.183  0.00  0.00    +0.090 A 
ATOM      2  N   LIG    1      -40.873  17.538 -45.017  0.00  0.00    -0.244 NA
ATOM      3  C   LIG    1      -40.536  18.793 -45.424  0.00  0.00    +0.090 A 
ATOM      4  C   LIG    1      -39.298  19.049 -46.013  0.00  0.00    +0.030 A 
ATOM      5  C   LIG    1      -38.390  18.007 -46.174  0.00  0.00    +0.004 A 
ATOM      6  C   LIG    1      -38.737  16.730 -45.751  0.00  0.00    +0.030 A 
ENDROOT
BRANCH   1   9
ATOM      7  C   LIG    1      -41.658  13.719 -43.248  0.00  0.00    +0.004 A 
ATOM      8  C   LIG    1      -41.262  15.002 -43.620  0.00  0.00    +0.030 A 
ATOM      9  C   LIG    1      -40.437  15.175 -44.734  0.00  0.00    +0.089 A 
ATOM     10  N   LIG    1      -40.008  14.107 -45.468  0.00  0.00    -0.253 NA
ATOM     11  C   LIG    1      -40.405  12.873 -45.080  0.00  0.00    +0.111 A 
ATOM     12  C   LIG    1      -41.222  12.632 -43.990  0.00  0.00    +0.020 A 
ENDBRANCH   1   9
BRANCH   3  13
ATOM     13  C   LIG    1      -41.550  19.854 -45.196  0.00  0.00    +0.089 A 
ATOM     14  N   LIG    1      -42.808  19.603 -45.653  0.00  0.00    -0.253 NA
ATOM     15  C   LIG    1      -43.760  20.540 -45.457  0.00  0.00    +0.111 A 
ATOM     16  C   LIG    1      -43.532  21.748 -44.826  0.00  0.00    +0.020 A 
ATOM     17  C   LIG    1      -42.251  22.009 -44.361  0.00  0.00    +0.004 A 
ATOM     18  C   LIG    1      -41.251  21.054 -44.543  0.00  0.00    +0.030 A 
ENDBRANCH   3  13
TORSDOF 2
ENDMDL
MODEL 8
REMARK VINA RESULT:      -6.6      3.216      3.632
REMARK  Name = 
REMARK                            x       y       z     vdW  Elec       q    Type
REMARK                         _______ _______ _______ _____ _____    ______ ____
ROOT
ATOM      1  C   LIG    1      -44.416  11.350 -45.251  0.00  0.00    +0.090 A 
ATOM      2  N   LIG    1      -44.595  10.065 -44.838  0.00  0.00    -0.244 NA
ATOM      3  C   LIG    1      -45.611   9.324 -45.360  0.00  0.00    +0.090 A 
ATOM      4  C   LIG    1      -46.473   9.858 -46.316  0.00  0.00    +0.030 A 
ATOM      5  C   LIG    1      -46.299  11.174 -46.733  0.00  0.00    +0.004 A 
ATOM      6  C   LIG    1      -45.264  11.928 -46.193  0.00  0.00    +0.030 A 
ENDROOT
BRANCH   1   9
ATOM      7  C   LIG    1      -40.928  12.613 -44.486  0.00  0.00    +0.004 A 
ATOM      8  C   LIG    1      -41.961  11.886 -45.077  0.00  0.00    +0.030 A 
ATOM      9  C   LIG    1      -43.277  12.086 -44.654  0.00  0.00    +0.089 A 
ATOM     10  N   LIG    1      -43.573  12.982 -43.668  0.00  0.00    -0.253 NA
ATOM     11  C   LIG    1      -42.551  13.669 -43.110  0.00  0.00    +0.111 A 
ATOM     12  C   LIG    1      -41.227  13.522 -43.482  0.00  0.00    +0.020 A 
ENDBRANCH   1   9
BRANCH   3  13
ATOM     13  C   LIG    1      -45.744   7.936 -44.846  0.00  0.00    +0.089 A 
ATOM     14  N   LIG    1      -44.939   7.592 -43.803  0.00  0.00    -0.253 NA
ATOM     15  C   LIG    1      -45.037   6.342 -43.303  0.00  0.00    +0.111 A 
ATOM     16  C   LIG    1      -45.902   5.382 -43.793  0.00  0.00    +0.020 A 
ATOM     17  C   LIG    1      -46.722   5.728 -44.858  0.00  0.00    +0.004 A 
ATOM     18  C   LIG    1      -46.647   7.016 -45.388  0.00  0.00    +0.030 A 
ENDBRANCH   3  13
TORSDOF 2
ENDMDL
MODEL 9
REMARK VINA RESULT:      -6.5      4.126      5.465
REMARK  Name = 
REMARK                            x       y       z     vdW  Elec       q    Type
REMARK                         _______ _______ _______ _____ _____    ______ ____
ROOT
ATOM      1  C   LIG    1      -45.788   7.928 -43.722  0.00  0.00    +0.090 A 
ATOM      2  N   LIG    1      -46.974   7.943 -44.391  0.00  0.00    -0.244 NA
ATOM      3  C   LIG    1      -47.580   6.768 -44.716  0.00  0.00    +0.090 A 
ATOM      4  C   LIG    1      -47.007   5.545 -44.372  0.00  0.00    +0.030 A 
ATOM      5  C   LIG    1      -45.790   5.526 -43.698  0.00  0.00    +0.004 A 
ATOM      6  C   LIG    1      -45.173   6.728 -43.373  0.00  0.00    +0.030 A 
ENDROOT
BRANCH   1   9
ATOM      7  C   LIG    1      -43.571  10.998 -43.697  0.00  0.00    +0.004 A 
ATOM      8  C   LIG    1      -44.078   9.748 -44.048  0.00  0.00    +0.030 A 
ATOM      9  C   LIG    1      -45.200   9.246 -43.385  0.00  0.00    +0.089 A 
ATOM     10  N   LIG    1      -45.811   9.957 -42.393  0.00  0.00    -0.253 NA
ATOM     11  C   LIG    1      -45.294  11.164 -42.070  0.00  0.00    +0.111 A 
ATOM     12  C   LIG    1      -44.188  11.721 -42.687  0.00  0.00    +0.020 A 
ENDBRANCH   1   9
BRANCH   3  13
ATOM     13  C   LIG    1      -48.864   6.873 -45.456  0.00  0.00    +0.089 A 
ATOM     14  N   LIG    1      -49.686   5.788 -45.407  0.00  0.00    -0.253 NA
ATOM     15  C   LIG    1      -50.866   5.847 -46.060  0.00  0.00    +0.111 A 
ATOM     16  C   LIG    1      -51.288   6.944 -46.787  0.00  0.00    +0.020 A 
ATOM     17  C   LIG    1      -50.453   8.050 -46.842  0.00  0.00    +0.004 A 
ATOM     18  C   LIG    1      -49.232   8.018 -46.168  0.00  0.00    +0.030 A 
ENDBRANCH   3  13
TORSDOF 2
ENDMDL
