MODEL 1
REMARK VINA RESULT:      -7.3      0.000      0.000
REMARK  Name = 
REMARK                            x       y       z     vdW  Elec       q    Type
REMARK                         _______ _______ _______ _____ _____    ______ ____
ROOT
ATOM      1  C   LIG    1       25.479 -28.646 -10.103  0.00  0.00    +0.090 A 
ATOM      2  N   LIG    1       25.266 -27.516 -10.831  0.00  0.00    -0.244 NA
ATOM      3  C   LIG    1       26.173 -26.501 -10.785  0.00  0.00    +0.090 A 
ATOM      4  C   LIG    1       27.322 -26.601 -10.002  0.00  0.00    +0.030 A 
ATOM      5  C   LIG    1       27.538 -27.750  -9.247  0.00  0.00    +0.004 A 
ATOM      6  C   LIG    1       26.606 -28.780  -9.295  0.00  0.00    +0.030 A 
ENDROOT
BRANCH   1   9
ATOM      7  C   LIG    1       22.396 -30.607 -11.097  0.00  0.00    +0.004 A 
ATOM      8  C   LIG    1       23.319 -29.566 -11.015  0.00  0.00    +0.030 A 
ATOM      9  C   LIG    1       24.459 -29.714 -10.221  0.00  0.00    +0.089 A 
ATOM     10  N   LIG    1       24.687 -30.863  -9.520  0.00  0.00    -0.253 NA
ATOM     11  C   LIG    1       23.772 -31.854  -9.615  0.00  0.00    +0.111 A 
ATOM     12  C   LIG    1       22.624 -31.774 -10.383  0.00  0.00    +0.020 A 
ENDBRANCH   1   9
BRANCH   3  13
ATOM     13  C   LIG    1       25.859 -25.299 -11.599  0.00  0.00    +0.089 A 
ATOM     14  N   LIG    1       24.622 -24.755 -11.430  0.00  0.00    -0.253 NA
ATOM     15  C   LIG    1       24.302 -23.657 -12.147  0.00  0.00    +0.111 A 
ATOM     16  C   LIG    1       25.154 -23.053 -13.053  0.00  0.00    +0.020 A 
ATOM     17  C   LIG    1       26.414 -23.606 -13.229  0.00  0.00    +0.004 A 
ATOM     18  C   LIG    1       26.773 -24.736 -12.494  0.00  0.00    +0.030 A 
ENDBRANCH   3  13
TORSDOF 2
ENDMDL
MODEL 2
REMARK VINA RESULT:      -7.3      0.015      6.206
REMARK  Name = 
REMARK                            x       y       z     vdW  Elec       q    Type
REMARK                         _______ _______ _______ _____ _____    ______ ____
ROOT
ATOM      1  C   LIG    1       26.169 -26.497 -10.783  0.00  0.00    +0.090 A 
ATOM      2  N   LIG    1       25.270 -27.518 -10.835  0.00  0.00    -0.244 NA
ATOM      3  C   LIG    1       25.488 -28.646 -10.103  0.00  0.00    +0.090 A 
ATOM      4  C   LIG    1       26.618 -28.773  -9.297  0.00  0.00    +0.030 A 
ATOM      5  C   LIG    1       27.544 -27.735  -9.251  0.00  0.00    +0.004 A 
ATOM      6  C   LIG    1       27.319 -26.588 -10.003  0.00  0.00    +0.030 A 
ENDROOT
BRANCH   1   9
ATOM      7  C   LIG    1       26.417 -23.615 -13.228  0.00  0.00    +0.004 A 
ATOM      8  C   LIG    1       26.769 -24.743 -12.488  0.00  0.00    +0.030 A 
ATOM      9  C   LIG    1       25.853 -25.294 -11.589  0.00  0.00    +0.089 A 
ATOM     10  N   LIG    1       24.615 -24.747 -11.418  0.00  0.00    -0.253 NA
ATOM     11  C   LIG    1       24.303 -23.650 -12.146  0.00  0.00    +0.111 A 
ATOM     12  C   LIG    1       25.160 -23.056 -13.054  0.00  0.00    +0.020 A 
ENDBRANCH   1   9
BRANCH   3  13
ATOM     13  C   LIG    1       24.466 -29.717 -10.226  0.00  0.00    +0.089 A 
ATOM     14  N   LIG    1       24.701 -30.865  -9.532  0.00  0.00    -0.253 NA
ATOM     15  C   LIG    1       23.791 -31.860  -9.612  0.00  0.00    +0.111 A 
ATOM     16  C   LIG    1       22.635 -31.786 -10.365  0.00  0.00    +0.020 A 
ATOM     17  C   LIG    1       22.393 -30.619 -11.075  0.00  0.00    +0.004 A 
ATOM     18  C   LIG    1       23.313 -29.573 -11.003  0.00  0.00    +0.030 A 
ENDBRANCH   3  13
TORSDOF 2
ENDMDL
MODEL 3
REMARK VINA RESULT:      -7.2      1.761      2.902
REMARK  Name = 
REMARK                            x       y       z     vdW  Elec       q    Type
REMARK                         _______ _______ _______ _____ _____    ______ ____
ROOT
ATOM      1  C   LIG    1       23.844 -28.413 -10.785  0.00  0.00    +0.090 A 
ATOM      2  N   LIG    1       24.587 -27.398 -11.307  0.00  0.00    -0.244 NA
ATOM      3  C   LIG    1       23.982 -26.229 -11.653  0.00  0.00    +0.090 A 
ATOM      4  C   LIG    1       22.611 -26.050 -11.480  0.00  0.00    +0.030 A 
ATOM      5  C   LIG    1       21.847 -27.089 -10.957  0.00  0.00    +0.004 A 
ATOM      6  C   LIG    1       22.468 -28.282 -10.610  0.00  0.00    +0.030 A 
ENDROOT
BRANCH   1   9
ATOM      7  C   LIG    1       24.651 -31.932  -9.640  0.00  0.00    +0.004 A 
ATOM      8  C   LIG    1       23.914 -30.796  -9.969  0.00  0.00    +0.030 A 
ATOM      9  C   LIG    1       24.575 -29.647 -10.412  0.00  0.00    +0.089 A 
ATOM     10  N   LIG    1       25.935 -29.615 -10.527  0.00  0.00    -0.253 NA
ATOM     11  C   LIG    1       26.624 -30.731 -10.196  0.00  0.00    +0.111 A 
ATOM     12  C   LIG    1       26.033 -31.901  -9.754  0.00  0.00    +0.020 A 
ENDBRANCH   1   9
BRANCH   3  13
ATOM     13  C   LIG    1       24.862 -25.178 -12.226  0.00  0.00    +0.089 A 
ATOM     14  N   LIG    1       26.116 -25.565 -12.590  0.00  0.00    -0.253 NA
ATOM     15  C   LIG    1       26.943 -24.640 -13.122  0.00  0.00    +0.111 A 
ATOM     16  C   LIG    1       26.595 -23.316 -13.315  0.00  0.00    +0.020 A 
ATOM     17  C   LIG    1       25.319 -22.918 -12.944  0.00  0.00    +0.004 A 
ATOM     18  C   LIG    1       24.442 -23.856 -12.399  0.00  0.00    +0.030 A 
ENDBRANCH   3  13
TORSDOF 2
ENDMDL
MODEL 4
REMARK VINA RESULT:      -7.2      1.764      6.609
REMARK  Name = 
REMARK                            x       y       z     vdW  Elec       q    Type
REMARK                         _______ _______ _______ _____ _____    ______ ____
ROOT
ATOM      1  C   LIG    1       23.997 -26.228 -11.658  0.00  0.00    +0.090 A 
ATOM      2  N   LIG    1       24.594 -27.400 -11.309  0.00  0.00    -0.244 NA
ATOM      3  C   LIG    1       23.845 -28.411 -10.792  0.00  0.00    +0.090 A 
ATOM      4  C   LIG    1       22.469 -28.269 -10.615  0.00  0.00    +0.030 A 
ATOM      5  C   LIG    1       21.857 -27.068 -10.961  0.00  0.00    +0.004 A 
ATOM      6  C   LIG    1       22.628 -26.037 -11.483  0.00  0.00    +0.030 A 
ENDROOT
BRANCH   1   9
ATOM      7  C   LIG    1       25.314 -22.916 -12.939  0.00  0.00    +0.004 A 
ATOM      8  C   LIG    1       24.444 -23.862 -12.401  0.00  0.00    +0.030 A 
ATOM      9  C   LIG    1       24.874 -25.181 -12.234  0.00  0.00    +0.089 A 
ATOM     10  N   LIG    1       26.135 -25.563 -12.590  0.00  0.00    -0.253 NA
ATOM     11  C   LIG    1       26.955 -24.624 -13.115  0.00  0.00    +0.111 A 
ATOM     12  C   LIG    1       26.595 -23.302 -13.305  0.00  0.00    +0.020 A 
ENDBRANCH   1   9
BRANCH   3  13
ATOM     13  C   LIG    1       24.576 -29.652 -10.425  0.00  0.00    +0.089 A 
ATOM     14  N   LIG    1       25.931 -29.620 -10.551  0.00  0.00    -0.253 NA
ATOM     15  C   LIG    1       26.632 -30.725 -10.220  0.00  0.00    +0.111 A 
ATOM     16  C   LIG    1       26.054 -31.896  -9.767  0.00  0.00    +0.020 A 
ATOM     17  C   LIG    1       24.673 -31.933  -9.640  0.00  0.00    +0.004 A 
ATOM     18  C   LIG    1       23.926 -30.802  -9.967  0.00  0.00    +0.030 A 
ENDBRANCH   3  13
TORSDOF 2
ENDMDL
