MODEL 1
REMARK VINA RESULT:      -8.3      0.000      0.000
REMARK  Name = 
REMARK                            x       y       z     vdW  Elec       q    Type
REMARK                         _______ _______ _______ _____ _____    ______ ____
ROOT
ATOM      1  C   LIG    1       17.819  48.552  15.358  0.00  0.00    +0.090 A 
ATOM      2  N   LIG    1       18.887  48.812  14.555  0.00  0.00    -0.244 NA
ATOM      3  C   LIG    1       19.859  49.665  14.980  0.00  0.00    +0.090 A 
ATOM      4  C   LIG    1       19.780  50.280  16.229  0.00  0.00    +0.030 A 
ATOM      5  C   LIG    1       18.684  50.025  17.047  0.00  0.00    +0.004 A 
ATOM      6  C   LIG    1       17.693  49.156  16.607  0.00  0.00    +0.030 A 
ENDROOT
BRANCH   1   9
ATOM      7  C   LIG    1       15.688  45.462  14.853  0.00  0.00    +0.004 A 
ATOM      8  C   LIG    1       16.655  46.318  15.377  0.00  0.00    +0.030 A 
ATOM      9  C   LIG    1       16.813  47.596  14.836  0.00  0.00    +0.089 A 
ATOM     10  N   LIG    1       16.037  48.026  13.800  0.00  0.00    -0.253 NA
ATOM     11  C   LIG    1       15.110  47.173  13.309  0.00  0.00    +0.111 A 
ATOM     12  C   LIG    1       14.899  45.895  13.798  0.00  0.00    +0.020 A 
ENDBRANCH   1   9
BRANCH   3  13
ATOM     13  C   LIG    1       20.983  49.904  14.039  0.00  0.00    +0.089 A 
ATOM     14  N   LIG    1       21.612  48.800  13.549  0.00  0.00    -0.253 NA
ATOM     15  C   LIG    1       22.635  48.975  12.685  0.00  0.00    +0.111 A 
ATOM     16  C   LIG    1       23.089  50.213  12.271  0.00  0.00    +0.020 A 
ATOM     17  C   LIG    1       22.452  51.340  12.770  0.00  0.00    +0.004 A 
ATOM     18  C   LIG    1       21.388  51.187  13.658  0.00  0.00    +0.030 A 
ENDBRANCH   3  13
TORSDOF 2
ENDMDL
MODEL 2
REMARK VINA RESULT:      -8.3      0.033      6.222
REMARK  Name = 
REMARK                            x       y       z     vdW  Elec       q    Type
REMARK                         _______ _______ _______ _____ _____    ______ ____
ROOT
ATOM      1  C   LIG    1       19.880  49.650  14.983  0.00  0.00    +0.090 A 
ATOM      2  N   LIG    1       18.906  48.792  14.574  0.00  0.00    -0.244 NA
ATOM      3  C   LIG    1       17.844  48.539  15.387  0.00  0.00    +0.090 A 
ATOM      4  C   LIG    1       17.735  49.148  16.637  0.00  0.00    +0.030 A 
ATOM      5  C   LIG    1       18.735  50.016  17.063  0.00  0.00    +0.004 A 
ATOM      6  C   LIG    1       19.819  50.267  16.231  0.00  0.00    +0.030 A 
ENDROOT
BRANCH   1   9
ATOM      7  C   LIG    1       22.445  51.350  12.775  0.00  0.00    +0.004 A 
ATOM      8  C   LIG    1       21.385  51.181  13.664  0.00  0.00    +0.030 A 
ATOM      9  C   LIG    1       20.993  49.892  14.035  0.00  0.00    +0.089 A 
ATOM     10  N   LIG    1       21.629  48.791  13.540  0.00  0.00    -0.253 NA
ATOM     11  C   LIG    1       22.651  48.986  12.675  0.00  0.00    +0.111 A 
ATOM     12  C   LIG    1       23.091  50.233  12.268  0.00  0.00    +0.020 A 
ENDBRANCH   1   9
BRANCH   3  13
ATOM     13  C   LIG    1       16.832  47.583  14.870  0.00  0.00    +0.089 A 
ATOM     14  N   LIG    1       16.057  48.014  13.837  0.00  0.00    -0.253 NA
ATOM     15  C   LIG    1       15.131  47.170  13.334  0.00  0.00    +0.111 A 
ATOM     16  C   LIG    1       14.914  45.892  13.812  0.00  0.00    +0.020 A 
ATOM     17  C   LIG    1       15.700  45.449  14.867  0.00  0.00    +0.004 A 
ATOM     18  C   LIG    1       16.670  46.298  15.399  0.00  0.00    +0.030 A 
ENDBRANCH   3  13
TORSDOF 2
ENDMDL
MODEL 3
REMARK VINA RESULT:      -8.2      2.165      3.981
REMARK  Name = 
REMARK                            x       y       z     vdW  Elec       q    Type
REMARK                         _______ _______ _______ _____ _____    ______ ____
ROOT
ATOM      1  C   LIG    1       18.492  48.312  16.472  0.00  0.00    +0.090 A 
ATOM      2  N   LIG    1       19.412  48.957  15.703  0.00  0.00    -0.244 NA
ATOM      3  C   LIG    1       19.955  48.324  14.627  0.00  0.00    +0.090 A 
ATOM      4  C   LIG    1       19.583  47.022  14.296  0.00  0.00    +0.030 A 
ATOM      5  C   LIG    1       18.652  46.356  15.086  0.00  0.00    +0.004 A 
ATOM      6  C   LIG    1       18.104  47.005  16.186  0.00  0.00    +0.030 A 
ENDROOT
BRANCH   1   9
ATOM      7  C   LIG    1       16.889  51.029  18.567  0.00  0.00    +0.004 A 
ATOM      8  C   LIG    1       17.414  50.363  17.462  0.00  0.00    +0.030 A 
ATOM      9  C   LIG    1       17.929  49.073  17.613  0.00  0.00    +0.089 A 
ATOM     10  N   LIG    1       17.930  48.450  18.827  0.00  0.00    -0.253 NA
ATOM     11  C   LIG    1       17.419  49.123  19.883  0.00  0.00    +0.111 A 
ATOM     12  C   LIG    1       16.891  50.400  19.803  0.00  0.00    +0.020 A 
ENDBRANCH   1   9
BRANCH   3  13
ATOM     13  C   LIG    1       20.960  49.094  13.849  0.00  0.00    +0.089 A 
ATOM     14  N   LIG    1       20.865  50.451  13.906  0.00  0.00    -0.253 NA
ATOM     15  C   LIG    1       21.765  51.186  13.218  0.00  0.00    +0.111 A 
ATOM     16  C   LIG    1       22.777  50.641  12.450  0.00  0.00    +0.020 A 
ATOM     17  C   LIG    1       22.875  49.259  12.388  0.00  0.00    +0.004 A 
ATOM     18  C   LIG    1       21.963  48.477  13.096  0.00  0.00    +0.030 A 
ENDBRANCH   3  13
TORSDOF 2
ENDMDL
MODEL 4
REMARK VINA RESULT:      -8.2      2.168      6.228
REMARK  Name = 
REMARK                            x       y       z     vdW  Elec       q    Type
REMARK                         _______ _______ _______ _____ _____    ______ ____
ROOT
ATOM      1  C   LIG    1       19.958  48.346  14.627  0.00  0.00    +0.090 A 
ATOM      2  N   LIG    1       19.400  48.974  15.698  0.00  0.00    -0.244 NA
ATOM      3  C   LIG    1       18.487  48.318  16.466  0.00  0.00    +0.090 A 
ATOM      4  C   LIG    1       18.114  47.006  16.175  0.00  0.00    +0.030 A 
ATOM      5  C   LIG    1       18.675  46.365  15.074  0.00  0.00    +0.004 A 
ATOM      6  C   LIG    1       19.602  47.042  14.291  0.00  0.00    +0.030 A 
ENDROOT
BRANCH   1   9
ATOM      7  C   LIG    1       22.871  49.267  12.389  0.00  0.00    +0.004 A 
ATOM      8  C   LIG    1       21.961  48.493  13.107  0.00  0.00    +0.030 A 
ATOM      9  C   LIG    1       20.958  49.118  13.852  0.00  0.00    +0.089 A 
ATOM     10  N   LIG    1       20.852  50.478  13.893  0.00  0.00    -0.253 NA
ATOM     11  C   LIG    1       21.752  51.203  13.191  0.00  0.00    +0.111 A 
ATOM     12  C   LIG    1       22.767  50.650  12.431  0.00  0.00    +0.020 A 
ENDBRANCH   1   9
BRANCH   3  13
ATOM     13  C   LIG    1       17.918  49.078  17.608  0.00  0.00    +0.089 A 
ATOM     14  N   LIG    1       17.910  48.450  18.816  0.00  0.00    -0.253 NA
ATOM     15  C   LIG    1       17.407  49.112  19.880  0.00  0.00    +0.111 A 
ATOM     16  C   LIG    1       16.891  50.392  19.816  0.00  0.00    +0.020 A 
ATOM     17  C   LIG    1       16.896  51.035  18.586  0.00  0.00    +0.004 A 
ATOM     18  C   LIG    1       17.416  50.377  17.473  0.00  0.00    +0.030 A 
ENDBRANCH   3  13
TORSDOF 2
ENDMDL
MODEL 5
REMARK VINA RESULT:      -6.1      1.918      6.362
REMARK  Name = 
REMARK                            x       y       z     vdW  Elec       q    Type
REMARK                         _______ _______ _______ _____ _____    ______ ____
ROOT
ATOM      1  C   LIG    1       21.118  48.881  15.700  0.00  0.00    +0.090 A 
ATOM      2  N   LIG    1       19.972  48.154  15.588  0.00  0.00    -0.244 NA
ATOM      3  C   LIG    1       19.220  47.906  16.695  0.00  0.00    +0.090 A 
ATOM      4  C   LIG    1       19.603  48.385  17.947  0.00  0.00    +0.030 A 
ATOM      5  C   LIG    1       20.779  49.118  18.067  0.00  0.00    +0.004 A 
ATOM      6  C   LIG    1       21.546  49.365  16.934  0.00  0.00    +0.030 A 
ENDROOT
BRANCH   1   9
ATOM      7  C   LIG    1       22.399  48.646  12.144  0.00  0.00    +0.004 A 
ATOM      8  C   LIG    1       21.668  48.365  13.297  0.00  0.00    +0.030 A 
ATOM      9  C   LIG    1       21.872  49.128  14.448  0.00  0.00    +0.089 A 
ATOM     10  N   LIG    1       22.778  50.148  14.468  0.00  0.00    -0.253 NA
ATOM     11  C   LIG    1       23.477  50.396  13.337  0.00  0.00    +0.111 A 
ATOM     12  C   LIG    1       23.323  49.681  12.162  0.00  0.00    +0.020 A 
ENDBRANCH   1   9
BRANCH   3  13
ATOM     13  C   LIG    1       17.992  47.096  16.488  0.00  0.00    +0.089 A 
ATOM     14  N   LIG    1       17.184  46.926  17.571  0.00  0.00    -0.253 NA
ATOM     15  C   LIG    1       16.054  46.203  17.420  0.00  0.00    +0.111 A 
ATOM     16  C   LIG    1       15.669  45.614  16.231  0.00  0.00    +0.020 A 
ATOM     17  C   LIG    1       16.491  45.783  15.126  0.00  0.00    +0.004 A 
ATOM     18  C   LIG    1       17.660  46.533  15.252  0.00  0.00    +0.030 A 
ENDBRANCH   3  13
TORSDOF 2
ENDMDL
MODEL 6
REMARK VINA RESULT:      -5.9     13.308     15.079
REMARK  Name = 
REMARK                            x       y       z     vdW  Elec       q    Type
REMARK                         _______ _______ _______ _____ _____    ______ ____
ROOT
ATOM      1  C   LIG    1       12.730  47.395  28.286  0.00  0.00    +0.090 A 
ATOM      2  N   LIG    1       12.591  48.498  27.501  0.00  0.00    -0.244 NA
ATOM      3  C   LIG    1       11.495  49.293  27.642  0.00  0.00    +0.090 A 
ATOM      4  C   LIG    1       10.509  48.997  28.583  0.00  0.00    +0.030 A 
ATOM      5  C   LIG    1       10.643  47.864  29.380  0.00  0.00    +0.004 A 
ATOM      6  C   LIG    1       11.762  47.054  29.227  0.00  0.00    +0.030 A 
ENDROOT
BRANCH   1   9
ATOM      7  C   LIG    1       15.486  44.834  28.726  0.00  0.00    +0.004 A 
ATOM      8  C   LIG    1       14.323  45.565  28.964  0.00  0.00    +0.030 A 
ATOM      9  C   LIG    1       13.960  46.591  28.088  0.00  0.00    +0.089 A 
ATOM     10  N   LIG    1       14.724  46.894  27.000  0.00  0.00    -0.253 NA
ATOM     11  C   LIG    1       15.850  46.172  26.797  0.00  0.00    +0.111 A 
ATOM     12  C   LIG    1       16.267  45.143  27.622  0.00  0.00    +0.020 A 
ENDBRANCH   1   9
BRANCH   3  13
ATOM     13  C   LIG    1       11.413  50.470  26.739  0.00  0.00    +0.089 A 
ATOM     14  N   LIG    1       12.542  50.785  26.046  0.00  0.00    -0.253 NA
ATOM     15  C   LIG    1       12.506  51.843  25.208  0.00  0.00    +0.111 A 
ATOM     16  C   LIG    1       11.389  52.635  25.017  0.00  0.00    +0.020 A 
ATOM     17  C   LIG    1       10.238  52.318  25.723  0.00  0.00    +0.004 A 
ATOM     18  C   LIG    1       10.246  51.225  26.589  0.00  0.00    +0.030 A 
ENDBRANCH   3  13
TORSDOF 2
ENDMDL
MODEL 7
REMARK VINA RESULT:      -5.8      1.829      6.273
REMARK  Name = 
REMARK                            x       y       z     vdW  Elec       q    Type
REMARK                         _______ _______ _______ _____ _____    ______ ____
ROOT
ATOM      1  C   LIG    1       19.138  48.280  16.955  0.00  0.00    +0.090 A 
ATOM      2  N   LIG    1       18.362  47.789  15.950  0.00  0.00    -0.244 NA
ATOM      3  C   LIG    1       17.091  47.379  16.218  0.00  0.00    +0.090 A 
ATOM      4  C   LIG    1       16.569  47.455  17.508  0.00  0.00    +0.030 A 
ATOM      5  C   LIG    1       17.363  47.946  18.539  0.00  0.00    +0.004 A 
ATOM      6  C   LIG    1       18.661  48.358  18.261  0.00  0.00    +0.030 A 
ENDROOT
BRANCH   1   9
ATOM      7  C   LIG    1       22.660  49.663  17.116  0.00  0.00    +0.004 A 
ATOM      8  C   LIG    1       21.386  49.268  17.519  0.00  0.00    +0.030 A 
ATOM      9  C   LIG    1       20.502  48.726  16.583  0.00  0.00    +0.089 A 
ATOM     10  N   LIG    1       20.862  48.576  15.275  0.00  0.00    -0.253 NA
ATOM     11  C   LIG    1       22.103  48.973  14.912  0.00  0.00    +0.111 A 
ATOM     12  C   LIG    1       23.028  49.515  15.787  0.00  0.00    +0.020 A 
ENDBRANCH   1   9
BRANCH   3  13
ATOM     13  C   LIG    1       16.316  46.845  15.069  0.00  0.00    +0.089 A 
ATOM     14  N   LIG    1       15.914  47.749  14.133  0.00  0.00    -0.253 NA
ATOM     15  C   LIG    1       15.213  47.302  13.069  0.00  0.00    +0.111 A 
ATOM     16  C   LIG    1       14.871  45.977  12.875  0.00  0.00    +0.020 A 
ATOM     17  C   LIG    1       15.277  45.054  13.828  0.00  0.00    +0.004 A 
ATOM     18  C   LIG    1       16.009  45.488  14.932  0.00  0.00    +0.030 A 
ENDBRANCH   3  13
TORSDOF 2
ENDMDL
MODEL 8
REMARK VINA RESULT:      -5.5     13.261     15.065
REMARK  Name = 
REMARK                            x       y       z     vdW  Elec       q    Type
REMARK                         _______ _______ _______ _____ _____    ______ ____
ROOT
ATOM      1  C   LIG    1       11.843  48.724  27.919  0.00  0.00    +0.090 A 
ATOM      2  N   LIG    1       12.965  47.993  27.674  0.00  0.00    -0.244 NA
ATOM      3  C   LIG    1       13.182  46.838  28.361  0.00  0.00    +0.090 A 
ATOM      4  C   LIG    1       12.269  46.387  29.314  0.00  0.00    +0.030 A 
ATOM      5  C   LIG    1       11.127  47.137  29.575  0.00  0.00    +0.004 A 
ATOM      6  C   LIG    1       10.914  48.318  28.874  0.00  0.00    +0.030 A 
ENDROOT
BRANCH   1   9
ATOM      7  C   LIG    1       12.469  51.643  25.589  0.00  0.00    +0.004 A 
ATOM      8  C   LIG    1       12.693  50.484  26.330  0.00  0.00    +0.030 A 
ATOM      9  C   LIG    1       11.666  49.958  27.118  0.00  0.00    +0.089 A 
ATOM     10  N   LIG    1       10.443  50.561  27.178  0.00  0.00    -0.253 NA
ATOM     11  C   LIG    1       10.257  51.687  26.452  0.00  0.00    +0.111 A 
ATOM     12  C   LIG    1       11.228  52.259  25.651  0.00  0.00    +0.020 A 
ENDBRANCH   1   9
BRANCH   3  13
ATOM     13  C   LIG    1       14.435  46.108  28.042  0.00  0.00    +0.089 A 
ATOM     14  N   LIG    1       14.946  46.290  26.793  0.00  0.00    -0.253 NA
ATOM     15  C   LIG    1       16.089  45.649  26.468  0.00  0.00    +0.111 A 
ATOM     16  C   LIG    1       16.771  44.808  27.327  0.00  0.00    +0.020 A 
ATOM     17  C   LIG    1       16.252  44.618  28.600  0.00  0.00    +0.004 A 
ATOM     18  C   LIG    1       15.077  45.275  28.964  0.00  0.00    +0.030 A 
ENDBRANCH   3  13
TORSDOF 2
ENDMDL
