REMARK  Name = 
REMARK                            x       y       z     vdW  Elec       q    Type
REMARK                         _______ _______ _______ _____ _____    ______ ____
ROOT
ATOM      1  C   LIG    1        2.856   0.258  -0.179  0.00  0.00    +0.090 A 
ATOM      2  N   LIG    1        3.607  -0.857  -0.394  0.00  0.00    -0.244 NA
ATOM      3  C   LIG    1        4.964  -0.758  -0.439  0.00  0.00    +0.090 A 
ATOM      4  C   LIG    1        5.601   0.470  -0.266  0.00  0.00    +0.030 A 
ATOM      5  C   LIG    1        4.836   1.613  -0.057  0.00  0.00    +0.004 A 
ATOM      6  C   LIG    1        3.451   1.507  -0.017  0.00  0.00    +0.030 A 
ENDROOT
BRANCH   1   9
ATOM      7  C   LIG    1       -0.584  -1.322  -0.060  0.00  0.00    +0.004 A 
ATOM      8  C   LIG    1        0.803  -1.201  -0.124  0.00  0.00    +0.030 A 
ATOM      9  C   LIG    1        1.387   0.068  -0.122  0.00  0.00    +0.089 A 
ATOM     10  N   LIG    1        0.623   1.197  -0.060  0.00  0.00    -0.253 NA
ATOM     11  C   LIG    1       -0.720   1.049  -0.004  0.00  0.00    +0.111 A 
ATOM     12  C   LIG    1       -1.363  -0.176  -0.000  0.00  0.00    +0.020 A 
ENDBRANCH   1   9
BRANCH   3  13
ATOM     13  C   LIG    1        5.708  -2.019  -0.690  0.00  0.00    +0.089 A 
ATOM     14  N   LIG    1        5.131  -3.167  -0.239  0.00  0.00    -0.253 NA
ATOM     15  C   LIG    1        5.773  -4.335  -0.455  0.00  0.00    +0.111 A 
ATOM     16  C   LIG    1        6.990  -4.436  -1.102  0.00  0.00    +0.020 A 
ATOM     17  C   LIG    1        7.582  -3.268  -1.561  0.00  0.00    +0.004 A 
ATOM     18  C   LIG    1        6.936  -2.049  -1.358  0.00  0.00    +0.030 A 
ENDBRANCH   3  13
TORSDOF 2
