MODEL 1
REMARK VINA RESULT:      -7.2      0.000      0.000
REMARK  Name = 
REMARK                            x       y       z     vdW  Elec       q    Type
REMARK                         _______ _______ _______ _____ _____    ______ ____
ROOT
ATOM      1  O   LIG    1       -8.112  -1.937  11.587  0.00  0.00    -0.225 OA
ATOM      2  C   LIG    1       -8.188  -3.050  11.091  0.00  0.00    +0.415 C 
ATOM      3  N   LIG    1       -7.741  -4.240  11.593  0.00  0.00    -0.172 N 
ATOM      4  C   LIG    1       -8.097  -5.248  10.732  0.00  0.00    +0.276 C 
ATOM      5  O   LIG    1       -7.833  -6.442  10.792  0.00  0.00    -0.270 OA
ATOM      6  C   LIG    1       -8.919  -4.618   9.622  0.00  0.00    +0.206 C 
ATOM      7  C   LIG    1      -10.382  -5.032   9.772  0.00  0.00    +0.071 C 
ATOM      8  O   LIG    1       -8.811  -3.225   9.889  0.00  0.00    -0.430 OA
ENDROOT
BRANCH   3   9
ATOM      9  C   LIG    1       -7.011  -4.409  12.812  0.00  0.00    +0.050 A 
ATOM     10  C   LIG    1       -7.660  -4.477  14.057  0.00  0.00    +0.044 A 
ATOM     11  C   LIG    1       -6.938  -4.636  15.246  0.00  0.00    +0.044 A 
ATOM     12 CL   LIG    1       -7.775  -4.697  16.750  0.00  0.00    -0.083 Cl
ATOM     13  C   LIG    1       -5.555  -4.738  15.230  0.00  0.00    +0.040 A 
ATOM     14  C   LIG    1       -4.897  -4.678  14.011  0.00  0.00    +0.044 A 
ATOM     15 CL   LIG    1       -3.181  -4.817  13.966  0.00  0.00    -0.083 Cl
ATOM     16  C   LIG    1       -5.609  -4.513  12.817  0.00  0.00    +0.044 A 
ENDBRANCH   3   9
BRANCH   6  17
ATOM     17  C   LIG    1       -8.370  -4.915   8.248  0.00  0.00    +0.022 C 
ATOM     18  C   LIG    1       -8.185  -6.134   7.719  0.00  0.00    +0.008 C 
ENDBRANCH   6  17
TORSDOF 2
ENDMDL
MODEL 2
REMARK VINA RESULT:      -7.2      0.020      2.116
REMARK  Name = 
REMARK                            x       y       z     vdW  Elec       q    Type
REMARK                         _______ _______ _______ _____ _____    ______ ____
ROOT
ATOM      1  O   LIG    1       -8.117  -1.932  11.610  0.00  0.00    -0.225 OA
ATOM      2  C   LIG    1       -8.193  -3.044  11.109  0.00  0.00    +0.415 C 
ATOM      3  N   LIG    1       -7.740  -4.235  11.604  0.00  0.00    -0.172 N 
ATOM      4  C   LIG    1       -8.099  -5.240  10.741  0.00  0.00    +0.276 C 
ATOM      5  O   LIG    1       -7.831  -6.433  10.794  0.00  0.00    -0.270 OA
ATOM      6  C   LIG    1       -8.928  -4.607   9.637  0.00  0.00    +0.206 C 
ATOM      7  C   LIG    1      -10.389  -5.024   9.794  0.00  0.00    +0.071 C 
ATOM      8  O   LIG    1       -8.822  -3.214   9.910  0.00  0.00    -0.430 OA
ENDROOT
BRANCH   3   9
ATOM      9  C   LIG    1       -7.004  -4.406  12.818  0.00  0.00    +0.050 A 
ATOM     10  C   LIG    1       -5.602  -4.501  12.824  0.00  0.00    +0.044 A 
ATOM     11  C   LIG    1       -4.889  -4.676  14.017  0.00  0.00    +0.044 A 
ATOM     12 CL   LIG    1       -3.172  -4.804  13.972  0.00  0.00    -0.083 Cl
ATOM     13  C   LIG    1       -5.548  -4.752  15.234  0.00  0.00    +0.040 A 
ATOM     14  C   LIG    1       -6.931  -4.655  15.250  0.00  0.00    +0.044 A 
ATOM     15 CL   LIG    1       -7.770  -4.734  16.752  0.00  0.00    -0.083 Cl
ATOM     16  C   LIG    1       -7.654  -4.487  14.062  0.00  0.00    +0.044 A 
ENDBRANCH   3   9
BRANCH   6  17
ATOM     17  C   LIG    1       -8.386  -4.896   8.260  0.00  0.00    +0.022 C 
ATOM     18  C   LIG    1       -8.193  -6.113   7.727  0.00  0.00    +0.008 C 
ENDBRANCH   6  17
TORSDOF 2
ENDMDL
MODEL 3
REMARK VINA RESULT:      -6.7      1.057      2.359
REMARK  Name = 
REMARK                            x       y       z     vdW  Elec       q    Type
REMARK                         _______ _______ _______ _____ _____    ______ ____
ROOT
ATOM      1  O   LIG    1       -7.997  -7.771  11.693  0.00  0.00    -0.225 OA
ATOM      2  C   LIG    1       -7.984  -6.714  11.081  0.00  0.00    +0.415 C 
ATOM      3  N   LIG    1       -7.428  -5.522  11.451  0.00  0.00    -0.172 N 
ATOM      4  C   LIG    1       -7.592  -4.619  10.430  0.00  0.00    +0.276 C 
ATOM      5  O   LIG    1       -7.290  -3.433  10.395  0.00  0.00    -0.270 OA
ATOM      6  C   LIG    1       -8.251  -5.360   9.280  0.00  0.00    +0.206 C 
ATOM      7  C   LIG    1       -7.238  -5.555   8.153  0.00  0.00    +0.071 C 
ATOM      8  O   LIG    1       -8.553  -6.631   9.844  0.00  0.00    -0.430 OA
ENDROOT
BRANCH   3   9
ATOM      9  C   LIG    1       -6.788  -5.254  12.702  0.00  0.00    +0.050 A 
ATOM     10  C   LIG    1       -7.527  -5.045  13.879  0.00  0.00    +0.044 A 
ATOM     11  C   LIG    1       -6.892  -4.776  15.099  0.00  0.00    +0.044 A 
ATOM     12 CL   LIG    1       -7.839  -4.509  16.511  0.00  0.00    -0.083 Cl
ATOM     13  C   LIG    1       -5.509  -4.716  15.183  0.00  0.00    +0.040 A 
ATOM     14  C   LIG    1       -4.763  -4.925  14.033  0.00  0.00    +0.044 A 
ATOM     15 CL   LIG    1       -3.044  -4.869  14.116  0.00  0.00    -0.083 Cl
ATOM     16  C   LIG    1       -5.388  -5.188  12.808  0.00  0.00    +0.044 A 
ENDBRANCH   3   9
BRANCH   6  17
ATOM     17  C   LIG    1       -9.523  -4.698   8.811  0.00  0.00    +0.022 C 
ATOM     18  C   LIG    1      -10.694  -4.688   9.465  0.00  0.00    +0.008 C 
ENDBRANCH   6  17
TORSDOF 2
ENDMDL
MODEL 4
REMARK VINA RESULT:      -6.7      1.051      3.171
REMARK  Name = 
REMARK                            x       y       z     vdW  Elec       q    Type
REMARK                         _______ _______ _______ _____ _____    ______ ____
ROOT
ATOM      1  O   LIG    1       -7.872  -7.791  11.649  0.00  0.00    -0.225 OA
ATOM      2  C   LIG    1       -7.897  -6.724  11.056  0.00  0.00    +0.415 C 
ATOM      3  N   LIG    1       -7.384  -5.519  11.447  0.00  0.00    -0.172 N 
ATOM      4  C   LIG    1       -7.581  -4.604  10.442  0.00  0.00    +0.276 C 
ATOM      5  O   LIG    1       -7.321  -3.408  10.428  0.00  0.00    -0.270 OA
ATOM      6  C   LIG    1       -8.214  -5.348   9.279  0.00  0.00    +0.206 C 
ATOM      7  C   LIG    1       -7.196  -5.486   8.148  0.00  0.00    +0.071 C 
ATOM      8  O   LIG    1       -8.470  -6.638   9.820  0.00  0.00    -0.430 OA
ENDROOT
BRANCH   3   9
ATOM      9  C   LIG    1       -6.753  -5.250  12.702  0.00  0.00    +0.050 A 
ATOM     10  C   LIG    1       -5.355  -5.177  12.824  0.00  0.00    +0.044 A 
ATOM     11  C   LIG    1       -4.745  -4.919  14.059  0.00  0.00    +0.044 A 
ATOM     12 CL   LIG    1       -3.028  -4.856  14.163  0.00  0.00    -0.083 Cl
ATOM     13  C   LIG    1       -5.506  -4.721  15.201  0.00  0.00    +0.040 A 
ATOM     14  C   LIG    1       -6.888  -4.784  15.099  0.00  0.00    +0.044 A 
ATOM     15 CL   LIG    1       -7.853  -4.527  16.501  0.00  0.00    -0.083 Cl
ATOM     16  C   LIG    1       -7.507  -5.047  13.871  0.00  0.00    +0.044 A 
ENDBRANCH   3   9
BRANCH   6  17
ATOM     17  C   LIG    1       -9.509  -4.724   8.822  0.00  0.00    +0.022 C 
ATOM     18  C   LIG    1      -10.682  -4.776   9.471  0.00  0.00    +0.008 C 
ENDBRANCH   6  17
TORSDOF 2
ENDMDL
MODEL 5
REMARK VINA RESULT:      -6.6      2.333      3.965
REMARK  Name = 
REMARK                            x       y       z     vdW  Elec       q    Type
REMARK                         _______ _______ _______ _____ _____    ______ ____
ROOT
ATOM      1  O   LIG    1       -9.044  -5.163  12.606  0.00  0.00    -0.225 OA
ATOM      2  C   LIG    1       -8.753  -3.979  12.531  0.00  0.00    +0.415 C 
ATOM      3  N   LIG    1       -7.635  -3.345  12.995  0.00  0.00    -0.172 N 
ATOM      4  C   LIG    1       -7.692  -2.022  12.632  0.00  0.00    +0.276 C 
ATOM      5  O   LIG    1       -6.918  -1.114  12.906  0.00  0.00    -0.270 OA
ATOM      6  C   LIG    1       -8.942  -1.843  11.789  0.00  0.00    +0.206 C 
ATOM      7  C   LIG    1       -8.545  -1.614  10.331  0.00  0.00    +0.071 C 
ATOM      8  O   LIG    1       -9.585  -3.108  11.890  0.00  0.00    -0.430 OA
ENDROOT
BRANCH   3   9
ATOM      9  C   LIG    1       -6.581  -3.956  13.744  0.00  0.00    +0.050 A 
ATOM     10  C   LIG    1       -5.385  -4.370  13.133  0.00  0.00    +0.044 A 
ATOM     11  C   LIG    1       -4.361  -4.973  13.874  0.00  0.00    +0.044 A 
ATOM     12 CL   LIG    1       -2.920  -5.480  13.079  0.00  0.00    -0.083 Cl
ATOM     13  C   LIG    1       -4.493  -5.173  15.240  0.00  0.00    +0.040 A 
ATOM     14  C   LIG    1       -5.664  -4.765  15.861  0.00  0.00    +0.044 A 
ATOM     15 CL   LIG    1       -5.845  -4.991  17.559  0.00  0.00    -0.083 Cl
ATOM     16  C   LIG    1       -6.697  -4.168  15.130  0.00  0.00    +0.044 A 
ENDBRANCH   3   9
BRANCH   6  17
ATOM     17  C   LIG    1       -9.855  -0.766  12.318  0.00  0.00    +0.022 C 
ATOM     18  C   LIG    1      -10.973  -0.961  13.036  0.00  0.00    +0.008 C 
ENDBRANCH   6  17
TORSDOF 2
ENDMDL
MODEL 6
REMARK VINA RESULT:      -6.5      2.283      3.397
REMARK  Name = 
REMARK                            x       y       z     vdW  Elec       q    Type
REMARK                         _______ _______ _______ _____ _____    ______ ____
ROOT
ATOM      1  O   LIG    1       -8.974  -5.188  12.428  0.00  0.00    -0.225 OA
ATOM      2  C   LIG    1       -8.714  -3.995  12.405  0.00  0.00    +0.415 C 
ATOM      3  N   LIG    1       -7.633  -3.347  12.933  0.00  0.00    -0.172 N 
ATOM      4  C   LIG    1       -7.713  -2.015  12.615  0.00  0.00    +0.276 C 
ATOM      5  O   LIG    1       -6.975  -1.097  12.950  0.00  0.00    -0.270 OA
ATOM      6  C   LIG    1       -8.935  -1.839  11.731  0.00  0.00    +0.206 C 
ATOM      7  C   LIG    1       -8.490  -1.548  10.299  0.00  0.00    +0.071 C 
ATOM      8  O   LIG    1       -9.546  -3.124  11.763  0.00  0.00    -0.430 OA
ENDROOT
BRANCH   3   9
ATOM      9  C   LIG    1       -6.590  -3.956  13.701  0.00  0.00    +0.050 A 
ATOM     10  C   LIG    1       -6.710  -4.145  15.089  0.00  0.00    +0.044 A 
ATOM     11  C   LIG    1       -5.682  -4.737  15.834  0.00  0.00    +0.044 A 
ATOM     12 CL   LIG    1       -5.867  -4.932  17.535  0.00  0.00    -0.083 Cl
ATOM     13  C   LIG    1       -4.514  -5.163  15.221  0.00  0.00    +0.040 A 
ATOM     14  C   LIG    1       -4.379  -4.990  13.852  0.00  0.00    +0.044 A 
ATOM     15 CL   LIG    1       -2.942  -5.523  13.067  0.00  0.00    -0.083 Cl
ATOM     16  C   LIG    1       -5.398  -4.394  13.099  0.00  0.00    +0.044 A 
ENDBRANCH   3   9
BRANCH   6  17
ATOM     17  C   LIG    1       -9.897  -0.806  12.262  0.00  0.00    +0.022 C 
ATOM     18  C   LIG    1      -10.967  -1.049  13.036  0.00  0.00    +0.008 C 
ENDBRANCH   6  17
TORSDOF 2
ENDMDL
MODEL 7
REMARK VINA RESULT:      -6.4      3.308      5.895
REMARK  Name = 
REMARK                            x       y       z     vdW  Elec       q    Type
REMARK                         _______ _______ _______ _____ _____    ______ ____
ROOT
ATOM      1  O   LIG    1       -8.830  -5.488  13.772  0.00  0.00    -0.225 OA
ATOM      2  C   LIG    1       -7.698  -5.054  13.921  0.00  0.00    +0.415 C 
ATOM      3  N   LIG    1       -6.895  -4.433  13.007  0.00  0.00    -0.172 N 
ATOM      4  C   LIG    1       -5.729  -4.052  13.623  0.00  0.00    +0.276 C 
ATOM      5  O   LIG    1       -4.737  -3.525  13.137  0.00  0.00    -0.270 OA
ATOM      6  C   LIG    1       -5.863  -4.411  15.093  0.00  0.00    +0.206 C 
ATOM      7  C   LIG    1       -6.022  -3.134  15.916  0.00  0.00    +0.071 C 
ATOM      8  O   LIG    1       -7.087  -5.135  15.139  0.00  0.00    -0.430 OA
ENDROOT
BRANCH   3   9
ATOM      9  C   LIG    1       -7.213  -4.220  11.628  0.00  0.00    +0.050 A 
ATOM     10  C   LIG    1       -7.489  -2.938  11.123  0.00  0.00    +0.044 A 
ATOM     11  C   LIG    1       -7.805  -2.741   9.773  0.00  0.00    +0.044 A 
ATOM     12 CL   LIG    1       -8.154  -1.153   9.204  0.00  0.00    -0.083 Cl
ATOM     13  C   LIG    1       -7.847  -3.808   8.888  0.00  0.00    +0.040 A 
ATOM     14  C   LIG    1       -7.572  -5.080   9.367  0.00  0.00    +0.044 A 
ATOM     15 CL   LIG    1       -7.605  -6.418   8.283  0.00  0.00    -0.083 Cl
ATOM     16  C   LIG    1       -7.261  -5.289  10.716  0.00  0.00    +0.044 A 
ENDBRANCH   3   9
BRANCH   6  17
ATOM     17  C   LIG    1       -4.737  -5.284  15.586  0.00  0.00    +0.022 C 
ATOM     18  C   LIG    1       -4.346  -5.420  16.863  0.00  0.00    +0.008 C 
ENDBRANCH   6  17
TORSDOF 2
ENDMDL
MODEL 8
REMARK VINA RESULT:      -6.4      3.305      5.966
REMARK  Name = 
REMARK                            x       y       z     vdW  Elec       q    Type
REMARK                         _______ _______ _______ _____ _____    ______ ____
ROOT
ATOM      1  O   LIG    1       -8.866  -5.459  13.741  0.00  0.00    -0.225 OA
ATOM      2  C   LIG    1       -7.730  -5.039  13.894  0.00  0.00    +0.415 C 
ATOM      3  N   LIG    1       -6.920  -4.417  12.985  0.00  0.00    -0.172 N 
ATOM      4  C   LIG    1       -5.751  -4.055  13.606  0.00  0.00    +0.276 C 
ATOM      5  O   LIG    1       -4.753  -3.534  13.125  0.00  0.00    -0.270 OA
ATOM      6  C   LIG    1       -5.890  -4.424  15.072  0.00  0.00    +0.206 C 
ATOM      7  C   LIG    1       -6.035  -3.153  15.906  0.00  0.00    +0.071 C 
ATOM      8  O   LIG    1       -7.121  -5.137  15.112  0.00  0.00    -0.430 OA
ENDROOT
BRANCH   3   9
ATOM      9  C   LIG    1       -7.235  -4.190  11.608  0.00  0.00    +0.050 A 
ATOM     10  C   LIG    1       -7.284  -5.243  10.679  0.00  0.00    +0.044 A 
ATOM     11  C   LIG    1       -7.587  -5.010   9.331  0.00  0.00    +0.044 A 
ATOM     12 CL   LIG    1       -7.619  -6.329   8.225  0.00  0.00    -0.083 Cl
ATOM     13  C   LIG    1       -7.856  -3.729   8.873  0.00  0.00    +0.040 A 
ATOM     14  C   LIG    1       -7.818  -2.678   9.777  0.00  0.00    +0.044 A 
ATOM     15 CL   LIG    1       -8.162  -1.080   9.234  0.00  0.00    -0.083 Cl
ATOM     16  C   LIG    1       -7.510  -2.899  11.125  0.00  0.00    +0.044 A 
ENDBRANCH   3   9
BRANCH   6  17
ATOM     17  C   LIG    1       -4.773  -5.314  15.559  0.00  0.00    +0.022 C 
ATOM     18  C   LIG    1       -4.268  -5.337  16.802  0.00  0.00    +0.008 C 
ENDBRANCH   6  17
TORSDOF 2
ENDMDL
MODEL 9
REMARK VINA RESULT:      -6.1      3.532      6.279
REMARK  Name = 
REMARK                            x       y       z     vdW  Elec       q    Type
REMARK                         _______ _______ _______ _____ _____    ______ ____
ROOT
ATOM      1  O   LIG    1       -4.133  -5.222  12.608  0.00  0.00    -0.225 OA
ATOM      2  C   LIG    1       -4.530  -4.909  13.719  0.00  0.00    +0.415 C 
ATOM      3  N   LIG    1       -5.780  -4.509  14.098  0.00  0.00    -0.172 N 
ATOM      4  C   LIG    1       -5.796  -4.322  15.457  0.00  0.00    +0.276 C 
ATOM      5  O   LIG    1       -6.703  -3.910  16.168  0.00  0.00    -0.270 OA
ATOM      6  C   LIG    1       -4.428  -4.725  15.979  0.00  0.00    +0.206 C 
ATOM      7  C   LIG    1       -4.544  -6.037  16.753  0.00  0.00    +0.071 C 
ATOM      8  O   LIG    1       -3.685  -4.964  14.790  0.00  0.00    -0.430 OA
ENDROOT
BRANCH   3   9
ATOM      9  C   LIG    1       -6.892  -4.309  13.219  0.00  0.00    +0.050 A 
ATOM     10  C   LIG    1       -7.634  -5.388  12.710  0.00  0.00    +0.044 A 
ATOM     11  C   LIG    1       -8.717  -5.183  11.846  0.00  0.00    +0.044 A 
ATOM     12 CL   LIG    1       -9.586  -6.537  11.233  0.00  0.00    -0.083 Cl
ATOM     13  C   LIG    1       -9.096  -3.902  11.471  0.00  0.00    +0.040 A 
ATOM     14  C   LIG    1       -8.379  -2.824  11.968  0.00  0.00    +0.044 A 
ATOM     15 CL   LIG    1       -8.839  -1.225  11.527  0.00  0.00    -0.083 Cl
ATOM     16  C   LIG    1       -7.291  -3.019  12.827  0.00  0.00    +0.044 A 
ENDBRANCH   3   9
BRANCH   6  17
ATOM     17  C   LIG    1       -3.764  -3.634  16.781  0.00  0.00    +0.022 C 
ATOM     18  C   LIG    1       -2.612  -3.745  17.462  0.00  0.00    +0.008 C 
ENDBRANCH   6  17
TORSDOF 2
ENDMDL
