MODEL 1
REMARK VINA RESULT:      -7.9      0.000      0.000
REMARK  Name = 
REMARK                            x       y       z     vdW  Elec       q    Type
REMARK                         _______ _______ _______ _____ _____    ______ ____
ROOT
ATOM      1  O   LIG    1       65.987  46.290  31.916  0.00  0.00    -0.225 OA
ATOM      2  C   LIG    1       65.025  46.265  32.668  0.00  0.00    +0.415 C 
ATOM      3  N   LIG    1       63.704  46.108  32.358  0.00  0.00    -0.172 N 
ATOM      4  C   LIG    1       62.974  46.074  33.521  0.00  0.00    +0.276 C 
ATOM      5  O   LIG    1       61.761  46.007  33.667  0.00  0.00    -0.270 OA
ATOM      6  C   LIG    1       63.964  46.139  34.671  0.00  0.00    +0.206 C 
ATOM      7  C   LIG    1       64.028  44.781  35.366  0.00  0.00    +0.071 C 
ATOM      8  O   LIG    1       65.206  46.373  34.017  0.00  0.00    -0.430 OA
ENDROOT
BRANCH   3   9
ATOM      9  C   LIG    1       63.165  46.005  31.037  0.00  0.00    +0.050 A 
ATOM     10  C   LIG    1       62.422  47.049  30.459  0.00  0.00    +0.044 A 
ATOM     11  C   LIG    1       61.893  46.937  29.167  0.00  0.00    +0.044 A 
ATOM     12 CL   LIG    1       60.974  48.236  28.508  0.00  0.00    -0.083 Cl
ATOM     13  C   LIG    1       62.093  45.791  28.413  0.00  0.00    +0.040 A 
ATOM     14  C   LIG    1       62.829  44.752  28.964  0.00  0.00    +0.044 A 
ATOM     15 CL   LIG    1       63.102  43.325  28.040  0.00  0.00    -0.083 Cl
ATOM     16  C   LIG    1       63.356  44.851  30.257  0.00  0.00    +0.044 A 
ENDBRANCH   3   9
BRANCH   6  17
ATOM     17  C   LIG    1       63.674  47.269  35.627  0.00  0.00    +0.022 C 
ATOM     18  C   LIG    1       63.519  48.561  35.298  0.00  0.00    +0.008 C 
ENDBRANCH   6  17
TORSDOF 2
ENDMDL
MODEL 2
REMARK VINA RESULT:      -7.9      0.015      2.116
REMARK  Name = 
REMARK                            x       y       z     vdW  Elec       q    Type
REMARK                         _______ _______ _______ _____ _____    ______ ____
ROOT
ATOM      1  O   LIG    1       65.977  46.288  31.921  0.00  0.00    -0.225 OA
ATOM      2  C   LIG    1       65.014  46.263  32.672  0.00  0.00    +0.415 C 
ATOM      3  N   LIG    1       63.693  46.104  32.360  0.00  0.00    -0.172 N 
ATOM      4  C   LIG    1       62.962  46.072  33.521  0.00  0.00    +0.276 C 
ATOM      5  O   LIG    1       61.748  46.004  33.665  0.00  0.00    -0.270 OA
ATOM      6  C   LIG    1       63.949  46.140  34.672  0.00  0.00    +0.206 C 
ATOM      7  C   LIG    1       64.012  44.782  35.370  0.00  0.00    +0.071 C 
ATOM      8  O   LIG    1       65.192  46.373  34.021  0.00  0.00    -0.430 OA
ENDROOT
BRANCH   3   9
ATOM      9  C   LIG    1       63.156  45.999  31.037  0.00  0.00    +0.050 A 
ATOM     10  C   LIG    1       63.338  44.845  30.257  0.00  0.00    +0.044 A 
ATOM     11  C   LIG    1       62.814  44.753  28.961  0.00  0.00    +0.044 A 
ATOM     12 CL   LIG    1       63.077  43.325  28.036  0.00  0.00    -0.083 Cl
ATOM     13  C   LIG    1       62.091  45.800  28.410  0.00  0.00    +0.040 A 
ATOM     14  C   LIG    1       61.897  46.945  29.167  0.00  0.00    +0.044 A 
ATOM     15 CL   LIG    1       60.990  48.253  28.508  0.00  0.00    -0.083 Cl
ATOM     16  C   LIG    1       62.421  47.050  30.461  0.00  0.00    +0.044 A 
ENDBRANCH   3   9
BRANCH   6  17
ATOM     17  C   LIG    1       63.657  47.271  35.627  0.00  0.00    +0.022 C 
ATOM     18  C   LIG    1       63.512  48.563  35.297  0.00  0.00    +0.008 C 
ENDBRANCH   6  17
TORSDOF 2
ENDMDL
MODEL 3
REMARK VINA RESULT:      -7.9      3.151      6.028
REMARK  Name = 
REMARK                            x       y       z     vdW  Elec       q    Type
REMARK                         _______ _______ _______ _____ _____    ______ ____
ROOT
ATOM      1  O   LIG    1       61.556  47.366  30.706  0.00  0.00    -0.225 OA
ATOM      2  C   LIG    1       62.502  46.812  30.167  0.00  0.00    +0.415 C 
ATOM      3  N   LIG    1       63.529  46.123  30.747  0.00  0.00    -0.172 N 
ATOM      4  C   LIG    1       64.334  45.610  29.760  0.00  0.00    +0.276 C 
ATOM      5  O   LIG    1       65.383  44.988  29.867  0.00  0.00    -0.270 OA
ATOM      6  C   LIG    1       63.687  45.956  28.431  0.00  0.00    +0.206 C 
ATOM      7  C   LIG    1       63.111  44.690  27.800  0.00  0.00    +0.071 C 
ATOM      8  O   LIG    1       62.610  46.807  28.807  0.00  0.00    -0.430 OA
ENDROOT
BRANCH   3   9
ATOM      9  C   LIG    1       63.740  45.968  32.154  0.00  0.00    +0.050 A 
ATOM     10  C   LIG    1       64.108  44.733  32.714  0.00  0.00    +0.044 A 
ATOM     11  C   LIG    1       64.306  44.589  34.093  0.00  0.00    +0.044 A 
ATOM     12 CL   LIG    1       64.740  43.052  34.735  0.00  0.00    -0.083 Cl
ATOM     13  C   LIG    1       64.151  45.668  34.950  0.00  0.00    +0.040 A 
ATOM     14  C   LIG    1       63.792  46.896  34.415  0.00  0.00    +0.044 A 
ATOM     15 CL   LIG    1       63.607  48.253  35.460  0.00  0.00    -0.083 Cl
ATOM     16  C   LIG    1       63.586  47.049  33.039  0.00  0.00    +0.044 A 
ENDBRANCH   3   9
BRANCH   6  17
ATOM     17  C   LIG    1       64.618  46.696  27.503  0.00  0.00    +0.022 C 
ATOM     18  C   LIG    1       64.494  47.976  27.117  0.00  0.00    +0.008 C 
ENDBRANCH   6  17
TORSDOF 2
ENDMDL
MODEL 4
REMARK VINA RESULT:      -7.9      3.150      5.652
REMARK  Name = 
REMARK                            x       y       z     vdW  Elec       q    Type
REMARK                         _______ _______ _______ _____ _____    ______ ____
ROOT
ATOM      1  O   LIG    1       61.558  47.383  30.768  0.00  0.00    -0.225 OA
ATOM      2  C   LIG    1       62.505  46.825  30.234  0.00  0.00    +0.415 C 
ATOM      3  N   LIG    1       63.530  46.136  30.819  0.00  0.00    -0.172 N 
ATOM      4  C   LIG    1       64.336  45.619  29.836  0.00  0.00    +0.276 C 
ATOM      5  O   LIG    1       65.384  44.996  29.948  0.00  0.00    -0.270 OA
ATOM      6  C   LIG    1       63.693  45.963  28.504  0.00  0.00    +0.206 C 
ATOM      7  C   LIG    1       63.117  44.696  27.875  0.00  0.00    +0.071 C 
ATOM      8  O   LIG    1       62.617  46.816  28.874  0.00  0.00    -0.430 OA
ENDROOT
BRANCH   3   9
ATOM      9  C   LIG    1       63.736  45.986  32.227  0.00  0.00    +0.050 A 
ATOM     10  C   LIG    1       63.575  47.062  33.115  0.00  0.00    +0.044 A 
ATOM     11  C   LIG    1       63.785  46.908  34.491  0.00  0.00    +0.044 A 
ATOM     12 CL   LIG    1       63.593  48.260  35.540  0.00  0.00    -0.083 Cl
ATOM     13  C   LIG    1       64.151  45.680  35.022  0.00  0.00    +0.040 A 
ATOM     14  C   LIG    1       64.309  44.604  34.161  0.00  0.00    +0.044 A 
ATOM     15 CL   LIG    1       64.751  43.066  34.798  0.00  0.00    -0.083 Cl
ATOM     16  C   LIG    1       64.109  44.749  32.783  0.00  0.00    +0.044 A 
ENDBRANCH   3   9
BRANCH   6  17
ATOM     17  C   LIG    1       64.628  46.698  27.576  0.00  0.00    +0.022 C 
ATOM     18  C   LIG    1       64.437  47.930  27.078  0.00  0.00    +0.008 C 
ENDBRANCH   6  17
TORSDOF 2
ENDMDL
MODEL 5
REMARK VINA RESULT:      -7.6      2.103      3.160
REMARK  Name = 
REMARK                            x       y       z     vdW  Elec       q    Type
REMARK                         _______ _______ _______ _____ _____    ______ ____
ROOT
ATOM      1  O   LIG    1       62.032  47.443  33.951  0.00  0.00    -0.225 OA
ATOM      2  C   LIG    1       62.897  46.769  33.413  0.00  0.00    +0.415 C 
ATOM      3  N   LIG    1       62.968  46.354  32.113  0.00  0.00    -0.172 N 
ATOM      4  C   LIG    1       64.146  45.675  31.926  0.00  0.00    +0.276 C 
ATOM      5  O   LIG    1       64.553  45.099  30.926  0.00  0.00    -0.270 OA
ATOM      6  C   LIG    1       64.916  45.749  33.233  0.00  0.00    +0.206 C 
ATOM      7  C   LIG    1       66.114  46.682  33.067  0.00  0.00    +0.071 C 
ATOM      8  O   LIG    1       63.987  46.357  34.123  0.00  0.00    -0.430 OA
ENDROOT
BRANCH   3   9
ATOM      9  C   LIG    1       61.973  46.581  31.110  0.00  0.00    +0.050 A 
ATOM     10  C   LIG    1       62.248  47.328  29.952  0.00  0.00    +0.044 A 
ATOM     11  C   LIG    1       61.266  47.550  28.979  0.00  0.00    +0.044 A 
ATOM     12 CL   LIG    1       61.646  48.486  27.584  0.00  0.00    -0.083 Cl
ATOM     13  C   LIG    1       59.989  47.032  29.126  0.00  0.00    +0.040 A 
ATOM     14  C   LIG    1       59.699  46.287  30.259  0.00  0.00    +0.044 A 
ATOM     15 CL   LIG    1       58.123  45.622  30.456  0.00  0.00    -0.083 Cl
ATOM     16  C   LIG    1       60.672  46.064  31.241  0.00  0.00    +0.044 A 
ENDBRANCH   3   9
BRANCH   6  17
ATOM     17  C   LIG    1       65.307  44.390  33.758  0.00  0.00    +0.022 C 
ATOM     18  C   LIG    1       64.479  43.351  33.950  0.00  0.00    +0.008 C 
ENDBRANCH   6  17
TORSDOF 2
ENDMDL
MODEL 6
REMARK VINA RESULT:      -7.6      2.095      3.283
REMARK  Name = 
REMARK                            x       y       z     vdW  Elec       q    Type
REMARK                         _______ _______ _______ _____ _____    ______ ____
ROOT
ATOM      1  O   LIG    1       62.018  47.363  33.964  0.00  0.00    -0.225 OA
ATOM      2  C   LIG    1       62.896  46.718  33.413  0.00  0.00    +0.415 C 
ATOM      3  N   LIG    1       62.980  46.338  32.103  0.00  0.00    -0.172 N 
ATOM      4  C   LIG    1       64.170  45.683  31.905  0.00  0.00    +0.276 C 
ATOM      5  O   LIG    1       64.590  45.139  30.892  0.00  0.00    -0.270 OA
ATOM      6  C   LIG    1       64.932  45.734  33.217  0.00  0.00    +0.206 C 
ATOM      7  C   LIG    1       66.116  46.690  33.082  0.00  0.00    +0.071 C 
ATOM      8  O   LIG    1       63.989  46.304  34.117  0.00  0.00    -0.430 OA
ENDROOT
BRANCH   3   9
ATOM      9  C   LIG    1       61.986  46.576  31.101  0.00  0.00    +0.050 A 
ATOM     10  C   LIG    1       60.680  46.072  31.223  0.00  0.00    +0.044 A 
ATOM     11  C   LIG    1       59.716  46.304  30.235  0.00  0.00    +0.044 A 
ATOM     12 CL   LIG    1       58.133  45.651  30.419  0.00  0.00    -0.083 Cl
ATOM     13  C   LIG    1       60.019  47.049  29.105  0.00  0.00    +0.040 A 
ATOM     14  C   LIG    1       61.301  47.560  28.970  0.00  0.00    +0.044 A 
ATOM     15 CL   LIG    1       61.697  48.499  27.582  0.00  0.00    -0.083 Cl
ATOM     16  C   LIG    1       62.275  47.328  29.949  0.00  0.00    +0.044 A 
ENDBRANCH   3   9
BRANCH   6  17
ATOM     17  C   LIG    1       65.341  44.368  33.709  0.00  0.00    +0.022 C 
ATOM     18  C   LIG    1       64.510  43.365  34.034  0.00  0.00    +0.008 C 
ENDBRANCH   6  17
TORSDOF 2
ENDMDL
MODEL 7
REMARK VINA RESULT:      -7.5      0.854      2.391
REMARK  Name = 
REMARK                            x       y       z     vdW  Elec       q    Type
REMARK                         _______ _______ _______ _____ _____    ______ ____
ROOT
ATOM      1  O   LIG    1       60.494  46.397  33.004  0.00  0.00    -0.225 OA
ATOM      2  C   LIG    1       61.692  46.375  33.241  0.00  0.00    +0.415 C 
ATOM      3  N   LIG    1       62.735  46.338  32.359  0.00  0.00    -0.172 N 
ATOM      4  C   LIG    1       63.913  46.393  33.061  0.00  0.00    +0.276 C 
ATOM      5  O   LIG    1       65.062  46.324  32.645  0.00  0.00    -0.270 OA
ATOM      6  C   LIG    1       63.553  46.559  34.527  0.00  0.00    +0.206 C 
ATOM      7  C   LIG    1       63.903  47.975  34.980  0.00  0.00    +0.071 C 
ATOM      8  O   LIG    1       62.137  46.419  34.531  0.00  0.00    -0.430 OA
ENDROOT
BRANCH   3   9
ATOM      9  C   LIG    1       62.620  46.248  30.936  0.00  0.00    +0.050 A 
ATOM     10  C   LIG    1       62.207  47.343  30.158  0.00  0.00    +0.044 A 
ATOM     11  C   LIG    1       62.091  47.243  28.766  0.00  0.00    +0.044 A 
ATOM     12 CL   LIG    1       61.565  48.607  27.856  0.00  0.00    -0.083 Cl
ATOM     13  C   LIG    1       62.389  46.059  28.110  0.00  0.00    +0.040 A 
ATOM     14  C   LIG    1       62.804  44.969  28.860  0.00  0.00    +0.044 A 
ATOM     15 CL   LIG    1       63.192  43.491  28.065  0.00  0.00    -0.083 Cl
ATOM     16  C   LIG    1       62.917  45.055  30.253  0.00  0.00    +0.044 A 
ENDBRANCH   3   9
BRANCH   6  17
ATOM     17  C   LIG    1       64.170  45.499  35.405  0.00  0.00    +0.022 C 
ATOM     18  C   LIG    1       64.487  44.250  35.028  0.00  0.00    +0.008 C 
ENDBRANCH   6  17
TORSDOF 2
ENDMDL
MODEL 8
REMARK VINA RESULT:      -7.5      0.857      3.181
REMARK  Name = 
REMARK                            x       y       z     vdW  Elec       q    Type
REMARK                         _______ _______ _______ _____ _____    ______ ____
ROOT
ATOM      1  O   LIG    1       60.478  46.363  33.038  0.00  0.00    -0.225 OA
ATOM      2  C   LIG    1       61.674  46.386  33.286  0.00  0.00    +0.415 C 
ATOM      3  N   LIG    1       62.726  46.376  32.415  0.00  0.00    -0.172 N 
ATOM      4  C   LIG    1       63.895  46.480  33.127  0.00  0.00    +0.276 C 
ATOM      5  O   LIG    1       65.050  46.446  32.721  0.00  0.00    -0.270 OA
ATOM      6  C   LIG    1       63.515  46.651  34.587  0.00  0.00    +0.206 C 
ATOM      7  C   LIG    1       63.811  48.084  35.026  0.00  0.00    +0.071 C 
ATOM      8  O   LIG    1       62.105  46.462  34.579  0.00  0.00    -0.430 OA
ENDROOT
BRANCH   3   9
ATOM      9  C   LIG    1       62.628  46.264  30.992  0.00  0.00    +0.050 A 
ATOM     10  C   LIG    1       62.933  45.066  30.323  0.00  0.00    +0.044 A 
ATOM     11  C   LIG    1       62.840  44.967  28.929  0.00  0.00    +0.044 A 
ATOM     12 CL   LIG    1       63.241  43.484  28.151  0.00  0.00    -0.083 Cl
ATOM     13  C   LIG    1       62.435  46.051  28.164  0.00  0.00    +0.040 A 
ATOM     14  C   LIG    1       62.124  47.240  28.807  0.00  0.00    +0.044 A 
ATOM     15 CL   LIG    1       61.606  48.594  27.879  0.00  0.00    -0.083 Cl
ATOM     16  C   LIG    1       62.220  47.351  30.199  0.00  0.00    +0.044 A 
ENDBRANCH   3   9
BRANCH   6  17
ATOM     17  C   LIG    1       64.160  45.624  35.483  0.00  0.00    +0.022 C 
ATOM     18  C   LIG    1       64.403  44.343  35.166  0.00  0.00    +0.008 C 
ENDBRANCH   6  17
TORSDOF 2
ENDMDL
MODEL 9
REMARK VINA RESULT:      -7.3      1.785      2.060
REMARK  Name = 
REMARK                            x       y       z     vdW  Elec       q    Type
REMARK                         _______ _______ _______ _____ _____    ______ ____
ROOT
ATOM      1  O   LIG    1       64.361  44.575  32.667  0.00  0.00    -0.225 OA
ATOM      2  C   LIG    1       63.592  45.522  32.727  0.00  0.00    +0.415 C 
ATOM      3  N   LIG    1       62.998  46.205  31.703  0.00  0.00    -0.172 N 
ATOM      4  C   LIG    1       62.156  47.152  32.228  0.00  0.00    +0.276 C 
ATOM      5  O   LIG    1       61.492  48.001  31.647  0.00  0.00    -0.270 OA
ATOM      6  C   LIG    1       62.176  46.981  33.737  0.00  0.00    +0.206 C 
ATOM      7  C   LIG    1       60.845  46.393  34.201  0.00  0.00    +0.071 C 
ATOM      8  O   LIG    1       63.196  46.009  33.939  0.00  0.00    -0.430 OA
ENDROOT
BRANCH   3   9
ATOM      9  C   LIG    1       63.224  45.976  30.308  0.00  0.00    +0.050 A 
ATOM     10  C   LIG    1       63.743  46.979  29.471  0.00  0.00    +0.044 A 
ATOM     11  C   LIG    1       63.955  46.749  28.106  0.00  0.00    +0.044 A 
ATOM     12 CL   LIG    1       64.575  48.013  27.116  0.00  0.00    -0.083 Cl
ATOM     13  C   LIG    1       63.666  45.517  27.539  0.00  0.00    +0.040 A 
ATOM     14  C   LIG    1       63.159  44.513  28.350  0.00  0.00    +0.044 A 
ATOM     15 CL   LIG    1       62.806  42.971  27.670  0.00  0.00    -0.083 Cl
ATOM     16  C   LIG    1       62.937  44.735  29.715  0.00  0.00    +0.044 A 
ENDBRANCH   3   9
BRANCH   6  17
ATOM     17  C   LIG    1       62.536  48.252  34.465  0.00  0.00    +0.022 C 
ATOM     18  C   LIG    1       63.383  48.354  35.502  0.00  0.00    +0.008 C 
ENDBRANCH   6  17
TORSDOF 2
ENDMDL
