MODEL 1
REMARK VINA RESULT:      -8.5      0.000      0.000
REMARK  Name = 
REMARK                            x       y       z     vdW  Elec       q    Type
REMARK                         _______ _______ _______ _____ _____    ______ ____
ROOT
ATOM      1  O   LIG    1       41.898   0.457  15.784  0.00  0.00    -0.225 OA
ATOM      2  C   LIG    1       41.116  -0.465  15.614  0.00  0.00    +0.415 C 
ATOM      3  N   LIG    1       41.271  -1.785  15.934  0.00  0.00    -0.172 N 
ATOM      4  C   LIG    1       40.114  -2.456  15.626  0.00  0.00    +0.276 C 
ATOM      5  O   LIG    1       39.874  -3.654  15.706  0.00  0.00    -0.270 OA
ATOM      6  C   LIG    1       39.115  -1.424  15.136  0.00  0.00    +0.206 C 
ATOM      7  C   LIG    1       38.024  -1.231  16.189  0.00  0.00    +0.071 C 
ATOM      8  O   LIG    1       39.889  -0.232  15.062  0.00  0.00    -0.430 OA
ENDROOT
BRANCH   3   9
ATOM      9  C   LIG    1       42.450  -2.374  16.491  0.00  0.00    +0.050 A 
ATOM     10  C   LIG    1       43.014  -1.905  17.689  0.00  0.00    +0.044 A 
ATOM     11  C   LIG    1       44.172  -2.484  18.224  0.00  0.00    +0.044 A 
ATOM     12 CL   LIG    1       44.836  -1.864  19.687  0.00  0.00    -0.083 Cl
ATOM     13  C   LIG    1       44.795  -3.546  17.587  0.00  0.00    +0.040 A 
ATOM     14  C   LIG    1       44.251  -4.026  16.406  0.00  0.00    +0.044 A 
ATOM     15 CL   LIG    1       45.001  -5.354  15.605  0.00  0.00    -0.083 Cl
ATOM     16  C   LIG    1       43.097  -3.451  15.860  0.00  0.00    +0.044 A 
ENDBRANCH   3   9
BRANCH   6  17
ATOM     17  C   LIG    1       38.556  -1.751  13.774  0.00  0.00    +0.022 C 
ATOM     18  C   LIG    1       37.268  -1.662  13.407  0.00  0.00    +0.008 C 
ENDBRANCH   6  17
TORSDOF 2
ENDMDL
MODEL 2
REMARK VINA RESULT:      -8.5      0.026      2.116
REMARK  Name = 
REMARK                            x       y       z     vdW  Elec       q    Type
REMARK                         _______ _______ _______ _____ _____    ______ ____
ROOT
ATOM      1  O   LIG    1       41.909   0.476  15.799  0.00  0.00    -0.225 OA
ATOM      2  C   LIG    1       41.125  -0.444  15.625  0.00  0.00    +0.415 C 
ATOM      3  N   LIG    1       41.279  -1.766  15.936  0.00  0.00    -0.172 N 
ATOM      4  C   LIG    1       40.120  -2.433  15.627  0.00  0.00    +0.276 C 
ATOM      5  O   LIG    1       39.879  -3.631  15.700  0.00  0.00    -0.270 OA
ATOM      6  C   LIG    1       39.120  -1.395  15.149  0.00  0.00    +0.206 C 
ATOM      7  C   LIG    1       38.034  -1.209  16.207  0.00  0.00    +0.071 C 
ATOM      8  O   LIG    1       39.896  -0.205  15.081  0.00  0.00    -0.430 OA
ENDROOT
BRANCH   3   9
ATOM      9  C   LIG    1       42.460  -2.361  16.483  0.00  0.00    +0.050 A 
ATOM     10  C   LIG    1       43.112  -3.429  15.845  0.00  0.00    +0.044 A 
ATOM     11  C   LIG    1       44.264  -4.009  16.391  0.00  0.00    +0.044 A 
ATOM     12 CL   LIG    1       45.019  -5.328  15.582  0.00  0.00    -0.083 Cl
ATOM     13  C   LIG    1       44.801  -3.540  17.580  0.00  0.00    +0.040 A 
ATOM     14  C   LIG    1       44.175  -2.482  18.222  0.00  0.00    +0.044 A 
ATOM     15 CL   LIG    1       44.832  -1.874  19.693  0.00  0.00    -0.083 Cl
ATOM     16  C   LIG    1       43.019  -1.899  17.688  0.00  0.00    +0.044 A 
ENDBRANCH   3   9
BRANCH   6  17
ATOM     17  C   LIG    1       38.556  -1.712  13.787  0.00  0.00    +0.022 C 
ATOM     18  C   LIG    1       37.262  -1.649  13.435  0.00  0.00    +0.008 C 
ENDBRANCH   6  17
TORSDOF 2
ENDMDL
MODEL 3
REMARK VINA RESULT:      -8.4      1.573      2.077
REMARK  Name = 
REMARK                            x       y       z     vdW  Elec       q    Type
REMARK                         _______ _______ _______ _____ _____    ______ ____
ROOT
ATOM      1  O   LIG    1       39.735  -1.015  18.302  0.00  0.00    -0.225 OA
ATOM      2  C   LIG    1       39.893  -0.831  17.106  0.00  0.00    +0.415 C 
ATOM      3  N   LIG    1       40.924  -1.241  16.308  0.00  0.00    -0.172 N 
ATOM      4  C   LIG    1       40.659  -0.870  15.013  0.00  0.00    +0.276 C 
ATOM      5  O   LIG    1       41.359  -0.999  14.017  0.00  0.00    -0.270 OA
ATOM      6  C   LIG    1       39.281  -0.233  15.003  0.00  0.00    +0.206 C 
ATOM      7  C   LIG    1       38.291  -1.170  14.313  0.00  0.00    +0.071 C 
ATOM      8  O   LIG    1       38.948  -0.159  16.385  0.00  0.00    -0.430 OA
ENDROOT
BRANCH   3   9
ATOM      9  C   LIG    1       42.094  -1.935  16.751  0.00  0.00    +0.050 A 
ATOM     10  C   LIG    1       42.911  -1.425  17.774  0.00  0.00    +0.044 A 
ATOM     11  C   LIG    1       44.059  -2.108  18.197  0.00  0.00    +0.044 A 
ATOM     12 CL   LIG    1       45.039  -1.436  19.443  0.00  0.00    -0.083 Cl
ATOM     13  C   LIG    1       44.420  -3.317  17.621  0.00  0.00    +0.040 A 
ATOM     14  C   LIG    1       43.623  -3.838  16.613  0.00  0.00    +0.044 A 
ATOM     15 CL   LIG    1       44.045  -5.344  15.893  0.00  0.00    -0.083 Cl
ATOM     16  C   LIG    1       42.478  -3.160  16.179  0.00  0.00    +0.044 A 
ENDBRANCH   3   9
BRANCH   6  17
ATOM     17  C   LIG    1       39.282   1.152  14.407  0.00  0.00    +0.022 C 
ATOM     18  C   LIG    1       39.947   2.216  14.885  0.00  0.00    +0.008 C 
ENDBRANCH   6  17
TORSDOF 2
ENDMDL
MODEL 4
REMARK VINA RESULT:      -8.3      5.189      7.362
REMARK  Name = 
REMARK                            x       y       z     vdW  Elec       q    Type
REMARK                         _______ _______ _______ _____ _____    ______ ____
ROOT
ATOM      1  O   LIG    1       40.590   2.159  14.982  0.00  0.00    -0.225 OA
ATOM      2  C   LIG    1       39.771   1.281  14.759  0.00  0.00    +0.415 C 
ATOM      3  N   LIG    1       38.412   1.330  14.886  0.00  0.00    -0.172 N 
ATOM      4  C   LIG    1       37.882   0.137  14.464  0.00  0.00    +0.276 C 
ATOM      5  O   LIG    1       36.716  -0.236  14.476  0.00  0.00    -0.270 OA
ATOM      6  C   LIG    1       39.035  -0.707  13.950  0.00  0.00    +0.206 C 
ATOM      7  C   LIG    1       38.953  -0.810  12.428  0.00  0.00    +0.071 C 
ATOM      8  O   LIG    1       40.179   0.065  14.291  0.00  0.00    -0.430 OA
ENDROOT
BRANCH   3   9
ATOM      9  C   LIG    1       37.661   2.441  15.386  0.00  0.00    +0.050 A 
ATOM     10  C   LIG    1       37.076   2.421  16.663  0.00  0.00    +0.044 A 
ATOM     11  C   LIG    1       36.338   3.511  17.143  0.00  0.00    +0.044 A 
ATOM     12 CL   LIG    1       35.624   3.433  18.708  0.00  0.00    -0.083 Cl
ATOM     13  C   LIG    1       36.169   4.650  16.371  0.00  0.00    +0.040 A 
ATOM     14  C   LIG    1       36.744   4.691  15.109  0.00  0.00    +0.044 A 
ATOM     15 CL   LIG    1       36.558   6.101  14.139  0.00  0.00    -0.083 Cl
ATOM     16  C   LIG    1       37.478   3.605  14.618  0.00  0.00    +0.044 A 
ENDBRANCH   3   9
BRANCH   6  17
ATOM     17  C   LIG    1       39.115  -2.057  14.620  0.00  0.00    +0.022 C 
ATOM     18  C   LIG    1       39.400  -2.280  15.912  0.00  0.00    +0.008 C 
ENDBRANCH   6  17
TORSDOF 2
ENDMDL
MODEL 5
REMARK VINA RESULT:      -8.3      5.177      7.449
REMARK  Name = 
REMARK                            x       y       z     vdW  Elec       q    Type
REMARK                         _______ _______ _______ _____ _____    ______ ____
ROOT
ATOM      1  O   LIG    1       40.608   2.129  14.945  0.00  0.00    -0.225 OA
ATOM      2  C   LIG    1       39.788   1.249  14.734  0.00  0.00    +0.415 C 
ATOM      3  N   LIG    1       38.428   1.302  14.860  0.00  0.00    -0.172 N 
ATOM      4  C   LIG    1       37.896   0.103  14.455  0.00  0.00    +0.276 C 
ATOM      5  O   LIG    1       36.730  -0.267  14.472  0.00  0.00    -0.270 OA
ATOM      6  C   LIG    1       39.048  -0.750  13.953  0.00  0.00    +0.206 C 
ATOM      7  C   LIG    1       38.966  -0.873  12.432  0.00  0.00    +0.071 C 
ATOM      8  O   LIG    1       40.194   0.026  14.283  0.00  0.00    -0.430 OA
ENDROOT
BRANCH   3   9
ATOM      9  C   LIG    1       37.679   2.421  15.345  0.00  0.00    +0.050 A 
ATOM     10  C   LIG    1       37.487   3.574  14.566  0.00  0.00    +0.044 A 
ATOM     11  C   LIG    1       36.758   4.667  15.051  0.00  0.00    +0.044 A 
ATOM     12 CL   LIG    1       36.564   6.066  14.066  0.00  0.00    -0.083 Cl
ATOM     13  C   LIG    1       36.195   4.641  16.318  0.00  0.00    +0.040 A 
ATOM     14  C   LIG    1       36.370   3.509  17.100  0.00  0.00    +0.044 A 
ATOM     15 CL   LIG    1       35.668   3.449  18.671  0.00  0.00    -0.083 Cl
ATOM     16  C   LIG    1       37.102   2.413  16.627  0.00  0.00    +0.044 A 
ENDBRANCH   3   9
BRANCH   6  17
ATOM     17  C   LIG    1       39.127  -2.089  14.641  0.00  0.00    +0.022 C 
ATOM     18  C   LIG    1       39.429  -2.296  15.932  0.00  0.00    +0.008 C 
ENDBRANCH   6  17
TORSDOF 2
ENDMDL
MODEL 6
REMARK VINA RESULT:      -8.1      1.052      3.077
REMARK  Name = 
REMARK                            x       y       z     vdW  Elec       q    Type
REMARK                         _______ _______ _______ _____ _____    ______ ____
ROOT
ATOM      1  O   LIG    1       39.817  -3.731  15.664  0.00  0.00    -0.225 OA
ATOM      2  C   LIG    1       40.024  -2.530  15.589  0.00  0.00    +0.415 C 
ATOM      3  N   LIG    1       41.163  -1.840  15.898  0.00  0.00    -0.172 N 
ATOM      4  C   LIG    1       40.975  -0.514  15.599  0.00  0.00    +0.276 C 
ATOM      5  O   LIG    1       41.729   0.432  15.785  0.00  0.00    -0.270 OA
ATOM      6  C   LIG    1       39.600  -0.389  14.966  0.00  0.00    +0.206 C 
ATOM      7  C   LIG    1       39.751  -0.095  13.474  0.00  0.00    +0.071 C 
ATOM      8  O   LIG    1       39.054  -1.694  15.118  0.00  0.00    -0.430 OA
ENDROOT
BRANCH   3   9
ATOM      9  C   LIG    1       42.354  -2.406  16.453  0.00  0.00    +0.050 A 
ATOM     10  C   LIG    1       43.003  -3.497  15.851  0.00  0.00    +0.044 A 
ATOM     11  C   LIG    1       44.165  -4.049  16.405  0.00  0.00    +0.044 A 
ATOM     12 CL   LIG    1       44.915  -5.398  15.641  0.00  0.00    -0.083 Cl
ATOM     13  C   LIG    1       44.719  -3.526  17.564  0.00  0.00    +0.040 A 
ATOM     14  C   LIG    1       44.096  -2.445  18.169  0.00  0.00    +0.044 A 
ATOM     15 CL   LIG    1       44.773  -1.771  19.602  0.00  0.00    -0.083 Cl
ATOM     16  C   LIG    1       42.930  -1.890  17.628  0.00  0.00    +0.044 A 
ENDBRANCH   3   9
BRANCH   6  17
ATOM     17  C   LIG    1       38.721   0.614  15.670  0.00  0.00    +0.022 C 
ATOM     18  C   LIG    1       37.596   0.338  16.348  0.00  0.00    +0.008 C 
ENDBRANCH   6  17
TORSDOF 2
ENDMDL
MODEL 7
REMARK VINA RESULT:      -8.1      3.478      6.643
REMARK  Name = 
REMARK                            x       y       z     vdW  Elec       q    Type
REMARK                         _______ _______ _______ _____ _____    ______ ____
ROOT
ATOM      1  O   LIG    1       44.014  -5.311  16.116  0.00  0.00    -0.225 OA
ATOM      2  C   LIG    1       44.812  -4.493  16.546  0.00  0.00    +0.415 C 
ATOM      3  N   LIG    1       44.609  -3.172  16.834  0.00  0.00    -0.172 N 
ATOM      4  C   LIG    1       45.764  -2.648  17.357  0.00  0.00    +0.276 C 
ATOM      5  O   LIG    1       46.007  -1.493  17.683  0.00  0.00    -0.270 OA
ATOM      6  C   LIG    1       46.759  -3.789  17.476  0.00  0.00    +0.206 C 
ATOM      7  C   LIG    1       46.952  -4.145  18.949  0.00  0.00    +0.071 C 
ATOM      8  O   LIG    1       46.093  -4.868  16.832  0.00  0.00    -0.430 OA
ENDROOT
BRANCH   3   9
ATOM      9  C   LIG    1       43.393  -2.450  16.616  0.00  0.00    +0.050 A 
ATOM     10  C   LIG    1       42.885  -2.234  15.323  0.00  0.00    +0.044 A 
ATOM     11  C   LIG    1       41.697  -1.520  15.119  0.00  0.00    +0.044 A 
ATOM     12 CL   LIG    1       41.123  -1.264  13.516  0.00  0.00    -0.083 Cl
ATOM     13  C   LIG    1       40.980  -1.010  16.190  0.00  0.00    +0.040 A 
ATOM     14  C   LIG    1       41.462  -1.219  17.473  0.00  0.00    +0.044 A 
ATOM     15 CL   LIG    1       40.581  -0.607  18.820  0.00  0.00    -0.083 Cl
ATOM     16  C   LIG    1       42.652  -1.925  17.689  0.00  0.00    +0.044 A 
ENDBRANCH   3   9
BRANCH   6  17
ATOM     17  C   LIG    1       48.061  -3.504  16.771  0.00  0.00    +0.022 C 
ATOM     18  C   LIG    1       48.204  -3.186  15.475  0.00  0.00    +0.008 C 
ENDBRANCH   6  17
TORSDOF 2
ENDMDL
MODEL 8
REMARK VINA RESULT:      -8.0      1.696      3.135
REMARK  Name = 
REMARK                            x       y       z     vdW  Elec       q    Type
REMARK                         _______ _______ _______ _____ _____    ______ ____
ROOT
ATOM      1  O   LIG    1       38.735  -2.169  17.572  0.00  0.00    -0.225 OA
ATOM      2  C   LIG    1       39.027  -1.445  16.633  0.00  0.00    +0.415 C 
ATOM      3  N   LIG    1       40.247  -1.264  16.044  0.00  0.00    -0.172 N 
ATOM      4  C   LIG    1       40.105  -0.409  14.980  0.00  0.00    +0.276 C 
ATOM      5  O   LIG    1       40.965   0.048  14.238  0.00  0.00    -0.270 OA
ATOM      6  C   LIG    1       38.624  -0.094  14.855  0.00  0.00    +0.206 C 
ATOM      7  C   LIG    1       38.058  -0.786  13.616  0.00  0.00    +0.071 C 
ATOM      8  O   LIG    1       38.064  -0.704  16.011  0.00  0.00    -0.430 OA
ENDROOT
BRANCH   3   9
ATOM      9  C   LIG    1       41.476  -1.859  16.472  0.00  0.00    +0.050 A 
ATOM     10  C   LIG    1       41.935  -3.072  15.933  0.00  0.00    +0.044 A 
ATOM     11  C   LIG    1       43.136  -3.651  16.362  0.00  0.00    +0.044 A 
ATOM     12 CL   LIG    1       43.650  -5.148  15.684  0.00  0.00    -0.083 Cl
ATOM     13  C   LIG    1       43.915  -3.038  17.332  0.00  0.00    +0.040 A 
ATOM     14  C   LIG    1       43.480  -1.837  17.872  0.00  0.00    +0.044 A 
ATOM     15 CL   LIG    1       44.438  -1.050  19.068  0.00  0.00    -0.083 Cl
ATOM     16  C   LIG    1       42.279  -1.253  17.455  0.00  0.00    +0.044 A 
ENDBRANCH   3   9
BRANCH   6  17
ATOM     17  C   LIG    1       38.339   1.387  14.875  0.00  0.00    +0.022 C 
ATOM     18  C   LIG    1       37.721   2.084  13.908  0.00  0.00    +0.008 C 
ENDBRANCH   6  17
TORSDOF 2
ENDMDL
MODEL 9
REMARK VINA RESULT:      -7.9      1.701      2.213
REMARK  Name = 
REMARK                            x       y       z     vdW  Elec       q    Type
REMARK                         _______ _______ _______ _____ _____    ______ ____
ROOT
ATOM      1  O   LIG    1       41.340  -1.420  13.759  0.00  0.00    -0.225 OA
ATOM      2  C   LIG    1       40.800  -0.877  14.710  0.00  0.00    +0.415 C 
ATOM      3  N   LIG    1       41.152  -0.922  16.030  0.00  0.00    -0.172 N 
ATOM      4  C   LIG    1       40.307  -0.109  16.744  0.00  0.00    +0.276 C 
ATOM      5  O   LIG    1       40.253   0.075  17.953  0.00  0.00    -0.270 OA
ATOM      6  C   LIG    1       39.387   0.568  15.743  0.00  0.00    +0.206 C 
ATOM      7  C   LIG    1       39.756   2.046  15.630  0.00  0.00    +0.071 C 
ATOM      8  O   LIG    1       39.712  -0.076  14.517  0.00  0.00    -0.430 OA
ENDROOT
BRANCH   3   9
ATOM      9  C   LIG    1       42.220  -1.697  16.581  0.00  0.00    +0.050 A 
ATOM     10  C   LIG    1       43.004  -1.221  17.646  0.00  0.00    +0.044 A 
ATOM     11  C   LIG    1       44.053  -1.984  18.176  0.00  0.00    +0.044 A 
ATOM     12 CL   LIG    1       44.997  -1.352  19.469  0.00  0.00    -0.083 Cl
ATOM     13  C   LIG    1       44.345  -3.241  17.668  0.00  0.00    +0.040 A 
ATOM     14  C   LIG    1       43.579  -3.730  16.620  0.00  0.00    +0.044 A 
ATOM     15 CL   LIG    1       43.915  -5.294  15.983  0.00  0.00    -0.083 Cl
ATOM     16  C   LIG    1       42.533  -2.973  16.080  0.00  0.00    +0.044 A 
ENDBRANCH   3   9
BRANCH   6  17
ATOM     17  C   LIG    1       37.926   0.356  16.055  0.00  0.00    +0.022 C 
ATOM     18  C   LIG    1       37.130   1.207  16.721  0.00  0.00    +0.008 C 
ENDBRANCH   6  17
TORSDOF 2
ENDMDL
