MODEL 1
REMARK VINA RESULT:      -6.5      0.000      0.000
REMARK  Name = 
REMARK                            x       y       z     vdW  Elec       q    Type
REMARK                         _______ _______ _______ _____ _____    ______ ____
ROOT
ATOM      1  O   LIG    1       18.211  26.791  13.328  0.00  0.00    -0.225 OA
ATOM      2  C   LIG    1       18.881  27.795  13.508  0.00  0.00    +0.415 C 
ATOM      3  N   LIG    1       19.381  28.665  12.580  0.00  0.00    -0.172 N 
ATOM      4  C   LIG    1       20.020  29.691  13.229  0.00  0.00    +0.276 C 
ATOM      5  O   LIG    1       20.645  30.632  12.756  0.00  0.00    -0.270 OA
ATOM      6  C   LIG    1       19.824  29.468  14.718  0.00  0.00    +0.206 C 
ATOM      7  C   LIG    1       18.854  30.512  15.268  0.00  0.00    +0.071 C 
ATOM      8  O   LIG    1       19.198  28.192  14.775  0.00  0.00    -0.430 OA
ENDROOT
BRANCH   3   9
ATOM      9  C   LIG    1       19.265  28.525  11.160  0.00  0.00    +0.050 A 
ATOM     10  C   LIG    1       18.065  28.806  10.486  0.00  0.00    +0.044 A 
ATOM     11  C   LIG    1       17.959  28.660   9.097  0.00  0.00    +0.044 A 
ATOM     12 CL   LIG    1       16.462  28.999   8.317  0.00  0.00    -0.083 Cl
ATOM     13  C   LIG    1       19.043  28.239   8.341  0.00  0.00    +0.040 A 
ATOM     14  C   LIG    1       20.238  27.963   8.988  0.00  0.00    +0.044 A 
ATOM     15 CL   LIG    1       21.601  27.452   8.068  0.00  0.00    -0.083 Cl
ATOM     16  C   LIG    1       20.352  28.099  10.377  0.00  0.00    +0.044 A 
ENDBRANCH   3   9
BRANCH   6  17
ATOM     17  C   LIG    1       21.126  29.428  15.479  0.00  0.00    +0.022 C 
ATOM     18  C   LIG    1       22.337  29.174  14.958  0.00  0.00    +0.008 C 
ENDBRANCH   6  17
TORSDOF 2
ENDMDL
MODEL 2
REMARK VINA RESULT:      -6.5      0.122      2.119
REMARK  Name = 
REMARK                            x       y       z     vdW  Elec       q    Type
REMARK                         _______ _______ _______ _____ _____    ______ ____
ROOT
ATOM      1  O   LIG    1       18.186  26.759  13.340  0.00  0.00    -0.225 OA
ATOM      2  C   LIG    1       18.842  27.774  13.511  0.00  0.00    +0.415 C 
ATOM      3  N   LIG    1       19.304  28.659  12.578  0.00  0.00    -0.172 N 
ATOM      4  C   LIG    1       19.939  29.693  13.220  0.00  0.00    +0.276 C 
ATOM      5  O   LIG    1       20.536  30.647  12.740  0.00  0.00    -0.270 OA
ATOM      6  C   LIG    1       19.783  29.455  14.712  0.00  0.00    +0.206 C 
ATOM      7  C   LIG    1       18.807  30.477  15.291  0.00  0.00    +0.071 C 
ATOM      8  O   LIG    1       19.181  28.167  14.774  0.00  0.00    -0.430 OA
ENDROOT
BRANCH   3   9
ATOM      9  C   LIG    1       19.158  28.527  11.161  0.00  0.00    +0.050 A 
ATOM     10  C   LIG    1       20.216  28.089  10.347  0.00  0.00    +0.044 A 
ATOM     11  C   LIG    1       20.066  27.969   8.960  0.00  0.00    +0.044 A 
ATOM     12 CL   LIG    1       21.397  27.444   8.002  0.00  0.00    -0.083 Cl
ATOM     13  C   LIG    1       18.861  28.272   8.346  0.00  0.00    +0.040 A 
ATOM     14  C   LIG    1       17.802  28.700   9.133  0.00  0.00    +0.044 A 
ATOM     15 CL   LIG    1       16.292  29.070   8.393  0.00  0.00    -0.083 Cl
ATOM     16  C   LIG    1       17.944  28.831  10.519  0.00  0.00    +0.044 A 
ENDBRANCH   3   9
BRANCH   6  17
ATOM     17  C   LIG    1       21.103  29.433  15.441  0.00  0.00    +0.022 C 
ATOM     18  C   LIG    1       22.303  29.181  14.894  0.00  0.00    +0.008 C 
ENDBRANCH   6  17
TORSDOF 2
ENDMDL
MODEL 3
REMARK VINA RESULT:      -6.2      3.333      5.587
REMARK  Name = 
REMARK                            x       y       z     vdW  Elec       q    Type
REMARK                         _______ _______ _______ _____ _____    ______ ____
ROOT
ATOM      1  O   LIG    1       17.535  28.473   8.603  0.00  0.00    -0.225 OA
ATOM      2  C   LIG    1       18.719  28.539   8.893  0.00  0.00    +0.415 C 
ATOM      3  N   LIG    1       19.291  29.027  10.034  0.00  0.00    -0.172 N 
ATOM      4  C   LIG    1       20.650  28.844   9.964  0.00  0.00    +0.276 C 
ATOM      5  O   LIG    1       21.516  29.197  10.753  0.00  0.00    -0.270 OA
ATOM      6  C   LIG    1       20.934  28.093   8.675  0.00  0.00    +0.206 C 
ATOM      7  C   LIG    1       21.353  26.661   9.001  0.00  0.00    +0.071 C 
ATOM      8  O   LIG    1       19.664  28.059   8.033  0.00  0.00    -0.430 OA
ENDROOT
BRANCH   3   9
ATOM      9  C   LIG    1       18.591  29.638  11.122  0.00  0.00    +0.050 A 
ATOM     10  C   LIG    1       18.767  29.207  12.448  0.00  0.00    +0.044 A 
ATOM     11  C   LIG    1       18.072  29.807  13.506  0.00  0.00    +0.044 A 
ATOM     12 CL   LIG    1       18.307  29.234  15.112  0.00  0.00    -0.083 Cl
ATOM     13  C   LIG    1       17.192  30.854  13.276  0.00  0.00    +0.040 A 
ATOM     14  C   LIG    1       17.009  31.296  11.975  0.00  0.00    +0.044 A 
ATOM     15 CL   LIG    1       15.931  32.604  11.668  0.00  0.00    -0.083 Cl
ATOM     16  C   LIG    1       17.694  30.699  10.909  0.00  0.00    +0.044 A 
ENDBRANCH   3   9
BRANCH   6  17
ATOM     17  C   LIG    1       21.929  28.803   7.792  0.00  0.00    +0.022 C 
ATOM     18  C   LIG    1       21.967  30.122   7.548  0.00  0.00    +0.008 C 
ENDBRANCH   6  17
TORSDOF 2
ENDMDL
MODEL 4
REMARK VINA RESULT:      -6.2      3.319      5.324
REMARK  Name = 
REMARK                            x       y       z     vdW  Elec       q    Type
REMARK                         _______ _______ _______ _____ _____    ______ ____
ROOT
ATOM      1  O   LIG    1       17.471  28.330   8.795  0.00  0.00    -0.225 OA
ATOM      2  C   LIG    1       18.662  28.437   9.042  0.00  0.00    +0.415 C 
ATOM      3  N   LIG    1       19.259  28.984  10.143  0.00  0.00    -0.172 N 
ATOM      4  C   LIG    1       20.619  28.832  10.034  0.00  0.00    +0.276 C 
ATOM      5  O   LIG    1       21.502  29.236  10.779  0.00  0.00    -0.270 OA
ATOM      6  C   LIG    1       20.879  28.037   8.766  0.00  0.00    +0.206 C 
ATOM      7  C   LIG    1       21.346  26.629   9.134  0.00  0.00    +0.071 C 
ATOM      8  O   LIG    1       19.591  27.947   8.170  0.00  0.00    -0.430 OA
ENDROOT
BRANCH   3   9
ATOM      9  C   LIG    1       18.580  29.620  11.229  0.00  0.00    +0.050 A 
ATOM     10  C   LIG    1       17.677  30.677  11.018  0.00  0.00    +0.044 A 
ATOM     11  C   LIG    1       17.021  31.298  12.088  0.00  0.00    +0.044 A 
ATOM     12 CL   LIG    1       15.937  32.600  11.781  0.00  0.00    -0.083 Cl
ATOM     13  C   LIG    1       17.237  30.883  13.393  0.00  0.00    +0.040 A 
ATOM     14  C   LIG    1       18.120  29.838  13.621  0.00  0.00    +0.044 A 
ATOM     15 CL   LIG    1       18.394  29.297  15.233  0.00  0.00    -0.083 Cl
ATOM     16  C   LIG    1       18.786  29.214  12.560  0.00  0.00    +0.044 A 
ENDBRANCH   3   9
BRANCH   6  17
ATOM     17  C   LIG    1       21.827  28.735   7.823  0.00  0.00    +0.022 C 
ATOM     18  C   LIG    1       21.890  30.058   7.605  0.00  0.00    +0.008 C 
ENDBRANCH   6  17
TORSDOF 2
ENDMDL
MODEL 5
REMARK VINA RESULT:      -6.0      3.919      6.473
REMARK  Name = 
REMARK                            x       y       z     vdW  Elec       q    Type
REMARK                         _______ _______ _______ _____ _____    ______ ____
ROOT
ATOM      1  O   LIG    1       21.270  31.124   7.860  0.00  0.00    -0.225 OA
ATOM      2  C   LIG    1       21.867  30.070   7.704  0.00  0.00    +0.415 C 
ATOM      3  N   LIG    1       21.569  28.838   8.213  0.00  0.00    -0.172 N 
ATOM      4  C   LIG    1       22.471  27.925   7.727  0.00  0.00    +0.276 C 
ATOM      5  O   LIG    1       22.580  26.735   7.990  0.00  0.00    -0.270 OA
ATOM      6  C   LIG    1       23.372  28.663   6.753  0.00  0.00    +0.206 C 
ATOM      7  C   LIG    1       23.051  28.221   5.326  0.00  0.00    +0.071 C 
ATOM      8  O   LIG    1       22.974  30.020   6.908  0.00  0.00    -0.430 OA
ENDROOT
BRANCH   3   9
ATOM      9  C   LIG    1       20.497  28.546   9.116  0.00  0.00    +0.050 A 
ATOM     10  C   LIG    1       20.724  28.329  10.485  0.00  0.00    +0.044 A 
ATOM     11  C   LIG    1       19.670  28.038  11.360  0.00  0.00    +0.044 A 
ATOM     12 CL   LIG    1       19.998  27.761  13.028  0.00  0.00    -0.083 Cl
ATOM     13  C   LIG    1       18.364  27.963  10.900  0.00  0.00    +0.040 A 
ATOM     14  C   LIG    1       18.119  28.180   9.553  0.00  0.00    +0.044 A 
ATOM     15 CL   LIG    1       16.504  28.105   8.962  0.00  0.00    -0.083 Cl
ATOM     16  C   LIG    1       19.167  28.465   8.668  0.00  0.00    +0.044 A 
ENDBRANCH   3   9
BRANCH   6  17
ATOM     17  C   LIG    1       24.836  28.522   7.089  0.00  0.00    +0.022 C 
ATOM     18  C   LIG    1       25.808  29.386   6.756  0.00  0.00    +0.008 C 
ENDBRANCH   6  17
TORSDOF 2
ENDMDL
MODEL 6
REMARK VINA RESULT:      -6.0      3.929      6.266
REMARK  Name = 
REMARK                            x       y       z     vdW  Elec       q    Type
REMARK                         _______ _______ _______ _____ _____    ______ ____
ROOT
ATOM      1  O   LIG    1       21.312  31.106   7.849  0.00  0.00    -0.225 OA
ATOM      2  C   LIG    1       21.904  30.048   7.694  0.00  0.00    +0.415 C 
ATOM      3  N   LIG    1       21.596  28.817   8.200  0.00  0.00    -0.172 N 
ATOM      4  C   LIG    1       22.494  27.899   7.717  0.00  0.00    +0.276 C 
ATOM      5  O   LIG    1       22.595  26.708   7.979  0.00  0.00    -0.270 OA
ATOM      6  C   LIG    1       23.405  28.633   6.748  0.00  0.00    +0.206 C 
ATOM      7  C   LIG    1       23.088  28.195   5.319  0.00  0.00    +0.071 C 
ATOM      8  O   LIG    1       23.014  29.993   6.903  0.00  0.00    -0.430 OA
ENDROOT
BRANCH   3   9
ATOM      9  C   LIG    1       20.518  28.531   9.097  0.00  0.00    +0.050 A 
ATOM     10  C   LIG    1       19.188  28.452   8.651  0.00  0.00    +0.044 A 
ATOM     11  C   LIG    1       18.138  28.178   9.536  0.00  0.00    +0.044 A 
ATOM     12 CL   LIG    1       16.522  28.109   8.946  0.00  0.00    -0.083 Cl
ATOM     13  C   LIG    1       18.382  27.966  10.885  0.00  0.00    +0.040 A 
ATOM     14  C   LIG    1       19.689  28.034  11.343  0.00  0.00    +0.044 A 
ATOM     15 CL   LIG    1       20.017  27.762  13.012  0.00  0.00    -0.083 Cl
ATOM     16  C   LIG    1       20.745  28.315  10.468  0.00  0.00    +0.044 A 
ENDBRANCH   3   9
BRANCH   6  17
ATOM     17  C   LIG    1       24.866  28.483   7.091  0.00  0.00    +0.022 C 
ATOM     18  C   LIG    1       25.830  29.384   6.847  0.00  0.00    +0.008 C 
ENDBRANCH   6  17
TORSDOF 2
ENDMDL
MODEL 7
REMARK VINA RESULT:      -6.0      2.865      3.824
REMARK  Name = 
REMARK                            x       y       z     vdW  Elec       q    Type
REMARK                         _______ _______ _______ _____ _____    ______ ____
ROOT
ATOM      1  O   LIG    1       18.126  28.391   8.594  0.00  0.00    -0.225 OA
ATOM      2  C   LIG    1       18.653  28.673   9.659  0.00  0.00    +0.415 C 
ATOM      3  N   LIG    1       19.977  28.879   9.928  0.00  0.00    -0.172 N 
ATOM      4  C   LIG    1       20.113  29.240  11.245  0.00  0.00    +0.276 C 
ATOM      5  O   LIG    1       21.135  29.450  11.885  0.00  0.00    -0.270 OA
ATOM      6  C   LIG    1       18.714  29.342  11.827  0.00  0.00    +0.206 C 
ATOM      7  C   LIG    1       18.370  30.809  12.074  0.00  0.00    +0.071 C 
ATOM      8  O   LIG    1       17.889  28.853  10.776  0.00  0.00    -0.430 OA
ENDROOT
BRANCH   3   9
ATOM      9  C   LIG    1       21.049  28.734   8.992  0.00  0.00    +0.050 A 
ATOM     10  C   LIG    1       21.272  29.674   7.972  0.00  0.00    +0.044 A 
ATOM     11  C   LIG    1       22.320  29.521   7.056  0.00  0.00    +0.044 A 
ATOM     12 CL   LIG    1       22.543  30.690   5.813  0.00  0.00    -0.083 Cl
ATOM     13  C   LIG    1       23.179  28.435   7.134  0.00  0.00    +0.040 A 
ATOM     14  C   LIG    1       22.979  27.498   8.137  0.00  0.00    +0.044 A 
ATOM     15 CL   LIG    1       24.041  26.148   8.261  0.00  0.00    -0.083 Cl
ATOM     16  C   LIG    1       21.930  27.639   9.053  0.00  0.00    +0.044 A 
ENDBRANCH   3   9
BRANCH   6  17
ATOM     17  C   LIG    1       18.528  28.487  13.056  0.00  0.00    +0.022 C 
ATOM     18  C   LIG    1       18.502  27.145  13.086  0.00  0.00    +0.008 C 
ENDBRANCH   6  17
TORSDOF 2
ENDMDL
MODEL 8
REMARK VINA RESULT:      -6.0      2.857      4.089
REMARK  Name = 
REMARK                            x       y       z     vdW  Elec       q    Type
REMARK                         _______ _______ _______ _____ _____    ______ ____
ROOT
ATOM      1  O   LIG    1       18.113  28.398   8.613  0.00  0.00    -0.225 OA
ATOM      2  C   LIG    1       18.642  28.679   9.677  0.00  0.00    +0.415 C 
ATOM      3  N   LIG    1       19.967  28.880   9.944  0.00  0.00    -0.172 N 
ATOM      4  C   LIG    1       20.106  29.242  11.260  0.00  0.00    +0.276 C 
ATOM      5  O   LIG    1       21.130  29.449  11.898  0.00  0.00    -0.270 OA
ATOM      6  C   LIG    1       18.709  29.350  11.844  0.00  0.00    +0.206 C 
ATOM      7  C   LIG    1       18.371  30.820  12.090  0.00  0.00    +0.071 C 
ATOM      8  O   LIG    1       17.881  28.864  10.794  0.00  0.00    -0.430 OA
ENDROOT
BRANCH   3   9
ATOM      9  C   LIG    1       21.038  28.729   9.007  0.00  0.00    +0.050 A 
ATOM     10  C   LIG    1       21.918  27.634   9.062  0.00  0.00    +0.044 A 
ATOM     11  C   LIG    1       22.967  27.498   8.144  0.00  0.00    +0.044 A 
ATOM     12 CL   LIG    1       24.031  26.149   8.261  0.00  0.00    -0.083 Cl
ATOM     13  C   LIG    1       23.166  28.438   7.144  0.00  0.00    +0.040 A 
ATOM     14  C   LIG    1       22.304  29.522   7.071  0.00  0.00    +0.044 A 
ATOM     15 CL   LIG    1       22.523  30.696   5.829  0.00  0.00    -0.083 Cl
ATOM     16  C   LIG    1       21.256  29.672   7.987  0.00  0.00    +0.044 A 
ENDBRANCH   3   9
BRANCH   6  17
ATOM     17  C   LIG    1       18.522  28.497  13.074  0.00  0.00    +0.022 C 
ATOM     18  C   LIG    1       18.491  27.156  13.106  0.00  0.00    +0.008 C 
ENDBRANCH   6  17
TORSDOF 2
ENDMDL
MODEL 9
REMARK VINA RESULT:      -6.0      1.797      2.379
REMARK  Name = 
REMARK                            x       y       z     vdW  Elec       q    Type
REMARK                         _______ _______ _______ _____ _____    ______ ____
ROOT
ATOM      1  O   LIG    1       17.889  26.792  12.718  0.00  0.00    -0.225 OA
ATOM      2  C   LIG    1       18.613  27.731  13.012  0.00  0.00    +0.415 C 
ATOM      3  N   LIG    1       18.633  28.990  12.481  0.00  0.00    -0.172 N 
ATOM      4  C   LIG    1       19.562  29.743  13.156  0.00  0.00    +0.276 C 
ATOM      5  O   LIG    1       19.921  30.894  12.946  0.00  0.00    -0.270 OA
ATOM      6  C   LIG    1       20.116  28.874  14.272  0.00  0.00    +0.206 C 
ATOM      7  C   LIG    1       19.598  29.380  15.617  0.00  0.00    +0.071 C 
ATOM      8  O   LIG    1       19.533  27.602  14.011  0.00  0.00    -0.430 OA
ENDROOT
BRANCH   3   9
ATOM      9  C   LIG    1       17.826  29.449  11.393  0.00  0.00    +0.050 A 
ATOM     10  C   LIG    1       17.103  30.652  11.466  0.00  0.00    +0.044 A 
ATOM     11  C   LIG    1       16.310  31.090  10.398  0.00  0.00    +0.044 A 
ATOM     12 CL   LIG    1       15.429  32.563  10.540  0.00  0.00    -0.083 Cl
ATOM     13  C   LIG    1       16.220  30.351   9.228  0.00  0.00    +0.040 A 
ATOM     14  C   LIG    1       16.930  29.163   9.136  0.00  0.00    +0.044 A 
ATOM     15 CL   LIG    1       16.843  28.235   7.688  0.00  0.00    -0.083 Cl
ATOM     16  C   LIG    1       17.721  28.713  10.199  0.00  0.00    +0.044 A 
ENDBRANCH   3   9
BRANCH   6  17
ATOM     17  C   LIG    1       21.619  28.760  14.233  0.00  0.00    +0.022 C 
ATOM     18  C   LIG    1       22.477  29.351  15.079  0.00  0.00    +0.008 C 
ENDBRANCH   6  17
TORSDOF 2
ENDMDL
