MODEL 1
REMARK VINA RESULT:      -7.6      0.000      0.000
REMARK  Name = 
REMARK                            x       y       z     vdW  Elec       q    Type
REMARK                         _______ _______ _______ _____ _____    ______ ____
ROOT
ATOM      1  O   LIG    1       31.693  -2.822  25.626  0.00  0.00    -0.225 OA
ATOM      2  C   LIG    1       31.763  -1.788  26.272  0.00  0.00    +0.415 C 
ATOM      3  N   LIG    1       30.820  -1.224  27.083  0.00  0.00    -0.172 N 
ATOM      4  C   LIG    1       31.348  -0.097  27.663  0.00  0.00    +0.276 C 
ATOM      5  O   LIG    1       30.806   0.716  28.401  0.00  0.00    -0.270 OA
ATOM      6  C   LIG    1       32.797  -0.004  27.220  0.00  0.00    +0.206 C 
ATOM      7  C   LIG    1       33.712  -0.323  28.401  0.00  0.00    +0.071 C 
ATOM      8  O   LIG    1       32.911  -1.049  26.262  0.00  0.00    -0.430 OA
ENDROOT
BRANCH   3   9
ATOM      9  C   LIG    1       29.493  -1.719  27.288  0.00  0.00    +0.050 A 
ATOM     10  C   LIG    1       28.370  -1.065  26.754  0.00  0.00    +0.044 A 
ATOM     11  C   LIG    1       27.075  -1.553  26.965  0.00  0.00    +0.044 A 
ATOM     12 CL   LIG    1       25.727  -0.708  26.305  0.00  0.00    -0.083 Cl
ATOM     13  C   LIG    1       26.861  -2.707  27.703  0.00  0.00    +0.040 A 
ATOM     14  C   LIG    1       27.958  -3.370  28.234  0.00  0.00    +0.044 A 
ATOM     15 CL   LIG    1       27.717  -4.813  29.143  0.00  0.00    -0.083 Cl
ATOM     16  C   LIG    1       29.256  -2.887  28.034  0.00  0.00    +0.044 A 
ENDBRANCH   3   9
BRANCH   6  17
ATOM     17  C   LIG    1       33.126   1.317  26.571  0.00  0.00    +0.022 C 
ATOM     18  C   LIG    1       33.947   2.256  27.065  0.00  0.00    +0.008 C 
ENDBRANCH   6  17
TORSDOF 2
ENDMDL
MODEL 2
REMARK VINA RESULT:      -7.6      0.126      2.120
REMARK  Name = 
REMARK                            x       y       z     vdW  Elec       q    Type
REMARK                         _______ _______ _______ _____ _____    ______ ____
ROOT
ATOM      1  O   LIG    1       31.702  -2.984  25.720  0.00  0.00    -0.225 OA
ATOM      2  C   LIG    1       31.759  -1.904  26.287  0.00  0.00    +0.415 C 
ATOM      3  N   LIG    1       30.803  -1.287  27.044  0.00  0.00    -0.172 N 
ATOM      4  C   LIG    1       31.317  -0.117  27.544  0.00  0.00    +0.276 C 
ATOM      5  O   LIG    1       30.763   0.744  28.214  0.00  0.00    -0.270 OA
ATOM      6  C   LIG    1       32.771  -0.047  27.110  0.00  0.00    +0.206 C 
ATOM      7  C   LIG    1       33.676  -0.271  28.320  0.00  0.00    +0.071 C 
ATOM      8  O   LIG    1       32.902  -1.160  26.234  0.00  0.00    -0.430 OA
ENDROOT
BRANCH   3   9
ATOM      9  C   LIG    1       29.477  -1.776  27.272  0.00  0.00    +0.050 A 
ATOM     10  C   LIG    1       29.238  -2.938  28.026  0.00  0.00    +0.044 A 
ATOM     11  C   LIG    1       27.938  -3.412  28.239  0.00  0.00    +0.044 A 
ATOM     12 CL   LIG    1       27.695  -4.850  29.154  0.00  0.00    -0.083 Cl
ATOM     13  C   LIG    1       26.842  -2.742  27.717  0.00  0.00    +0.040 A 
ATOM     14  C   LIG    1       27.057  -1.590  26.975  0.00  0.00    +0.044 A 
ATOM     15 CL   LIG    1       25.710  -0.734  26.329  0.00  0.00    -0.083 Cl
ATOM     16  C   LIG    1       28.353  -1.111  26.751  0.00  0.00    +0.044 A 
ENDBRANCH   3   9
BRANCH   6  17
ATOM     17  C   LIG    1       33.098   1.224  26.367  0.00  0.00    +0.022 C 
ATOM     18  C   LIG    1       33.882   2.218  26.813  0.00  0.00    +0.008 C 
ENDBRANCH   6  17
TORSDOF 2
ENDMDL
MODEL 3
REMARK VINA RESULT:      -7.5      3.177      5.957
REMARK  Name = 
REMARK                            x       y       z     vdW  Elec       q    Type
REMARK                         _______ _______ _______ _____ _____    ______ ____
ROOT
ATOM      1  O   LIG    1       30.816  -2.839  27.013  0.00  0.00    -0.225 OA
ATOM      2  C   LIG    1       29.797  -2.215  27.266  0.00  0.00    +0.415 C 
ATOM      3  N   LIG    1       29.671  -0.926  27.701  0.00  0.00    -0.172 N 
ATOM      4  C   LIG    1       28.338  -0.614  27.792  0.00  0.00    +0.276 C 
ATOM      5  O   LIG    1       27.813   0.415  28.198  0.00  0.00    -0.270 OA
ATOM      6  C   LIG    1       27.562  -1.817  27.284  0.00  0.00    +0.206 C 
ATOM      7  C   LIG    1       26.941  -1.487  25.928  0.00  0.00    +0.071 C 
ATOM      8  O   LIG    1       28.575  -2.798  27.092  0.00  0.00    -0.430 OA
ENDROOT
BRANCH   3   9
ATOM      9  C   LIG    1       30.753  -0.045  28.019  0.00  0.00    +0.050 A 
ATOM     10  C   LIG    1       31.106   0.240  29.349  0.00  0.00    +0.044 A 
ATOM     11  C   LIG    1       32.162   1.108  29.652  0.00  0.00    +0.044 A 
ATOM     12 CL   LIG    1       32.546   1.441  31.297  0.00  0.00    -0.083 Cl
ATOM     13  C   LIG    1       32.901   1.708  28.644  0.00  0.00    +0.040 A 
ATOM     14  C   LIG    1       32.572   1.435  27.325  0.00  0.00    +0.044 A 
ATOM     15 CL   LIG    1       33.484   2.158  26.056  0.00  0.00    -0.083 Cl
ATOM     16  C   LIG    1       31.514   0.574  27.011  0.00  0.00    +0.044 A 
ENDBRANCH   3   9
BRANCH   6  17
ATOM     17  C   LIG    1       26.549  -2.322  28.280  0.00  0.00    +0.022 C 
ATOM     18  C   LIG    1       26.209  -3.605  28.478  0.00  0.00    +0.008 C 
ENDBRANCH   6  17
TORSDOF 2
ENDMDL
MODEL 4
REMARK VINA RESULT:      -7.3      3.123      5.683
REMARK  Name = 
REMARK                            x       y       z     vdW  Elec       q    Type
REMARK                         _______ _______ _______ _____ _____    ______ ____
ROOT
ATOM      1  O   LIG    1       31.420  -2.863  26.563  0.00  0.00    -0.225 OA
ATOM      2  C   LIG    1       30.371  -2.428  27.010  0.00  0.00    +0.415 C 
ATOM      3  N   LIG    1       30.139  -1.236  27.637  0.00  0.00    -0.172 N 
ATOM      4  C   LIG    1       28.799  -1.132  27.914  0.00  0.00    +0.276 C 
ATOM      5  O   LIG    1       28.204  -0.249  28.518  0.00  0.00    -0.270 OA
ATOM      6  C   LIG    1       28.124  -2.358  27.325  0.00  0.00    +0.206 C 
ATOM      7  C   LIG    1       27.300  -1.948  26.105  0.00  0.00    +0.071 C 
ATOM      8  O   LIG    1       29.220  -3.152  26.886  0.00  0.00    -0.430 OA
ENDROOT
BRANCH   3   9
ATOM      9  C   LIG    1       31.133  -0.259  27.961  0.00  0.00    +0.050 A 
ATOM     10  C   LIG    1       31.793   0.481  26.965  0.00  0.00    +0.044 A 
ATOM     11  C   LIG    1       32.769   1.431  27.291  0.00  0.00    +0.044 A 
ATOM     12 CL   LIG    1       33.563   2.301  26.035  0.00  0.00    -0.083 Cl
ATOM     13  C   LIG    1       33.109   1.677  28.612  0.00  0.00    +0.040 A 
ATOM     14  C   LIG    1       32.464   0.961  29.610  0.00  0.00    +0.044 A 
ATOM     15 CL   LIG    1       32.861   1.260  31.259  0.00  0.00    -0.083 Cl
ATOM     16  C   LIG    1       31.492   0.004  29.295  0.00  0.00    +0.044 A 
ENDBRANCH   3   9
BRANCH   6  17
ATOM     17  C   LIG    1       27.316  -3.125  28.341  0.00  0.00    +0.022 C 
ATOM     18  C   LIG    1       25.982  -3.275  28.337  0.00  0.00    +0.008 C 
ENDBRANCH   6  17
TORSDOF 2
ENDMDL
MODEL 5
REMARK VINA RESULT:      -6.9      3.487      6.201
REMARK  Name = 
REMARK                            x       y       z     vdW  Elec       q    Type
REMARK                         _______ _______ _______ _____ _____    ______ ____
ROOT
ATOM      1  O   LIG    1       28.401   1.900  26.407  0.00  0.00    -0.225 OA
ATOM      2  C   LIG    1       28.378   0.765  26.856  0.00  0.00    +0.415 C 
ATOM      3  N   LIG    1       29.328   0.121  27.597  0.00  0.00    -0.172 N 
ATOM      4  C   LIG    1       28.857  -1.121  27.943  0.00  0.00    +0.276 C 
ATOM      5  O   LIG    1       29.426  -2.019  28.550  0.00  0.00    -0.270 OA
ATOM      6  C   LIG    1       27.434  -1.220  27.423  0.00  0.00    +0.206 C 
ATOM      7  C   LIG    1       26.458  -1.174  28.597  0.00  0.00    +0.071 C 
ATOM      8  O   LIG    1       27.284  -0.028  26.661  0.00  0.00    -0.430 OA
ENDROOT
BRANCH   3   9
ATOM      9  C   LIG    1       30.610   0.650  27.949  0.00  0.00    +0.050 A 
ATOM     10  C   LIG    1       31.024   0.753  29.288  0.00  0.00    +0.044 A 
ATOM     11  C   LIG    1       32.278   1.278  29.624  0.00  0.00    +0.044 A 
ATOM     12 CL   LIG    1       32.735   1.401  31.279  0.00  0.00    -0.083 Cl
ATOM     13  C   LIG    1       33.157   1.707  28.640  0.00  0.00    +0.040 A 
ATOM     14  C   LIG    1       32.768   1.609  27.312  0.00  0.00    +0.044 A 
ATOM     15 CL   LIG    1       33.848   2.123  26.073  0.00  0.00    -0.083 Cl
ATOM     16  C   LIG    1       31.514   1.091  26.966  0.00  0.00    +0.044 A 
ENDBRANCH   3   9
BRANCH   6  17
ATOM     17  C   LIG    1       27.218  -2.420  26.535  0.00  0.00    +0.022 C 
ATOM     18  C   LIG    1       27.037  -3.684  26.947  0.00  0.00    +0.008 C 
ENDBRANCH   6  17
TORSDOF 2
ENDMDL
MODEL 6
REMARK VINA RESULT:      -6.9      3.489      6.013
REMARK  Name = 
REMARK                            x       y       z     vdW  Elec       q    Type
REMARK                         _______ _______ _______ _____ _____    ______ ____
ROOT
ATOM      1  O   LIG    1       28.348   1.918  26.470  0.00  0.00    -0.225 OA
ATOM      2  C   LIG    1       28.340   0.774  26.898  0.00  0.00    +0.415 C 
ATOM      3  N   LIG    1       29.304   0.126  27.617  0.00  0.00    -0.172 N 
ATOM      4  C   LIG    1       28.847  -1.127  27.945  0.00  0.00    +0.276 C 
ATOM      5  O   LIG    1       29.430  -2.031  28.528  0.00  0.00    -0.270 OA
ATOM      6  C   LIG    1       27.419  -1.228  27.438  0.00  0.00    +0.206 C 
ATOM      7  C   LIG    1       26.456  -1.212  28.624  0.00  0.00    +0.071 C 
ATOM      8  O   LIG    1       27.250  -0.024  26.700  0.00  0.00    -0.430 OA
ENDROOT
BRANCH   3   9
ATOM      9  C   LIG    1       30.585   0.660  27.964  0.00  0.00    +0.050 A 
ATOM     10  C   LIG    1       31.493   1.095  26.985  0.00  0.00    +0.044 A 
ATOM     11  C   LIG    1       32.748   1.610  27.333  0.00  0.00    +0.044 A 
ATOM     12 CL   LIG    1       33.835   2.115  26.097  0.00  0.00    -0.083 Cl
ATOM     13  C   LIG    1       33.130   1.715  28.662  0.00  0.00    +0.040 A 
ATOM     14  C   LIG    1       32.244   1.296  29.644  0.00  0.00    +0.044 A 
ATOM     15 CL   LIG    1       32.692   1.429  31.301  0.00  0.00    -0.083 Cl
ATOM     16  C   LIG    1       30.990   0.773  29.306  0.00  0.00    +0.044 A 
ENDBRANCH   3   9
BRANCH   6  17
ATOM     17  C   LIG    1       27.204  -2.414  26.531  0.00  0.00    +0.022 C 
ATOM     18  C   LIG    1       26.958  -3.673  26.923  0.00  0.00    +0.008 C 
ENDBRANCH   6  17
TORSDOF 2
ENDMDL
MODEL 7
REMARK VINA RESULT:      -6.1      1.549      2.251
REMARK  Name = 
REMARK                            x       y       z     vdW  Elec       q    Type
REMARK                         _______ _______ _______ _____ _____    ______ ____
ROOT
ATOM      1  O   LIG    1       29.493   1.766  26.892  0.00  0.00    -0.225 OA
ATOM      2  C   LIG    1       30.325   1.072  27.456  0.00  0.00    +0.415 C 
ATOM      3  N   LIG    1       30.214  -0.226  27.868  0.00  0.00    -0.172 N 
ATOM      4  C   LIG    1       31.414  -0.630  28.396  0.00  0.00    +0.276 C 
ATOM      5  O   LIG    1       31.705  -1.695  28.924  0.00  0.00    -0.270 OA
ATOM      6  C   LIG    1       32.390   0.520  28.219  0.00  0.00    +0.206 C 
ATOM      7  C   LIG    1       33.414   0.159  27.145  0.00  0.00    +0.071 C 
ATOM      8  O   LIG    1       31.567   1.571  27.725  0.00  0.00    -0.430 OA
ENDROOT
BRANCH   3   9
ATOM      9  C   LIG    1       29.035  -1.032  27.773  0.00  0.00    +0.050 A 
ATOM     10  C   LIG    1       27.853  -0.546  27.189  0.00  0.00    +0.044 A 
ATOM     11  C   LIG    1       26.702  -1.339  27.107  0.00  0.00    +0.044 A 
ATOM     12 CL   LIG    1       25.272  -0.694  26.398  0.00  0.00    -0.083 Cl
ATOM     13  C   LIG    1       26.697  -2.638  27.593  0.00  0.00    +0.040 A 
ATOM     14  C   LIG    1       27.856  -3.138  28.168  0.00  0.00    +0.044 A 
ATOM     15 CL   LIG    1       27.877  -4.752  28.767  0.00  0.00    -0.083 Cl
ATOM     16  C   LIG    1       29.010  -2.351  28.261  0.00  0.00    +0.044 A 
ENDBRANCH   3   9
BRANCH   6  17
ATOM     17  C   LIG    1       33.033   0.947  29.515  0.00  0.00    +0.022 C 
ATOM     18  C   LIG    1       32.397   1.161  30.678  0.00  0.00    +0.008 C 
ENDBRANCH   6  17
TORSDOF 2
ENDMDL
MODEL 8
REMARK VINA RESULT:      -5.8      9.332     10.764
REMARK  Name = 
REMARK                            x       y       z     vdW  Elec       q    Type
REMARK                         _______ _______ _______ _____ _____    ______ ____
ROOT
ATOM      1  O   LIG    1       33.944  -0.810  16.958  0.00  0.00    -0.225 OA
ATOM      2  C   LIG    1       34.265  -1.969  16.749  0.00  0.00    +0.415 C 
ATOM      3  N   LIG    1       33.909  -3.091  17.444  0.00  0.00    -0.172 N 
ATOM      4  C   LIG    1       34.445  -4.190  16.819  0.00  0.00    +0.276 C 
ATOM      5  O   LIG    1       34.407  -5.365  17.160  0.00  0.00    -0.270 OA
ATOM      6  C   LIG    1       35.140  -3.695  15.563  0.00  0.00    +0.206 C 
ATOM      7  C   LIG    1       34.338  -4.124  14.335  0.00  0.00    +0.071 C 
ATOM      8  O   LIG    1       35.060  -2.279  15.685  0.00  0.00    -0.430 OA
ENDROOT
BRANCH   3   9
ATOM      9  C   LIG    1       33.115  -3.117  18.634  0.00  0.00    +0.050 A 
ATOM     10  C   LIG    1       33.701  -3.165  19.910  0.00  0.00    +0.044 A 
ATOM     11  C   LIG    1       32.916  -3.197  21.070  0.00  0.00    +0.044 A 
ATOM     12 CL   LIG    1       33.678  -3.273  22.612  0.00  0.00    -0.083 Cl
ATOM     13  C   LIG    1       31.532  -3.174  20.993  0.00  0.00    +0.040 A 
ATOM     14  C   LIG    1       30.936  -3.122  19.742  0.00  0.00    +0.044 A 
ATOM     15 CL   LIG    1       29.218  -3.079  19.623  0.00  0.00    -0.083 Cl
ATOM     16  C   LIG    1       31.711  -3.096  18.576  0.00  0.00    +0.044 A 
ENDBRANCH   3   9
BRANCH   6  17
ATOM     17  C   LIG    1       36.586  -4.117  15.489  0.00  0.00    +0.022 C 
ATOM     18  C   LIG    1       37.544  -3.807  16.376  0.00  0.00    +0.008 C 
ENDBRANCH   6  17
TORSDOF 2
ENDMDL
MODEL 9
REMARK VINA RESULT:      -5.8      1.768      3.064
REMARK  Name = 
REMARK                            x       y       z     vdW  Elec       q    Type
REMARK                         _______ _______ _______ _____ _____    ______ ____
ROOT
ATOM      1  O   LIG    1       29.723   1.567  26.372  0.00  0.00    -0.225 OA
ATOM      2  C   LIG    1       30.412   1.049  27.237  0.00  0.00    +0.415 C 
ATOM      3  N   LIG    1       30.184  -0.107  27.930  0.00  0.00    -0.172 N 
ATOM      4  C   LIG    1       31.252  -0.347  28.758  0.00  0.00    +0.276 C 
ATOM      5  O   LIG    1       31.404  -1.242  29.579  0.00  0.00    -0.270 OA
ATOM      6  C   LIG    1       32.281   0.737  28.486  0.00  0.00    +0.206 C 
ATOM      7  C   LIG    1       33.474   0.133  27.748  0.00  0.00    +0.071 C 
ATOM      8  O   LIG    1       31.598   1.617  27.601  0.00  0.00    -0.430 OA
ENDROOT
BRANCH   3   9
ATOM      9  C   LIG    1       29.018  -0.928  27.820  0.00  0.00    +0.050 A 
ATOM     10  C   LIG    1       29.012  -2.264  28.256  0.00  0.00    +0.044 A 
ATOM     11  C   LIG    1       27.868  -3.063  28.139  0.00  0.00    +0.044 A 
ATOM     12 CL   LIG    1       27.914  -4.700  28.672  0.00  0.00    -0.083 Cl
ATOM     13  C   LIG    1       26.699  -2.556  27.592  0.00  0.00    +0.040 A 
ATOM     14  C   LIG    1       26.684  -1.238  27.160  0.00  0.00    +0.044 A 
ATOM     15 CL   LIG    1       25.239  -0.582  26.491  0.00  0.00    -0.083 Cl
ATOM     16  C   LIG    1       27.824  -0.432  27.268  0.00  0.00    +0.044 A 
ENDBRANCH   3   9
BRANCH   6  17
ATOM     17  C   LIG    1       32.686   1.483  29.732  0.00  0.00    +0.022 C 
ATOM     18  C   LIG    1       32.762   0.970  30.970  0.00  0.00    +0.008 C 
ENDBRANCH   6  17
TORSDOF 2
ENDMDL
