MODEL 1
REMARK VINA RESULT:      -7.9      0.000      0.000
REMARK  Name = 
REMARK                            x       y       z     vdW  Elec       q    Type
REMARK                         _______ _______ _______ _____ _____    ______ ____
ROOT
ATOM      1  O   LIG    1       66.530  50.495  95.799  0.00  0.00    -0.225 OA
ATOM      2  C   LIG    1       67.096  49.522  95.327  0.00  0.00    +0.415 C 
ATOM      3  N   LIG    1       67.508  48.384  95.961  0.00  0.00    -0.172 N 
ATOM      4  C   LIG    1       68.039  47.524  95.033  0.00  0.00    +0.276 C 
ATOM      5  O   LIG    1       68.568  46.433  95.206  0.00  0.00    -0.270 OA
ATOM      6  C   LIG    1       67.863  48.172  93.671  0.00  0.00    +0.206 C 
ATOM      7  C   LIG    1       66.791  47.421  92.884  0.00  0.00    +0.071 C 
ATOM      8  O   LIG    1       67.367  49.467  93.990  0.00  0.00    -0.430 OA
ENDROOT
BRANCH   3   9
ATOM      9  C   LIG    1       67.412  48.132  97.366  0.00  0.00    +0.050 A 
ATOM     10  C   LIG    1       66.682  47.043  97.873  0.00  0.00    +0.044 A 
ATOM     11  C   LIG    1       66.588  46.808  99.250  0.00  0.00    +0.044 A 
ATOM     12 CL   LIG    1       65.668  45.470  99.825  0.00  0.00    -0.083 Cl
ATOM     13  C   LIG    1       67.221  47.642 100.159  0.00  0.00    +0.040 A 
ATOM     14  C   LIG    1       67.950  48.719  99.678  0.00  0.00    +0.044 A 
ATOM     15 CL   LIG    1       68.756  49.760 100.789  0.00  0.00    -0.083 Cl
ATOM     16  C   LIG    1       68.046  48.966  98.304  0.00  0.00    +0.044 A 
ENDBRANCH   3   9
BRANCH   6  17
ATOM     17  C   LIG    1       69.160  48.298  92.911  0.00  0.00    +0.022 C 
ATOM     18  C   LIG    1       69.314  48.859  91.702  0.00  0.00    +0.008 C 
ENDBRANCH   6  17
TORSDOF 2
ENDMDL
MODEL 2
REMARK VINA RESULT:      -7.9      0.099      2.118
REMARK  Name = 
REMARK                            x       y       z     vdW  Elec       q    Type
REMARK                         _______ _______ _______ _____ _____    ______ ____
ROOT
ATOM      1  O   LIG    1       66.604  50.537  95.863  0.00  0.00    -0.225 OA
ATOM      2  C   LIG    1       67.164  49.567  95.376  0.00  0.00    +0.415 C 
ATOM      3  N   LIG    1       67.579  48.422  95.997  0.00  0.00    -0.172 N 
ATOM      4  C   LIG    1       68.100  47.569  95.056  0.00  0.00    +0.276 C 
ATOM      5  O   LIG    1       68.628  46.476  95.215  0.00  0.00    -0.270 OA
ATOM      6  C   LIG    1       67.914  48.231  93.702  0.00  0.00    +0.206 C 
ATOM      7  C   LIG    1       66.834  47.490  92.916  0.00  0.00    +0.071 C 
ATOM      8  O   LIG    1       67.424  49.524  94.037  0.00  0.00    -0.430 OA
ENDROOT
BRANCH   3   9
ATOM      9  C   LIG    1       67.493  48.157  97.400  0.00  0.00    +0.050 A 
ATOM     10  C   LIG    1       68.163  48.953  98.344  0.00  0.00    +0.044 A 
ATOM     11  C   LIG    1       68.079  48.683  99.716  0.00  0.00    +0.044 A 
ATOM     12 CL   LIG    1       68.932  49.676 100.834  0.00  0.00    -0.083 Cl
ATOM     13  C   LIG    1       67.321  47.621 100.186  0.00  0.00    +0.040 A 
ATOM     14  C   LIG    1       66.647  46.827  99.270  0.00  0.00    +0.044 A 
ATOM     15 CL   LIG    1       65.689  45.511  99.833  0.00  0.00    -0.083 Cl
ATOM     16  C   LIG    1       66.730  47.085  97.897  0.00  0.00    +0.044 A 
ENDBRANCH   3   9
BRANCH   6  17
ATOM     17  C   LIG    1       69.206  48.362  92.933  0.00  0.00    +0.022 C 
ATOM     18  C   LIG    1       69.334  48.819  91.678  0.00  0.00    +0.008 C 
ENDBRANCH   6  17
TORSDOF 2
ENDMDL
MODEL 3
REMARK VINA RESULT:      -7.7      3.148      5.990
REMARK  Name = 
REMARK                            x       y       z     vdW  Elec       q    Type
REMARK                         _______ _______ _______ _____ _____    ______ ____
ROOT
ATOM      1  O   LIG    1       67.507  49.290  98.411  0.00  0.00    -0.225 OA
ATOM      2  C   LIG    1       67.639  48.079  98.328  0.00  0.00    +0.415 C 
ATOM      3  N   LIG    1       67.937  47.326  97.227  0.00  0.00    -0.172 N 
ATOM      4  C   LIG    1       68.053  46.012  97.605  0.00  0.00    +0.276 C 
ATOM      5  O   LIG    1       68.251  45.025  96.908  0.00  0.00    -0.270 OA
ATOM      6  C   LIG    1       67.885  45.964  99.113  0.00  0.00    +0.206 C 
ATOM      7  C   LIG    1       69.232  45.656  99.766  0.00  0.00    +0.071 C 
ATOM      8  O   LIG    1       67.517  47.298  99.441  0.00  0.00    -0.430 OA
ENDROOT
BRANCH   3   9
ATOM      9  C   LIG    1       68.092  47.825  95.895  0.00  0.00    +0.050 A 
ATOM     10  C   LIG    1       69.118  48.724  95.559  0.00  0.00    +0.044 A 
ATOM     11  C   LIG    1       69.259  49.211  94.253  0.00  0.00    +0.044 A 
ATOM     12 CL   LIG    1       70.522  50.325  93.892  0.00  0.00    -0.083 Cl
ATOM     13  C   LIG    1       68.392  48.814  93.247  0.00  0.00    +0.040 A 
ATOM     14  C   LIG    1       67.376  47.923  93.559  0.00  0.00    +0.044 A 
ATOM     15 CL   LIG    1       66.294  47.405  92.323  0.00  0.00    -0.083 Cl
ATOM     16  C   LIG    1       67.222  47.434  94.862  0.00  0.00    +0.044 A 
ENDBRANCH   3   9
BRANCH   6  17
ATOM     17  C   LIG    1       66.797  45.015  99.550  0.00  0.00    +0.022 C 
ATOM     18  C   LIG    1       65.696  45.343 100.243  0.00  0.00    +0.008 C 
ENDBRANCH   6  17
TORSDOF 2
ENDMDL
MODEL 4
REMARK VINA RESULT:      -7.7      3.146      5.627
REMARK  Name = 
REMARK                            x       y       z     vdW  Elec       q    Type
REMARK                         _______ _______ _______ _____ _____    ______ ____
ROOT
ATOM      1  O   LIG    1       67.490  49.295  98.412  0.00  0.00    -0.225 OA
ATOM      2  C   LIG    1       67.620  48.083  98.330  0.00  0.00    +0.415 C 
ATOM      3  N   LIG    1       67.917  47.330  97.229  0.00  0.00    -0.172 N 
ATOM      4  C   LIG    1       68.033  46.016  97.607  0.00  0.00    +0.276 C 
ATOM      5  O   LIG    1       68.230  45.029  96.910  0.00  0.00    -0.270 OA
ATOM      6  C   LIG    1       67.865  45.968  99.115  0.00  0.00    +0.206 C 
ATOM      7  C   LIG    1       69.211  45.659  99.768  0.00  0.00    +0.071 C 
ATOM      8  O   LIG    1       67.497  47.303  99.443  0.00  0.00    -0.430 OA
ENDROOT
BRANCH   3   9
ATOM      9  C   LIG    1       68.073  47.828  95.897  0.00  0.00    +0.050 A 
ATOM     10  C   LIG    1       67.212  47.438  94.857  0.00  0.00    +0.044 A 
ATOM     11  C   LIG    1       67.375  47.926  93.555  0.00  0.00    +0.044 A 
ATOM     12 CL   LIG    1       66.305  47.406  92.310  0.00  0.00    -0.083 Cl
ATOM     13  C   LIG    1       68.393  48.818  93.252  0.00  0.00    +0.040 A 
ATOM     14  C   LIG    1       69.250  49.219  94.265  0.00  0.00    +0.044 A 
ATOM     15 CL   LIG    1       70.513  50.336  93.915  0.00  0.00    -0.083 Cl
ATOM     16  C   LIG    1       69.099  48.732  95.569  0.00  0.00    +0.044 A 
ENDBRANCH   3   9
BRANCH   6  17
ATOM     17  C   LIG    1       66.776  45.020  99.552  0.00  0.00    +0.022 C 
ATOM     18  C   LIG    1       65.677  45.349 100.249  0.00  0.00    +0.008 C 
ENDBRANCH   6  17
TORSDOF 2
ENDMDL
MODEL 5
REMARK VINA RESULT:      -7.7      0.923      2.223
REMARK  Name = 
REMARK                            x       y       z     vdW  Elec       q    Type
REMARK                         _______ _______ _______ _____ _____    ______ ____
ROOT
ATOM      1  O   LIG    1       69.806  46.460  95.906  0.00  0.00    -0.225 OA
ATOM      2  C   LIG    1       69.116  47.347  95.427  0.00  0.00    +0.415 C 
ATOM      3  N   LIG    1       68.224  48.167  96.058  0.00  0.00    -0.172 N 
ATOM      4  C   LIG    1       67.721  49.062  95.148  0.00  0.00    +0.276 C 
ATOM      5  O   LIG    1       66.859  49.917  95.303  0.00  0.00    -0.270 OA
ATOM      6  C   LIG    1       68.441  48.815  93.834  0.00  0.00    +0.206 C 
ATOM      7  C   LIG    1       69.401  49.970  93.552  0.00  0.00    +0.071 C 
ATOM      8  O   LIG    1       69.205  47.644  94.098  0.00  0.00    -0.430 OA
ENDROOT
BRANCH   3   9
ATOM      9  C   LIG    1       67.863  48.098  97.441  0.00  0.00    +0.050 A 
ATOM     10  C   LIG    1       67.036  47.077  97.939  0.00  0.00    +0.044 A 
ATOM     11  C   LIG    1       66.683  47.021  99.293  0.00  0.00    +0.044 A 
ATOM     12 CL   LIG    1       65.653  45.760  99.853  0.00  0.00    -0.083 Cl
ATOM     13  C   LIG    1       67.147  47.972 100.189  0.00  0.00    +0.040 A 
ATOM     14  C   LIG    1       67.969  48.985  99.718  0.00  0.00    +0.044 A 
ATOM     15 CL   LIG    1       68.568  50.170 100.815  0.00  0.00    -0.083 Cl
ATOM     16  C   LIG    1       68.323  49.054  98.365  0.00  0.00    +0.044 A 
ENDBRANCH   3   9
BRANCH   6  17
ATOM     17  C   LIG    1       67.494  48.554  92.689  0.00  0.00    +0.022 C 
ATOM     18  C   LIG    1       66.602  47.554  92.615  0.00  0.00    +0.008 C 
ENDBRANCH   6  17
TORSDOF 2
ENDMDL
MODEL 6
REMARK VINA RESULT:      -7.7      0.923      3.069
REMARK  Name = 
REMARK                            x       y       z     vdW  Elec       q    Type
REMARK                         _______ _______ _______ _____ _____    ______ ____
ROOT
ATOM      1  O   LIG    1       69.830  46.470  95.913  0.00  0.00    -0.225 OA
ATOM      2  C   LIG    1       69.139  47.353  95.430  0.00  0.00    +0.415 C 
ATOM      3  N   LIG    1       68.241  48.172  96.056  0.00  0.00    -0.172 N 
ATOM      4  C   LIG    1       67.738  49.063  95.141  0.00  0.00    +0.276 C 
ATOM      5  O   LIG    1       66.872  49.915  95.292  0.00  0.00    -0.270 OA
ATOM      6  C   LIG    1       68.463  48.815  93.830  0.00  0.00    +0.206 C 
ATOM      7  C   LIG    1       69.420  49.972  93.550  0.00  0.00    +0.071 C 
ATOM      8  O   LIG    1       69.231  47.648  94.101  0.00  0.00    -0.430 OA
ENDROOT
BRANCH   3   9
ATOM      9  C   LIG    1       67.876  48.105  97.438  0.00  0.00    +0.050 A 
ATOM     10  C   LIG    1       68.324  49.060  98.366  0.00  0.00    +0.044 A 
ATOM     11  C   LIG    1       67.967  48.984  99.718  0.00  0.00    +0.044 A 
ATOM     12 CL   LIG    1       68.555  50.168 100.822  0.00  0.00    -0.083 Cl
ATOM     13  C   LIG    1       67.151  47.964 100.182  0.00  0.00    +0.040 A 
ATOM     14  C   LIG    1       66.694  47.015  99.280  0.00  0.00    +0.044 A 
ATOM     15 CL   LIG    1       65.668  45.746  99.831  0.00  0.00    -0.083 Cl
ATOM     16  C   LIG    1       67.050  47.078  97.928  0.00  0.00    +0.044 A 
ENDBRANCH   3   9
BRANCH   6  17
ATOM     17  C   LIG    1       67.521  48.548  92.683  0.00  0.00    +0.022 C 
ATOM     18  C   LIG    1       66.624  47.551  92.615  0.00  0.00    +0.008 C 
ENDBRANCH   6  17
TORSDOF 2
ENDMDL
MODEL 7
REMARK VINA RESULT:      -7.3      3.114      6.240
REMARK  Name = 
REMARK                            x       y       z     vdW  Elec       q    Type
REMARK                         _______ _______ _______ _____ _____    ______ ____
ROOT
ATOM      1  O   LIG    1       68.008  44.559  96.417  0.00  0.00    -0.225 OA
ATOM      2  C   LIG    1       67.825  45.460  97.221  0.00  0.00    +0.415 C 
ATOM      3  N   LIG    1       67.736  46.804  96.991  0.00  0.00    -0.172 N 
ATOM      4  C   LIG    1       67.459  47.441  98.174  0.00  0.00    +0.276 C 
ATOM      5  O   LIG    1       67.363  48.640  98.400  0.00  0.00    -0.270 OA
ATOM      6  C   LIG    1       67.283  46.364  99.231  0.00  0.00    +0.206 C 
ATOM      7  C   LIG    1       65.809  46.269  99.620  0.00  0.00    +0.071 C 
ATOM      8  O   LIG    1       67.649  45.173  98.544  0.00  0.00    -0.430 OA
ENDROOT
BRANCH   3   9
ATOM      9  C   LIG    1       67.912  47.445  95.724  0.00  0.00    +0.050 A 
ATOM     10  C   LIG    1       68.946  48.371  95.503  0.00  0.00    +0.044 A 
ATOM     11  C   LIG    1       69.107  48.999  94.261  0.00  0.00    +0.044 A 
ATOM     12 CL   LIG    1       70.378  50.140  94.043  0.00  0.00    -0.083 Cl
ATOM     13  C   LIG    1       68.253  48.719  93.206  0.00  0.00    +0.040 A 
ATOM     14  C   LIG    1       67.230  47.803  93.403  0.00  0.00    +0.044 A 
ATOM     15 CL   LIG    1       66.165  47.430  92.103  0.00  0.00    -0.083 Cl
ATOM     16  C   LIG    1       67.056  47.175  94.642  0.00  0.00    +0.044 A 
ENDBRANCH   3   9
BRANCH   6  17
ATOM     17  C   LIG    1       68.187  46.561 100.422  0.00  0.00    +0.022 C 
ATOM     18  C   LIG    1       68.468  45.642 101.359  0.00  0.00    +0.008 C 
ENDBRANCH   6  17
TORSDOF 2
ENDMDL
MODEL 8
REMARK VINA RESULT:      -7.3      3.122      5.907
REMARK  Name = 
REMARK                            x       y       z     vdW  Elec       q    Type
REMARK                         _______ _______ _______ _____ _____    ______ ____
ROOT
ATOM      1  O   LIG    1       67.936  44.550  96.385  0.00  0.00    -0.225 OA
ATOM      2  C   LIG    1       67.798  45.449  97.200  0.00  0.00    +0.415 C 
ATOM      3  N   LIG    1       67.748  46.797  96.981  0.00  0.00    -0.172 N 
ATOM      4  C   LIG    1       67.515  47.433  98.175  0.00  0.00    +0.276 C 
ATOM      5  O   LIG    1       67.461  48.633  98.411  0.00  0.00    -0.270 OA
ATOM      6  C   LIG    1       67.325  46.354  99.227  0.00  0.00    +0.206 C 
ATOM      7  C   LIG    1       65.857  46.303  99.645  0.00  0.00    +0.071 C 
ATOM      8  O   LIG    1       67.639  45.158  98.524  0.00  0.00    -0.430 OA
ENDROOT
BRANCH   3   9
ATOM      9  C   LIG    1       67.919  47.443  95.716  0.00  0.00    +0.050 A 
ATOM     10  C   LIG    1       67.066  47.178  94.631  0.00  0.00    +0.044 A 
ATOM     11  C   LIG    1       67.245  47.810  93.394  0.00  0.00    +0.044 A 
ATOM     12 CL   LIG    1       66.186  47.439  92.087  0.00  0.00    -0.083 Cl
ATOM     13  C   LIG    1       68.268  48.727  93.204  0.00  0.00    +0.040 A 
ATOM     14  C   LIG    1       69.116  49.006  94.266  0.00  0.00    +0.044 A 
ATOM     15 CL   LIG    1       70.385  50.151  94.057  0.00  0.00    -0.083 Cl
ATOM     16  C   LIG    1       68.950  48.375  95.504  0.00  0.00    +0.044 A 
ENDBRANCH   3   9
BRANCH   6  17
ATOM     17  C   LIG    1       68.259  46.512 100.401  0.00  0.00    +0.022 C 
ATOM     18  C   LIG    1       68.392  45.653 101.424  0.00  0.00    +0.008 C 
ENDBRANCH   6  17
TORSDOF 2
ENDMDL
MODEL 9
REMARK VINA RESULT:      -6.2      1.965      2.686
REMARK  Name = 
REMARK                            x       y       z     vdW  Elec       q    Type
REMARK                         _______ _______ _______ _____ _____    ______ ____
ROOT
ATOM      1  O   LIG    1       68.703  49.938  97.744  0.00  0.00    -0.225 OA
ATOM      2  C   LIG    1       68.275  49.267  96.817  0.00  0.00    +0.415 C 
ATOM      3  N   LIG    1       67.855  47.967  96.828  0.00  0.00    -0.172 N 
ATOM      4  C   LIG    1       67.391  47.638  95.579  0.00  0.00    +0.276 C 
ATOM      5  O   LIG    1       66.988  46.559  95.166  0.00  0.00    -0.270 OA
ATOM      6  C   LIG    1       67.463  48.896  94.731  0.00  0.00    +0.206 C 
ATOM      7  C   LIG    1       66.050  49.416  94.471  0.00  0.00    +0.071 C 
ATOM      8  O   LIG    1       68.138  49.819  95.577  0.00  0.00    -0.430 OA
ENDROOT
BRANCH   3   9
ATOM      9  C   LIG    1       67.899  47.087  97.955  0.00  0.00    +0.050 A 
ATOM     10  C   LIG    1       69.117  46.631  98.488  0.00  0.00    +0.044 A 
ATOM     11  C   LIG    1       69.152  45.765  99.588  0.00  0.00    +0.044 A 
ATOM     12 CL   LIG    1       70.667  45.219 100.196  0.00  0.00    -0.083 Cl
ATOM     13  C   LIG    1       67.980  45.334 100.192  0.00  0.00    +0.040 A 
ATOM     14  C   LIG    1       66.768  45.778  99.683  0.00  0.00    +0.044 A 
ATOM     15 CL   LIG    1       65.300  45.267 100.425  0.00  0.00    -0.083 Cl
ATOM     16  C   LIG    1       66.722  46.639  98.580  0.00  0.00    +0.044 A 
ENDBRANCH   3   9
BRANCH   6  17
ATOM     17  C   LIG    1       68.253  48.700  93.461  0.00  0.00    +0.022 C 
ATOM     18  C   LIG    1       69.545  48.346  93.382  0.00  0.00    +0.008 C 
ENDBRANCH   6  17
TORSDOF 2
ENDMDL
