MODEL 1
REMARK VINA RESULT:      -7.3      0.000      0.000
REMARK  Name = 
REMARK                            x       y       z     vdW  Elec       q    Type
REMARK                         _______ _______ _______ _____ _____    ______ ____
ROOT
ATOM      1  O   LIG    1       38.761  27.384   8.832  0.00  0.00    -0.225 OA
ATOM      2  C   LIG    1       39.291  28.436   9.153  0.00  0.00    +0.415 C 
ATOM      3  N   LIG    1       40.481  28.631   9.796  0.00  0.00    -0.172 N 
ATOM      4  C   LIG    1       40.719  29.979   9.893  0.00  0.00    +0.276 C 
ATOM      5  O   LIG    1       41.642  30.560  10.449  0.00  0.00    -0.270 OA
ATOM      6  C   LIG    1       39.591  30.686   9.162  0.00  0.00    +0.206 C 
ATOM      7  C   LIG    1       40.123  31.285   7.862  0.00  0.00    +0.071 C 
ATOM      8  O   LIG    1       38.698  29.626   8.841  0.00  0.00    -0.430 OA
ENDROOT
BRANCH   3   9
ATOM      9  C   LIG    1       41.336  27.599  10.296  0.00  0.00    +0.050 A 
ATOM     10  C   LIG    1       40.957  26.786  11.377  0.00  0.00    +0.044 A 
ATOM     11  C   LIG    1       41.803  25.781  11.864  0.00  0.00    +0.044 A 
ATOM     12 CL   LIG    1       41.303  24.822  13.204  0.00  0.00    -0.083 Cl
ATOM     13  C   LIG    1       43.043  25.553  11.286  0.00  0.00    +0.040 A 
ATOM     14  C   LIG    1       43.432  26.342  10.213  0.00  0.00    +0.044 A 
ATOM     15 CL   LIG    1       44.961  26.067   9.471  0.00  0.00    -0.083 Cl
ATOM     16  C   LIG    1       42.597  27.352   9.723  0.00  0.00    +0.044 A 
ENDBRANCH   3   9
BRANCH   6  17
ATOM     17  C   LIG    1       38.883  31.702  10.023  0.00  0.00    +0.022 C 
ATOM     18  C   LIG    1       37.942  32.566   9.612  0.00  0.00    +0.008 C 
ENDBRANCH   6  17
TORSDOF 2
ENDMDL
MODEL 2
REMARK VINA RESULT:      -7.3      0.055      2.116
REMARK  Name = 
REMARK                            x       y       z     vdW  Elec       q    Type
REMARK                         _______ _______ _______ _____ _____    ______ ____
ROOT
ATOM      1  O   LIG    1       38.762  27.408   8.834  0.00  0.00    -0.225 OA
ATOM      2  C   LIG    1       39.293  28.459   9.158  0.00  0.00    +0.415 C 
ATOM      3  N   LIG    1       40.487  28.650   9.795  0.00  0.00    -0.172 N 
ATOM      4  C   LIG    1       40.724  29.998   9.900  0.00  0.00    +0.276 C 
ATOM      5  O   LIG    1       41.649  30.576  10.455  0.00  0.00    -0.270 OA
ATOM      6  C   LIG    1       39.591  30.708   9.181  0.00  0.00    +0.206 C 
ATOM      7  C   LIG    1       40.114  31.317   7.881  0.00  0.00    +0.071 C 
ATOM      8  O   LIG    1       38.697  29.649   8.859  0.00  0.00    -0.430 OA
ENDROOT
BRANCH   3   9
ATOM      9  C   LIG    1       41.346  27.615  10.283  0.00  0.00    +0.050 A 
ATOM     10  C   LIG    1       42.625  27.402   9.741  0.00  0.00    +0.044 A 
ATOM     11  C   LIG    1       43.458  26.383  10.220  0.00  0.00    +0.044 A 
ATOM     12 CL   LIG    1       45.010  26.148   9.514  0.00  0.00    -0.083 Cl
ATOM     13  C   LIG    1       43.046  25.554  11.253  0.00  0.00    +0.040 A 
ATOM     14  C   LIG    1       41.789  25.753  11.804  0.00  0.00    +0.044 A 
ATOM     15 CL   LIG    1       41.261  24.745  13.097  0.00  0.00    -0.083 Cl
ATOM     16  C   LIG    1       40.946  26.765  11.329  0.00  0.00    +0.044 A 
ENDBRANCH   3   9
BRANCH   6  17
ATOM     17  C   LIG    1       38.887  31.718  10.054  0.00  0.00    +0.022 C 
ATOM     18  C   LIG    1       37.965  32.605   9.647  0.00  0.00    +0.008 C 
ENDBRANCH   6  17
TORSDOF 2
ENDMDL
MODEL 3
REMARK VINA RESULT:      -7.2      3.453      6.100
REMARK  Name = 
REMARK                            x       y       z     vdW  Elec       q    Type
REMARK                         _______ _______ _______ _____ _____    ______ ____
ROOT
ATOM      1  O   LIG    1       38.462  27.991  10.284  0.00  0.00    -0.225 OA
ATOM      2  C   LIG    1       39.555  28.373  10.672  0.00  0.00    +0.415 C 
ATOM      3  N   LIG    1       40.200  29.543  10.388  0.00  0.00    -0.172 N 
ATOM      4  C   LIG    1       41.377  29.585  11.093  0.00  0.00    +0.276 C 
ATOM      5  O   LIG    1       42.261  30.432  11.067  0.00  0.00    -0.270 OA
ATOM      6  C   LIG    1       41.421  28.342  11.963  0.00  0.00    +0.206 C 
ATOM      7  C   LIG    1       41.218  28.736  13.425  0.00  0.00    +0.071 C 
ATOM      8  O   LIG    1       40.285  27.603  11.531  0.00  0.00    -0.430 OA
ENDROOT
BRANCH   3   9
ATOM      9  C   LIG    1       39.732  30.556   9.493  0.00  0.00    +0.050 A 
ATOM     10  C   LIG    1       40.228  30.671   8.183  0.00  0.00    +0.044 A 
ATOM     11  C   LIG    1       39.768  31.670   7.316  0.00  0.00    +0.044 A 
ATOM     12 CL   LIG    1       40.418  31.782   5.725  0.00  0.00    -0.083 Cl
ATOM     13  C   LIG    1       38.799  32.575   7.722  0.00  0.00    +0.040 A 
ATOM     14  C   LIG    1       38.294  32.474   9.010  0.00  0.00    +0.044 A 
ATOM     15 CL   LIG    1       37.081  33.579   9.533  0.00  0.00    -0.083 Cl
ATOM     16  C   LIG    1       38.751  31.484   9.887  0.00  0.00    +0.044 A 
ENDBRANCH   3   9
BRANCH   6  17
ATOM     17  C   LIG    1       42.670  27.523  11.751  0.00  0.00    +0.022 C 
ATOM     18  C   LIG    1       43.073  26.988  10.588  0.00  0.00    +0.008 C 
ENDBRANCH   6  17
TORSDOF 2
ENDMDL
MODEL 4
REMARK VINA RESULT:      -7.2      3.364      5.736
REMARK  Name = 
REMARK                            x       y       z     vdW  Elec       q    Type
REMARK                         _______ _______ _______ _____ _____    ______ ____
ROOT
ATOM      1  O   LIG    1       38.583  27.724  10.042  0.00  0.00    -0.225 OA
ATOM      2  C   LIG    1       39.641  28.114  10.511  0.00  0.00    +0.415 C 
ATOM      3  N   LIG    1       40.255  29.323  10.341  0.00  0.00    -0.172 N 
ATOM      4  C   LIG    1       41.394  29.355  11.106  0.00  0.00    +0.276 C 
ATOM      5  O   LIG    1       42.245  30.231  11.183  0.00  0.00    -0.270 OA
ATOM      6  C   LIG    1       41.442  28.056  11.890  0.00  0.00    +0.206 C 
ATOM      7  C   LIG    1       41.154  28.338  13.364  0.00  0.00    +0.071 C 
ATOM      8  O   LIG    1       40.357  27.311  11.350  0.00  0.00    -0.430 OA
ENDROOT
BRANCH   3   9
ATOM      9  C   LIG    1       39.793  30.380   9.495  0.00  0.00    +0.050 A 
ATOM     10  C   LIG    1       38.848  31.321   9.939  0.00  0.00    +0.044 A 
ATOM     11  C   LIG    1       38.396  32.349   9.102  0.00  0.00    +0.044 A 
ATOM     12 CL   LIG    1       37.225  33.469   9.684  0.00  0.00    -0.083 Cl
ATOM     13  C   LIG    1       38.876  32.475   7.807  0.00  0.00    +0.040 A 
ATOM     14  C   LIG    1       39.813  31.559   7.352  0.00  0.00    +0.044 A 
ATOM     15 CL   LIG    1       40.432  31.703   5.752  0.00  0.00    -0.083 Cl
ATOM     16  C   LIG    1       40.266  30.523   8.179  0.00  0.00    +0.044 A 
ENDBRANCH   3   9
BRANCH   6  17
ATOM     17  C   LIG    1       42.730  27.297  11.686  0.00  0.00    +0.022 C 
ATOM     18  C   LIG    1       43.181  26.809  10.519  0.00  0.00    +0.008 C 
ENDBRANCH   6  17
TORSDOF 2
ENDMDL
MODEL 5
REMARK VINA RESULT:      -7.2      3.031      6.073
REMARK  Name = 
REMARK                            x       y       z     vdW  Elec       q    Type
REMARK                         _______ _______ _______ _____ _____    ______ ____
ROOT
ATOM      1  O   LIG    1       42.839  29.491  11.694  0.00  0.00    -0.225 OA
ATOM      2  C   LIG    1       42.209  28.488  11.395  0.00  0.00    +0.415 C 
ATOM      3  N   LIG    1       41.268  28.332  10.416  0.00  0.00    -0.172 N 
ATOM      4  C   LIG    1       40.868  27.020  10.389  0.00  0.00    +0.276 C 
ATOM      5  O   LIG    1       40.004  26.492   9.701  0.00  0.00    -0.270 OA
ATOM      6  C   LIG    1       41.710  26.274  11.409  0.00  0.00    +0.206 C 
ATOM      7  C   LIG    1       42.705  25.370  10.685  0.00  0.00    +0.071 C 
ATOM      8  O   LIG    1       42.431  27.316  12.057  0.00  0.00    -0.430 OA
ENDROOT
BRANCH   3   9
ATOM      9  C   LIG    1       40.773  29.370   9.564  0.00  0.00    +0.050 A 
ATOM     10  C   LIG    1       41.207  29.502   8.234  0.00  0.00    +0.044 A 
ATOM     11  C   LIG    1       40.722  30.524   7.409  0.00  0.00    +0.044 A 
ATOM     12 CL   LIG    1       41.297  30.658   5.791  0.00  0.00    -0.083 Cl
ATOM     13  C   LIG    1       39.788  31.436   7.879  0.00  0.00    +0.040 A 
ATOM     14  C   LIG    1       39.344  31.317   9.187  0.00  0.00    +0.044 A 
ATOM     15 CL   LIG    1       38.174  32.430   9.788  0.00  0.00    -0.083 Cl
ATOM     16  C   LIG    1       39.827  30.303  10.022  0.00  0.00    +0.044 A 
ENDBRANCH   3   9
BRANCH   6  17
ATOM     17  C   LIG    1       40.877  25.529  12.422  0.00  0.00    +0.022 C 
ATOM     18  C   LIG    1       41.158  25.393  13.727  0.00  0.00    +0.008 C 
ENDBRANCH   6  17
TORSDOF 2
ENDMDL
MODEL 6
REMARK VINA RESULT:      -7.2      3.036      5.762
REMARK  Name = 
REMARK                            x       y       z     vdW  Elec       q    Type
REMARK                         _______ _______ _______ _____ _____    ______ ____
ROOT
ATOM      1  O   LIG    1       42.851  29.562  11.693  0.00  0.00    -0.225 OA
ATOM      2  C   LIG    1       42.224  28.554  11.408  0.00  0.00    +0.415 C 
ATOM      3  N   LIG    1       41.272  28.386  10.441  0.00  0.00    -0.172 N 
ATOM      4  C   LIG    1       40.879  27.071  10.427  0.00  0.00    +0.276 C 
ATOM      5  O   LIG    1       40.010  26.534   9.753  0.00  0.00    -0.270 OA
ATOM      6  C   LIG    1       41.738  26.337  11.442  0.00  0.00    +0.206 C 
ATOM      7  C   LIG    1       42.730  25.434  10.712  0.00  0.00    +0.071 C 
ATOM      8  O   LIG    1       42.461  27.387  12.074  0.00  0.00    -0.430 OA
ENDROOT
BRANCH   3   9
ATOM      9  C   LIG    1       40.761  29.415   9.588  0.00  0.00    +0.050 A 
ATOM     10  C   LIG    1       39.817  30.350  10.045  0.00  0.00    +0.044 A 
ATOM     11  C   LIG    1       39.317  31.350   9.201  0.00  0.00    +0.044 A 
ATOM     12 CL   LIG    1       38.149  32.464   9.800  0.00  0.00    -0.083 Cl
ATOM     13  C   LIG    1       39.746  31.453   7.886  0.00  0.00    +0.040 A 
ATOM     14  C   LIG    1       40.682  30.541   7.419  0.00  0.00    +0.044 A 
ATOM     15 CL   LIG    1       41.239  30.657   5.794  0.00  0.00    -0.083 Cl
ATOM     16  C   LIG    1       41.183  29.534   8.252  0.00  0.00    +0.044 A 
ENDBRANCH   3   9
BRANCH   6  17
ATOM     17  C   LIG    1       40.921  25.593  12.469  0.00  0.00    +0.022 C 
ATOM     18  C   LIG    1       41.211  25.479  13.775  0.00  0.00    +0.008 C 
ENDBRANCH   6  17
TORSDOF 2
ENDMDL
MODEL 7
REMARK VINA RESULT:      -6.9      1.326      1.942
REMARK  Name = 
REMARK                            x       y       z     vdW  Elec       q    Type
REMARK                         _______ _______ _______ _____ _____    ______ ____
ROOT
ATOM      1  O   LIG    1       39.620  29.371  12.496  0.00  0.00    -0.225 OA
ATOM      2  C   LIG    1       39.501  29.307  11.282  0.00  0.00    +0.415 C 
ATOM      3  N   LIG    1       40.115  28.454  10.408  0.00  0.00    -0.172 N 
ATOM      4  C   LIG    1       39.636  28.692   9.144  0.00  0.00    +0.276 C 
ATOM      5  O   LIG    1       39.975  28.183   8.083  0.00  0.00    -0.270 OA
ATOM      6  C   LIG    1       38.555  29.751   9.267  0.00  0.00    +0.206 C 
ATOM      7  C   LIG    1       37.187  29.113   9.026  0.00  0.00    +0.071 C 
ATOM      8  O   LIG    1       38.639  30.142  10.632  0.00  0.00    -0.430 OA
ENDROOT
BRANCH   3   9
ATOM      9  C   LIG    1       41.104  27.479  10.752  0.00  0.00    +0.050 A 
ATOM     10  C   LIG    1       40.839  26.453  11.674  0.00  0.00    +0.044 A 
ATOM     11  C   LIG    1       41.816  25.506  12.010  0.00  0.00    +0.044 A 
ATOM     12 CL   LIG    1       41.450  24.277  13.158  0.00  0.00    -0.083 Cl
ATOM     13  C   LIG    1       43.076  25.549  11.433  0.00  0.00    +0.040 A 
ATOM     14  C   LIG    1       43.354  26.552  10.516  0.00  0.00    +0.044 A 
ATOM     15 CL   LIG    1       44.909  26.617   9.778  0.00  0.00    -0.083 Cl
ATOM     16  C   LIG    1       42.388  27.507  10.179  0.00  0.00    +0.044 A 
ENDBRANCH   3   9
BRANCH   6  17
ATOM     17  C   LIG    1       38.803  30.945   8.381  0.00  0.00    +0.022 C 
ATOM     18  C   LIG    1       38.519  32.223   8.680  0.00  0.00    +0.008 C 
ENDBRANCH   6  17
TORSDOF 2
ENDMDL
MODEL 8
REMARK VINA RESULT:      -6.9      1.332      2.997
REMARK  Name = 
REMARK                            x       y       z     vdW  Elec       q    Type
REMARK                         _______ _______ _______ _____ _____    ______ ____
ROOT
ATOM      1  O   LIG    1       39.751  29.504  12.512  0.00  0.00    -0.225 OA
ATOM      2  C   LIG    1       39.482  29.307  11.338  0.00  0.00    +0.415 C 
ATOM      3  N   LIG    1       39.989  28.359  10.494  0.00  0.00    -0.172 N 
ATOM      4  C   LIG    1       39.355  28.458   9.281  0.00  0.00    +0.276 C 
ATOM      5  O   LIG    1       39.564  27.832   8.249  0.00  0.00    -0.270 OA
ATOM      6  C   LIG    1       38.290  29.531   9.419  0.00  0.00    +0.206 C 
ATOM      7  C   LIG    1       36.908  28.880   9.422  0.00  0.00    +0.071 C 
ATOM      8  O   LIG    1       38.540  30.071  10.712  0.00  0.00    -0.430 OA
ENDROOT
BRANCH   3   9
ATOM      9  C   LIG    1       41.020  27.421  10.819  0.00  0.00    +0.050 A 
ATOM     10  C   LIG    1       42.285  27.476  10.209  0.00  0.00    +0.044 A 
ATOM     11  C   LIG    1       43.287  26.550  10.528  0.00  0.00    +0.044 A 
ATOM     12 CL   LIG    1       44.816  26.645   9.742  0.00  0.00    -0.083 Cl
ATOM     13  C   LIG    1       43.062  25.553  11.465  0.00  0.00    +0.040 A 
ATOM     14  C   LIG    1       41.821  25.486  12.081  0.00  0.00    +0.044 A 
ATOM     15 CL   LIG    1       41.524  24.264  13.257  0.00  0.00    -0.083 Cl
ATOM     16  C   LIG    1       40.811  26.403  11.765  0.00  0.00    +0.044 A 
ENDBRANCH   3   9
BRANCH   6  17
ATOM     17  C   LIG    1       38.418  30.618   8.382  0.00  0.00    +0.022 C 
ATOM     18  C   LIG    1       39.401  31.530   8.312  0.00  0.00    +0.008 C 
ENDBRANCH   6  17
TORSDOF 2
ENDMDL
MODEL 9
REMARK VINA RESULT:      -6.8      2.531      3.205
REMARK  Name = 
REMARK                            x       y       z     vdW  Elec       q    Type
REMARK                         _______ _______ _______ _____ _____    ______ ____
ROOT
ATOM      1  O   LIG    1       39.446  31.559  10.523  0.00  0.00    -0.225 OA
ATOM      2  C   LIG    1       39.807  30.761   9.673  0.00  0.00    +0.415 C 
ATOM      3  N   LIG    1       40.702  29.735   9.792  0.00  0.00    -0.172 N 
ATOM      4  C   LIG    1       40.756  29.051   8.603  0.00  0.00    +0.276 C 
ATOM      5  O   LIG    1       41.475  28.112   8.286  0.00  0.00    -0.270 OA
ATOM      6  C   LIG    1       39.727  29.679   7.680  0.00  0.00    +0.206 C 
ATOM      7  C   LIG    1       38.553  28.718   7.498  0.00  0.00    +0.071 C 
ATOM      8  O   LIG    1       39.278  30.810   8.416  0.00  0.00    -0.430 OA
ENDROOT
BRANCH   3   9
ATOM      9  C   LIG    1       41.466  29.427  10.962  0.00  0.00    +0.050 A 
ATOM     10  C   LIG    1       41.015  28.498  11.915  0.00  0.00    +0.044 A 
ATOM     11  C   LIG    1       41.766  28.208  13.061  0.00  0.00    +0.044 A 
ATOM     12 CL   LIG    1       41.164  27.075  14.209  0.00  0.00    -0.083 Cl
ATOM     13  C   LIG    1       42.987  28.825  13.286  0.00  0.00    +0.040 A 
ATOM     14  C   LIG    1       43.451  29.741  12.354  0.00  0.00    +0.044 A 
ATOM     15 CL   LIG    1       44.971  30.511  12.607  0.00  0.00    -0.083 Cl
ATOM     16  C   LIG    1       42.705  30.044  11.209  0.00  0.00    +0.044 A 
ENDBRANCH   3   9
BRANCH   6  17
ATOM     17  C   LIG    1       40.317  30.130   6.367  0.00  0.00    +0.022 C 
ATOM     18  C   LIG    1       40.483  31.402   5.972  0.00  0.00    +0.008 C 
ENDBRANCH   6  17
TORSDOF 2
ENDMDL
