MODEL 1
REMARK VINA RESULT:      -6.8      0.000      0.000
REMARK  Name = 
REMARK                            x       y       z     vdW  Elec       q    Type
REMARK                         _______ _______ _______ _____ _____    ______ ____
ROOT
ATOM      1  O   LIG    1        3.757   1.551  18.756  0.00  0.00    -0.225 OA
ATOM      2  C   LIG    1        4.128   0.443  19.109  0.00  0.00    +0.415 C 
ATOM      3  N   LIG    1        3.901  -0.194  20.297  0.00  0.00    -0.172 N 
ATOM      4  C   LIG    1        4.445  -1.453  20.239  0.00  0.00    +0.276 C 
ATOM      5  O   LIG    1        4.507  -2.307  21.113  0.00  0.00    -0.270 OA
ATOM      6  C   LIG    1        4.998  -1.635  18.836  0.00  0.00    +0.206 C 
ATOM      7  C   LIG    1        4.121  -2.622  18.067  0.00  0.00    +0.071 C 
ATOM      8  O   LIG    1        4.845  -0.345  18.257  0.00  0.00    -0.430 OA
ENDROOT
BRANCH   3   9
ATOM      9  C   LIG    1        3.215   0.362  21.423  0.00  0.00    +0.050 A 
ATOM     10  C   LIG    1        3.430   1.688  21.836  0.00  0.00    +0.044 A 
ATOM     11  C   LIG    1        2.760   2.223  22.943  0.00  0.00    +0.044 A 
ATOM     12 CL   LIG    1        3.068   3.848  23.423  0.00  0.00    -0.083 Cl
ATOM     13  C   LIG    1        1.854   1.459  23.664  0.00  0.00    +0.040 A 
ATOM     14  C   LIG    1        1.625   0.150  23.268  0.00  0.00    +0.044 A 
ATOM     15 CL   LIG    1        0.494  -0.813  24.140  0.00  0.00    -0.083 Cl
ATOM     16  C   LIG    1        2.294  -0.396  22.167  0.00  0.00    +0.044 A 
ENDBRANCH   3   9
BRANCH   6  17
ATOM     17  C   LIG    1        6.455  -2.025  18.829  0.00  0.00    +0.022 C 
ATOM     18  C   LIG    1        7.422  -1.481  19.585  0.00  0.00    +0.008 C 
ENDBRANCH   6  17
TORSDOF 2
ENDMDL
MODEL 2
REMARK VINA RESULT:      -6.8      0.010      2.116
REMARK  Name = 
REMARK                            x       y       z     vdW  Elec       q    Type
REMARK                         _______ _______ _______ _____ _____    ______ ____
ROOT
ATOM      1  O   LIG    1        3.759   1.550  18.768  0.00  0.00    -0.225 OA
ATOM      2  C   LIG    1        4.128   0.440  19.117  0.00  0.00    +0.415 C 
ATOM      3  N   LIG    1        3.899  -0.202  20.301  0.00  0.00    -0.172 N 
ATOM      4  C   LIG    1        4.443  -1.461  20.237  0.00  0.00    +0.276 C 
ATOM      5  O   LIG    1        4.503  -2.319  21.108  0.00  0.00    -0.270 OA
ATOM      6  C   LIG    1        4.998  -1.637  18.835  0.00  0.00    +0.206 C 
ATOM      7  C   LIG    1        4.122  -2.619  18.060  0.00  0.00    +0.071 C 
ATOM      8  O   LIG    1        4.847  -0.344  18.261  0.00  0.00    -0.430 OA
ENDROOT
BRANCH   3   9
ATOM      9  C   LIG    1        3.212   0.349  21.428  0.00  0.00    +0.050 A 
ATOM     10  C   LIG    1        2.294  -0.407  22.176  0.00  0.00    +0.044 A 
ATOM     11  C   LIG    1        1.621   0.143  23.274  0.00  0.00    +0.044 A 
ATOM     12 CL   LIG    1        0.491  -0.818  24.149  0.00  0.00    -0.083 Cl
ATOM     13  C   LIG    1        1.848   1.454  23.664  0.00  0.00    +0.040 A 
ATOM     14  C   LIG    1        2.755   2.215  22.942  0.00  0.00    +0.044 A 
ATOM     15 CL   LIG    1        3.063   3.842  23.415  0.00  0.00    -0.083 Cl
ATOM     16  C   LIG    1        3.428   1.677  21.838  0.00  0.00    +0.044 A 
ENDBRANCH   3   9
BRANCH   6  17
ATOM     17  C   LIG    1        6.455  -2.028  18.828  0.00  0.00    +0.022 C 
ATOM     18  C   LIG    1        7.423  -1.475  19.575  0.00  0.00    +0.008 C 
ENDBRANCH   6  17
TORSDOF 2
ENDMDL
MODEL 3
REMARK VINA RESULT:      -6.6     10.707     12.321
REMARK  Name = 
REMARK                            x       y       z     vdW  Elec       q    Type
REMARK                         _______ _______ _______ _____ _____    ______ ____
ROOT
ATOM      1  O   LIG    1        8.704  -5.803  29.963  0.00  0.00    -0.225 OA
ATOM      2  C   LIG    1        9.088  -4.745  30.438  0.00  0.00    +0.415 C 
ATOM      3  N   LIG    1        9.629  -3.668  29.796  0.00  0.00    -0.172 N 
ATOM      4  C   LIG    1        9.854  -2.670  30.711  0.00  0.00    +0.276 C 
ATOM      5  O   LIG    1       10.379  -1.577  30.546  0.00  0.00    -0.270 OA
ATOM      6  C   LIG    1        9.322  -3.160  32.046  0.00  0.00    +0.206 C 
ATOM      7  C   LIG    1        8.051  -2.390  32.402  0.00  0.00    +0.071 C 
ATOM      8  O   LIG    1        8.972  -4.513  31.778  0.00  0.00    -0.430 OA
ENDROOT
BRANCH   3   9
ATOM      9  C   LIG    1        9.922  -3.593  28.397  0.00  0.00    +0.050 A 
ATOM     10  C   LIG    1        8.957  -3.900  27.423  0.00  0.00    +0.044 A 
ATOM     11  C   LIG    1        9.255  -3.830  26.056  0.00  0.00    +0.044 A 
ATOM     12 CL   LIG    1        8.045  -4.232  24.899  0.00  0.00    -0.083 Cl
ATOM     13  C   LIG    1       10.515  -3.447  25.621  0.00  0.00    +0.040 A 
ATOM     14  C   LIG    1       11.479  -3.135  26.568  0.00  0.00    +0.044 A 
ATOM     15 CL   LIG    1       13.047  -2.644  26.051  0.00  0.00    -0.083 Cl
ATOM     16  C   LIG    1       11.194  -3.208  27.937  0.00  0.00    +0.044 A 
ENDBRANCH   3   9
BRANCH   6  17
ATOM     17  C   LIG    1       10.357  -3.112  33.142  0.00  0.00    +0.022 C 
ATOM     18  C   LIG    1       11.589  -3.641  33.086  0.00  0.00    +0.008 C 
ENDBRANCH   6  17
TORSDOF 2
ENDMDL
MODEL 4
REMARK VINA RESULT:      -6.6     10.719     12.215
REMARK  Name = 
REMARK                            x       y       z     vdW  Elec       q    Type
REMARK                         _______ _______ _______ _____ _____    ______ ____
ROOT
ATOM      1  O   LIG    1        8.791  -5.766  29.953  0.00  0.00    -0.225 OA
ATOM      2  C   LIG    1        9.162  -4.704  30.429  0.00  0.00    +0.415 C 
ATOM      3  N   LIG    1        9.697  -3.623  29.787  0.00  0.00    -0.172 N 
ATOM      4  C   LIG    1        9.909  -2.622  30.703  0.00  0.00    +0.276 C 
ATOM      5  O   LIG    1       10.425  -1.524  30.538  0.00  0.00    -0.270 OA
ATOM      6  C   LIG    1        9.375  -3.115  32.036  0.00  0.00    +0.206 C 
ATOM      7  C   LIG    1        8.096  -2.356  32.385  0.00  0.00    +0.071 C 
ATOM      8  O   LIG    1        9.039  -4.472  31.768  0.00  0.00    -0.430 OA
ENDROOT
BRANCH   3   9
ATOM      9  C   LIG    1        9.996  -3.547  28.390  0.00  0.00    +0.050 A 
ATOM     10  C   LIG    1       11.266  -3.161  27.928  0.00  0.00    +0.044 A 
ATOM     11  C   LIG    1       11.549  -3.083  26.558  0.00  0.00    +0.044 A 
ATOM     12 CL   LIG    1       13.114  -2.588  26.038  0.00  0.00    -0.083 Cl
ATOM     13  C   LIG    1       10.582  -3.395  25.613  0.00  0.00    +0.040 A 
ATOM     14  C   LIG    1        9.325  -3.783  26.051  0.00  0.00    +0.044 A 
ATOM     15 CL   LIG    1        8.114  -4.188  24.896  0.00  0.00    -0.083 Cl
ATOM     16  C   LIG    1        9.030  -3.858  27.417  0.00  0.00    +0.044 A 
ENDBRANCH   3   9
BRANCH   6  17
ATOM     17  C   LIG    1       10.405  -3.056  33.136  0.00  0.00    +0.022 C 
ATOM     18  C   LIG    1       11.618  -3.630  33.113  0.00  0.00    +0.008 C 
ENDBRANCH   6  17
TORSDOF 2
ENDMDL
MODEL 5
REMARK VINA RESULT:      -6.6      8.281     10.156
REMARK  Name = 
REMARK                            x       y       z     vdW  Elec       q    Type
REMARK                         _______ _______ _______ _____ _____    ______ ____
ROOT
ATOM      1  O   LIG    1       11.490  -1.977  26.348  0.00  0.00    -0.225 OA
ATOM      2  C   LIG    1       10.694  -2.752  26.855  0.00  0.00    +0.415 C 
ATOM      3  N   LIG    1        9.882  -3.664  26.241  0.00  0.00    -0.172 N 
ATOM      4  C   LIG    1        9.201  -4.370  27.200  0.00  0.00    +0.276 C 
ATOM      5  O   LIG    1        8.339  -5.228  27.059  0.00  0.00    -0.270 OA
ATOM      6  C   LIG    1        9.707  -3.894  28.550  0.00  0.00    +0.206 C 
ATOM      7  C   LIG    1       10.558  -4.989  29.191  0.00  0.00    +0.071 C 
ATOM      8  O   LIG    1       10.553  -2.801  28.212  0.00  0.00    -0.430 OA
ENDROOT
BRANCH   3   9
ATOM      9  C   LIG    1        9.755  -3.847  24.828  0.00  0.00    +0.050 A 
ATOM     10  C   LIG    1        8.545  -3.597  24.157  0.00  0.00    +0.044 A 
ATOM     11  C   LIG    1        8.427  -3.785  22.774  0.00  0.00    +0.044 A 
ATOM     12 CL   LIG    1        6.920  -3.483  21.999  0.00  0.00    -0.083 Cl
ATOM     13  C   LIG    1        9.508  -4.217  22.021  0.00  0.00    +0.040 A 
ATOM     14  C   LIG    1       10.712  -4.464  22.664  0.00  0.00    +0.044 A 
ATOM     15 CL   LIG    1       12.071  -4.988  21.746  0.00  0.00    -0.083 Cl
ATOM     16  C   LIG    1       10.838  -4.285  24.046  0.00  0.00    +0.044 A 
ENDBRANCH   3   9
BRANCH   6  17
ATOM     17  C   LIG    1        8.598  -3.415  29.454  0.00  0.00    +0.022 C 
ATOM     18  C   LIG    1        8.033  -4.118  30.448  0.00  0.00    +0.008 C 
ENDBRANCH   6  17
TORSDOF 2
ENDMDL
MODEL 6
REMARK VINA RESULT:      -6.5     10.764     12.455
REMARK  Name = 
REMARK                            x       y       z     vdW  Elec       q    Type
REMARK                         _______ _______ _______ _____ _____    ______ ____
ROOT
ATOM      1  O   LIG    1       10.891  -0.415  29.902  0.00  0.00    -0.225 OA
ATOM      2  C   LIG    1       10.639  -1.579  30.172  0.00  0.00    +0.415 C 
ATOM      3  N   LIG    1       10.865  -2.697  29.420  0.00  0.00    -0.172 N 
ATOM      4  C   LIG    1       10.486  -3.802  30.141  0.00  0.00    +0.276 C 
ATOM      5  O   LIG    1       10.474  -4.977  29.799  0.00  0.00    -0.270 OA
ATOM      6  C   LIG    1       10.052  -3.314  31.512  0.00  0.00    +0.206 C 
ATOM      7  C   LIG    1       11.092  -3.725  32.552  0.00  0.00    +0.071 C 
ATOM      8  O   LIG    1       10.081  -1.898  31.376  0.00  0.00    -0.430 OA
ENDROOT
BRANCH   3   9
ATOM      9  C   LIG    1       11.402  -2.715  28.094  0.00  0.00    +0.050 A 
ATOM     10  C   LIG    1       10.658  -3.196  27.003  0.00  0.00    +0.044 A 
ATOM     11  C   LIG    1       11.193  -3.215  25.709  0.00  0.00    +0.044 A 
ATOM     12 CL   LIG    1       10.251  -3.831  24.406  0.00  0.00    -0.083 Cl
ATOM     13  C   LIG    1       12.476  -2.750  25.463  0.00  0.00    +0.040 A 
ATOM     14  C   LIG    1       13.224  -2.266  26.526  0.00  0.00    +0.044 A 
ATOM     15 CL   LIG    1       14.815  -1.671  26.242  0.00  0.00    -0.083 Cl
ATOM     16  C   LIG    1       12.701  -2.249  27.825  0.00  0.00    +0.044 A 
ENDBRANCH   3   9
BRANCH   6  17
ATOM     17  C   LIG    1        8.658  -3.760  31.876  0.00  0.00    +0.022 C 
ATOM     18  C   LIG    1        7.591  -3.762  31.061  0.00  0.00    +0.008 C 
ENDBRANCH   6  17
TORSDOF 2
ENDMDL
MODEL 7
REMARK VINA RESULT:      -6.5      8.242     10.073
REMARK  Name = 
REMARK                            x       y       z     vdW  Elec       q    Type
REMARK                         _______ _______ _______ _____ _____    ______ ____
ROOT
ATOM      1  O   LIG    1       11.471  -1.996  26.297  0.00  0.00    -0.225 OA
ATOM      2  C   LIG    1       10.670  -2.764  26.808  0.00  0.00    +0.415 C 
ATOM      3  N   LIG    1        9.854  -3.675  26.199  0.00  0.00    -0.172 N 
ATOM      4  C   LIG    1        9.168  -4.371  27.163  0.00  0.00    +0.276 C 
ATOM      5  O   LIG    1        8.302  -5.226  27.026  0.00  0.00    -0.270 OA
ATOM      6  C   LIG    1        9.675  -3.888  28.510  0.00  0.00    +0.206 C 
ATOM      7  C   LIG    1       10.520  -4.984  29.159  0.00  0.00    +0.071 C 
ATOM      8  O   LIG    1       10.527  -2.803  28.165  0.00  0.00    -0.430 OA
ENDROOT
BRANCH   3   9
ATOM      9  C   LIG    1        9.727  -3.867  24.787  0.00  0.00    +0.050 A 
ATOM     10  C   LIG    1       10.806  -4.305  24.002  0.00  0.00    +0.044 A 
ATOM     11  C   LIG    1       10.675  -4.484  22.619  0.00  0.00    +0.044 A 
ATOM     12 CL   LIG    1       12.030  -5.007  21.695  0.00  0.00    -0.083 Cl
ATOM     13  C   LIG    1        9.467  -4.241  21.981  0.00  0.00    +0.040 A 
ATOM     14  C   LIG    1        8.389  -3.812  22.741  0.00  0.00    +0.044 A 
ATOM     15 CL   LIG    1        6.876  -3.516  21.973  0.00  0.00    -0.083 Cl
ATOM     16  C   LIG    1        8.511  -3.624  24.123  0.00  0.00    +0.044 A 
ENDBRANCH   3   9
BRANCH   6  17
ATOM     17  C   LIG    1        8.568  -3.398  29.410  0.00  0.00    +0.022 C 
ATOM     18  C   LIG    1        7.998  -4.091  30.408  0.00  0.00    +0.008 C 
ENDBRANCH   6  17
TORSDOF 2
ENDMDL
MODEL 8
REMARK VINA RESULT:      -6.5     10.784     12.340
REMARK  Name = 
REMARK                            x       y       z     vdW  Elec       q    Type
REMARK                         _______ _______ _______ _____ _____    ______ ____
ROOT
ATOM      1  O   LIG    1       10.855  -0.434  29.952  0.00  0.00    -0.225 OA
ATOM      2  C   LIG    1       10.620  -1.603  30.218  0.00  0.00    +0.415 C 
ATOM      3  N   LIG    1       10.857  -2.714  29.459  0.00  0.00    -0.172 N 
ATOM      4  C   LIG    1       10.497  -3.828  30.176  0.00  0.00    +0.276 C 
ATOM      5  O   LIG    1       10.498  -5.002  29.829  0.00  0.00    -0.270 OA
ATOM      6  C   LIG    1       10.065  -3.352  31.552  0.00  0.00    +0.206 C 
ATOM      7  C   LIG    1       11.118  -3.754  32.584  0.00  0.00    +0.071 C 
ATOM      8  O   LIG    1       10.074  -1.935  31.424  0.00  0.00    -0.430 OA
ENDROOT
BRANCH   3   9
ATOM      9  C   LIG    1       11.385  -2.718  28.129  0.00  0.00    +0.050 A 
ATOM     10  C   LIG    1       12.674  -2.237  27.846  0.00  0.00    +0.044 A 
ATOM     11  C   LIG    1       13.181  -2.239  26.540  0.00  0.00    +0.044 A 
ATOM     12 CL   LIG    1       14.760  -1.622  26.239  0.00  0.00    -0.083 Cl
ATOM     13  C   LIG    1       12.425  -2.725  25.484  0.00  0.00    +0.040 A 
ATOM     14  C   LIG    1       11.152  -3.210  25.745  0.00  0.00    +0.044 A 
ATOM     15 CL   LIG    1       10.201  -3.832  24.452  0.00  0.00    -0.083 Cl
ATOM     16  C   LIG    1       10.634  -3.207  27.046  0.00  0.00    +0.044 A 
ENDBRANCH   3   9
BRANCH   6  17
ATOM     17  C   LIG    1        8.680  -3.819  31.924  0.00  0.00    +0.022 C 
ATOM     18  C   LIG    1        7.600  -3.798  31.127  0.00  0.00    +0.008 C 
ENDBRANCH   6  17
TORSDOF 2
ENDMDL
MODEL 9
REMARK VINA RESULT:      -6.4      3.377      5.457
REMARK  Name = 
REMARK                            x       y       z     vdW  Elec       q    Type
REMARK                         _______ _______ _______ _____ _____    ______ ____
ROOT
ATOM      1  O   LIG    1        4.745   0.828  21.678  0.00  0.00    -0.225 OA
ATOM      2  C   LIG    1        3.757   1.513  21.894  0.00  0.00    +0.415 C 
ATOM      3  N   LIG    1        2.493   1.107  22.221  0.00  0.00    -0.172 N 
ATOM      4  C   LIG    1        1.713   2.215  22.439  0.00  0.00    +0.276 C 
ATOM      5  O   LIG    1        0.517   2.277  22.692  0.00  0.00    -0.270 OA
ATOM      6  C   LIG    1        2.615   3.430  22.307  0.00  0.00    +0.206 C 
ATOM      7  C   LIG    1        2.842   4.049  23.685  0.00  0.00    +0.071 C 
ATOM      8  O   LIG    1        3.842   2.874  21.851  0.00  0.00    -0.430 OA
ENDROOT
BRANCH   3   9
ATOM      9  C   LIG    1        2.051  -0.250  22.313  0.00  0.00    +0.050 A 
ATOM     10  C   LIG    1        1.620  -0.806  23.529  0.00  0.00    +0.044 A 
ATOM     11  C   LIG    1        1.195  -2.138  23.611  0.00  0.00    +0.044 A 
ATOM     12 CL   LIG    1        0.692  -2.780  25.128  0.00  0.00    -0.083 Cl
ATOM     13  C   LIG    1        1.180  -2.950  22.488  0.00  0.00    +0.040 A 
ATOM     14  C   LIG    1        1.597  -2.418  21.276  0.00  0.00    +0.044 A 
ATOM     15 CL   LIG    1        1.573  -3.404  19.865  0.00  0.00    -0.083 Cl
ATOM     16  C   LIG    1        2.029  -1.090  21.185  0.00  0.00    +0.044 A 
ENDBRANCH   3   9
BRANCH   6  17
ATOM     17  C   LIG    1        2.105   4.429  21.298  0.00  0.00    +0.022 C 
ATOM     18  C   LIG    1        2.163   5.765  21.413  0.00  0.00    +0.008 C 
ENDBRANCH   6  17
TORSDOF 2
ENDMDL
