MODEL 1
REMARK VINA RESULT:      -8.3      0.000      0.000
REMARK  Name = 
REMARK                            x       y       z     vdW  Elec       q    Type
REMARK                         _______ _______ _______ _____ _____    ______ ____
ROOT
ATOM      1  O   LIG    1       12.171   1.869  29.156  0.00  0.00    -0.225 OA
ATOM      2  C   LIG    1       11.022   1.484  29.315  0.00  0.00    +0.415 C 
ATOM      3  N   LIG    1       10.257   1.528  30.446  0.00  0.00    -0.172 N 
ATOM      4  C   LIG    1        9.004   1.049  30.155  0.00  0.00    +0.276 C 
ATOM      5  O   LIG    1        8.054   0.870  30.905  0.00  0.00    -0.270 OA
ATOM      6  C   LIG    1        8.975   0.751  28.666  0.00  0.00    +0.206 C 
ATOM      7  C   LIG    1        8.099   1.783  27.957  0.00  0.00    +0.071 C 
ATOM      8  O   LIG    1       10.326   0.953  28.268  0.00  0.00    -0.430 OA
ENDROOT
BRANCH   3   9
ATOM      9  C   LIG    1       10.692   1.990  31.729  0.00  0.00    +0.050 A 
ATOM     10  C   LIG    1       10.204   1.426  32.920  0.00  0.00    +0.044 A 
ATOM     11  C   LIG    1       10.631   1.888  34.171  0.00  0.00    +0.044 A 
ATOM     12 CL   LIG    1        9.992   1.179  35.604  0.00  0.00    -0.083 Cl
ATOM     13  C   LIG    1       11.557   2.915  34.273  0.00  0.00    +0.040 A 
ATOM     14  C   LIG    1       12.055   3.480  33.108  0.00  0.00    +0.044 A 
ATOM     15 CL   LIG    1       13.216   4.747  33.209  0.00  0.00    -0.083 Cl
ATOM     16  C   LIG    1       11.630   3.030  31.852  0.00  0.00    +0.044 A 
ENDBRANCH   3   9
BRANCH   6  17
ATOM     17  C   LIG    1        8.563  -0.667  28.362  0.00  0.00    +0.022 C 
ATOM     18  C   LIG    1        8.765  -1.316  27.204  0.00  0.00    +0.008 C 
ENDBRANCH   6  17
TORSDOF 2
ENDMDL
MODEL 2
REMARK VINA RESULT:      -8.3      0.014      2.116
REMARK  Name = 
REMARK                            x       y       z     vdW  Elec       q    Type
REMARK                         _______ _______ _______ _____ _____    ______ ____
ROOT
ATOM      1  O   LIG    1       12.172   1.880  29.140  0.00  0.00    -0.225 OA
ATOM      2  C   LIG    1       11.025   1.493  29.302  0.00  0.00    +0.415 C 
ATOM      3  N   LIG    1       10.262   1.538  30.435  0.00  0.00    -0.172 N 
ATOM      4  C   LIG    1        9.010   1.055  30.147  0.00  0.00    +0.276 C 
ATOM      5  O   LIG    1        8.061   0.876  30.900  0.00  0.00    -0.270 OA
ATOM      6  C   LIG    1        8.978   0.755  28.659  0.00  0.00    +0.206 C 
ATOM      7  C   LIG    1        8.099   1.783  27.950  0.00  0.00    +0.071 C 
ATOM      8  O   LIG    1       10.328   0.958  28.258  0.00  0.00    -0.430 OA
ENDROOT
BRANCH   3   9
ATOM      9  C   LIG    1       10.699   2.003  31.715  0.00  0.00    +0.050 A 
ATOM     10  C   LIG    1       11.636   3.042  31.843  0.00  0.00    +0.044 A 
ATOM     11  C   LIG    1       12.063   3.486  33.101  0.00  0.00    +0.044 A 
ATOM     12 CL   LIG    1       13.226   4.751  33.208  0.00  0.00    -0.083 Cl
ATOM     13  C   LIG    1       11.564   2.917  34.263  0.00  0.00    +0.040 A 
ATOM     14  C   LIG    1       10.634   1.894  34.157  0.00  0.00    +0.044 A 
ATOM     15 CL   LIG    1        9.991   1.182  35.588  0.00  0.00    -0.083 Cl
ATOM     16  C   LIG    1       10.206   1.438  32.905  0.00  0.00    +0.044 A 
ENDBRANCH   3   9
BRANCH   6  17
ATOM     17  C   LIG    1        8.568  -0.666  28.358  0.00  0.00    +0.022 C 
ATOM     18  C   LIG    1        8.765  -1.315  27.200  0.00  0.00    +0.008 C 
ENDBRANCH   6  17
TORSDOF 2
ENDMDL
MODEL 3
REMARK VINA RESULT:      -8.3      8.972     11.067
REMARK  Name = 
REMARK                            x       y       z     vdW  Elec       q    Type
REMARK                         _______ _______ _______ _____ _____    ______ ____
ROOT
ATOM      1  O   LIG    1       16.813   2.997  28.219  0.00  0.00    -0.225 OA
ATOM      2  C   LIG    1       17.442   4.020  27.999  0.00  0.00    +0.415 C 
ATOM      3  N   LIG    1       17.766   4.579  26.795  0.00  0.00    -0.172 N 
ATOM      4  C   LIG    1       18.424   5.763  27.017  0.00  0.00    +0.276 C 
ATOM      5  O   LIG    1       18.927   6.529  26.205  0.00  0.00    -0.270 OA
ATOM      6  C   LIG    1       18.437   5.993  28.518  0.00  0.00    +0.206 C 
ATOM      7  C   LIG    1       17.487   7.138  28.866  0.00  0.00    +0.071 C 
ATOM      8  O   LIG    1       17.897   4.783  29.035  0.00  0.00    -0.430 OA
ENDROOT
BRANCH   3   9
ATOM      9  C   LIG    1       17.476   4.018  25.511  0.00  0.00    +0.050 A 
ATOM     10  C   LIG    1       16.300   4.342  24.813  0.00  0.00    +0.044 A 
ATOM     11  C   LIG    1       16.021   3.783  23.559  0.00  0.00    +0.044 A 
ATOM     12 CL   LIG    1       14.559   4.195  22.750  0.00  0.00    -0.083 Cl
ATOM     13  C   LIG    1       16.905   2.896  22.963  0.00  0.00    +0.040 A 
ATOM     14  C   LIG    1       18.074   2.569  23.634  0.00  0.00    +0.044 A 
ATOM     15 CL   LIG    1       19.192   1.481  22.907  0.00  0.00    -0.083 Cl
ATOM     16  C   LIG    1       18.359   3.117  24.890  0.00  0.00    +0.044 A 
ENDBRANCH   3   9
BRANCH   6  17
ATOM     17  C   LIG    1       19.826   6.204  29.065  0.00  0.00    +0.022 C 
ATOM     18  C   LIG    1       20.156   6.997  30.097  0.00  0.00    +0.008 C 
ENDBRANCH   6  17
TORSDOF 2
ENDMDL
MODEL 4
REMARK VINA RESULT:      -8.3      8.942     11.084
REMARK  Name = 
REMARK                            x       y       z     vdW  Elec       q    Type
REMARK                         _______ _______ _______ _____ _____    ______ ____
ROOT
ATOM      1  O   LIG    1       16.742   2.994  28.208  0.00  0.00    -0.225 OA
ATOM      2  C   LIG    1       17.390   4.007  27.995  0.00  0.00    +0.415 C 
ATOM      3  N   LIG    1       17.741   4.559  26.794  0.00  0.00    -0.172 N 
ATOM      4  C   LIG    1       18.413   5.733  27.024  0.00  0.00    +0.276 C 
ATOM      5  O   LIG    1       18.940   6.489  26.218  0.00  0.00    -0.270 OA
ATOM      6  C   LIG    1       18.406   5.966  28.524  0.00  0.00    +0.206 C 
ATOM      7  C   LIG    1       17.469   7.126  28.855  0.00  0.00    +0.071 C 
ATOM      8  O   LIG    1       17.840   4.766  29.036  0.00  0.00    -0.430 OA
ENDROOT
BRANCH   3   9
ATOM      9  C   LIG    1       17.462   3.999  25.507  0.00  0.00    +0.050 A 
ATOM     10  C   LIG    1       18.349   3.105  24.883  0.00  0.00    +0.044 A 
ATOM     11  C   LIG    1       18.071   2.567  23.621  0.00  0.00    +0.044 A 
ATOM     12 CL   LIG    1       19.196   1.489  22.888  0.00  0.00    -0.083 Cl
ATOM     13  C   LIG    1       16.903   2.895  22.949  0.00  0.00    +0.040 A 
ATOM     14  C   LIG    1       16.013   3.771  23.551  0.00  0.00    +0.044 A 
ATOM     15 CL   LIG    1       14.550   4.183  22.741  0.00  0.00    -0.083 Cl
ATOM     16  C   LIG    1       16.284   4.320  24.810  0.00  0.00    +0.044 A 
ENDBRANCH   3   9
BRANCH   6  17
ATOM     17  C   LIG    1       19.790   6.158  29.092  0.00  0.00    +0.022 C 
ATOM     18  C   LIG    1       20.122   6.978  30.101  0.00  0.00    +0.008 C 
ENDBRANCH   6  17
TORSDOF 2
ENDMDL
MODEL 5
REMARK VINA RESULT:      -7.6      4.627      6.440
REMARK  Name = 
REMARK                            x       y       z     vdW  Elec       q    Type
REMARK                         _______ _______ _______ _____ _____    ______ ____
ROOT
ATOM      1  O   LIG    1       10.644   3.473  27.750  0.00  0.00    -0.225 OA
ATOM      2  C   LIG    1        9.790   2.605  27.656  0.00  0.00    +0.415 C 
ATOM      3  N   LIG    1        8.481   2.733  27.287  0.00  0.00    -0.172 N 
ATOM      4  C   LIG    1        7.904   1.488  27.254  0.00  0.00    +0.276 C 
ATOM      5  O   LIG    1        6.740   1.184  27.029  0.00  0.00    -0.270 OA
ATOM      6  C   LIG    1        8.998   0.480  27.560  0.00  0.00    +0.206 C 
ATOM      7  C   LIG    1        9.346  -0.296  26.291  0.00  0.00    +0.071 C 
ATOM      8  O   LIG    1       10.107   1.302  27.908  0.00  0.00    -0.430 OA
ENDROOT
BRANCH   3   9
ATOM      9  C   LIG    1        7.815   3.965  26.992  0.00  0.00    +0.050 A 
ATOM     10  C   LIG    1        8.223   4.788  25.929  0.00  0.00    +0.044 A 
ATOM     11  C   LIG    1        7.570   5.996  25.652  0.00  0.00    +0.044 A 
ATOM     12 CL   LIG    1        8.117   6.981  24.350  0.00  0.00    -0.083 Cl
ATOM     13  C   LIG    1        6.490   6.412  26.416  0.00  0.00    +0.040 A 
ATOM     14  C   LIG    1        6.069   5.610  27.466  0.00  0.00    +0.044 A 
ATOM     15 CL   LIG    1        4.722   6.100  28.420  0.00  0.00    -0.083 Cl
ATOM     16  C   LIG    1        6.719   4.404  27.756  0.00  0.00    +0.044 A 
ENDBRANCH   3   9
BRANCH   6  17
ATOM     17  C   LIG    1        8.653  -0.423  28.718  0.00  0.00    +0.022 C 
ATOM     18  C   LIG    1        8.699  -0.091  30.018  0.00  0.00    +0.008 C 
ENDBRANCH   6  17
TORSDOF 2
ENDMDL
MODEL 6
REMARK VINA RESULT:      -7.6      4.623      6.123
REMARK  Name = 
REMARK                            x       y       z     vdW  Elec       q    Type
REMARK                         _______ _______ _______ _____ _____    ______ ____
ROOT
ATOM      1  O   LIG    1       10.714   3.360  27.779  0.00  0.00    -0.225 OA
ATOM      2  C   LIG    1        9.840   2.513  27.681  0.00  0.00    +0.415 C 
ATOM      3  N   LIG    1        8.540   2.669  27.290  0.00  0.00    -0.172 N 
ATOM      4  C   LIG    1        7.932   1.439  27.262  0.00  0.00    +0.276 C 
ATOM      5  O   LIG    1        6.764   1.162  27.023  0.00  0.00    -0.270 OA
ATOM      6  C   LIG    1        8.995   0.408  27.597  0.00  0.00    +0.206 C 
ATOM      7  C   LIG    1        9.343  -0.392  26.343  0.00  0.00    +0.071 C 
ATOM      8  O   LIG    1       10.119   1.205  27.953  0.00  0.00    -0.430 OA
ENDROOT
BRANCH   3   9
ATOM      9  C   LIG    1        7.910   3.914  26.971  0.00  0.00    +0.050 A 
ATOM     10  C   LIG    1        6.812   4.395  27.704  0.00  0.00    +0.044 A 
ATOM     11  C   LIG    1        6.198   5.611  27.381  0.00  0.00    +0.044 A 
ATOM     12 CL   LIG    1        4.844   6.152  28.297  0.00  0.00    -0.083 Cl
ATOM     13  C   LIG    1        6.662   6.385  26.328  0.00  0.00    +0.040 A 
ATOM     14  C   LIG    1        7.748   5.929  25.595  0.00  0.00    +0.044 A 
ATOM     15 CL   LIG    1        8.350   6.880  24.291  0.00  0.00    -0.083 Cl
ATOM     16  C   LIG    1        8.365   4.712  25.906  0.00  0.00    +0.044 A 
ENDBRANCH   3   9
BRANCH   6  17
ATOM     17  C   LIG    1        8.609  -0.473  28.759  0.00  0.00    +0.022 C 
ATOM     18  C   LIG    1        8.661  -0.134  30.057  0.00  0.00    +0.008 C 
ENDBRANCH   6  17
TORSDOF 2
ENDMDL
MODEL 7
REMARK VINA RESULT:      -7.6      4.892      6.950
REMARK  Name = 
REMARK                            x       y       z     vdW  Elec       q    Type
REMARK                         _______ _______ _______ _____ _____    ______ ____
ROOT
ATOM      1  O   LIG    1        5.319   2.225  26.700  0.00  0.00    -0.225 OA
ATOM      2  C   LIG    1        6.493   2.132  27.026  0.00  0.00    +0.415 C 
ATOM      3  N   LIG    1        7.426   3.124  27.143  0.00  0.00    -0.172 N 
ATOM      4  C   LIG    1        8.600   2.579  27.599  0.00  0.00    +0.276 C 
ATOM      5  O   LIG    1        9.683   3.120  27.776  0.00  0.00    -0.270 OA
ATOM      6  C   LIG    1        8.336   1.107  27.865  0.00  0.00    +0.206 C 
ATOM      7  C   LIG    1        8.321   0.856  29.371  0.00  0.00    +0.071 C 
ATOM      8  O   LIG    1        7.019   0.918  27.361  0.00  0.00    -0.430 OA
ENDROOT
BRANCH   3   9
ATOM      9  C   LIG    1        7.218   4.505  26.831  0.00  0.00    +0.050 A 
ATOM     10  C   LIG    1        7.806   5.104  25.704  0.00  0.00    +0.044 A 
ATOM     11  C   LIG    1        7.602   6.458  25.410  0.00  0.00    +0.044 A 
ATOM     12 CL   LIG    1        8.357   7.152  24.027  0.00  0.00    -0.083 Cl
ATOM     13  C   LIG    1        6.803   7.249  26.221  0.00  0.00    +0.040 A 
ATOM     14  C   LIG    1        6.210   6.675  27.335  0.00  0.00    +0.044 A 
ATOM     15 CL   LIG    1        5.203   7.635  28.349  0.00  0.00    -0.083 Cl
ATOM     16  C   LIG    1        6.412   5.324  27.641  0.00  0.00    +0.044 A 
ENDBRANCH   3   9
BRANCH   6  17
ATOM     17  C   LIG    1        9.293   0.200  27.133  0.00  0.00    +0.022 C 
ATOM     18  C   LIG    1        9.037  -1.053  26.725  0.00  0.00    +0.008 C 
ENDBRANCH   6  17
TORSDOF 2
ENDMDL
MODEL 8
REMARK VINA RESULT:      -7.6      4.299      6.328
REMARK  Name = 
REMARK                            x       y       z     vdW  Elec       q    Type
REMARK                         _______ _______ _______ _____ _____    ______ ____
ROOT
ATOM      1  O   LIG    1        5.542   2.589  26.384  0.00  0.00    -0.225 OA
ATOM      2  C   LIG    1        6.412   3.407  26.639  0.00  0.00    +0.415 C 
ATOM      3  N   LIG    1        7.617   3.207  27.253  0.00  0.00    -0.172 N 
ATOM      4  C   LIG    1        8.307   4.394  27.274  0.00  0.00    +0.276 C 
ATOM      5  O   LIG    1        9.391   4.645  27.784  0.00  0.00    -0.270 OA
ATOM      6  C   LIG    1        7.467   5.413  26.524  0.00  0.00    +0.206 C 
ATOM      7  C   LIG    1        8.130   5.733  25.185  0.00  0.00    +0.071 C 
ATOM      8  O   LIG    1        6.255   4.712  26.274  0.00  0.00    -0.430 OA
ENDROOT
BRANCH   3   9
ATOM      9  C   LIG    1        8.081   1.967  27.793  0.00  0.00    +0.050 A 
ATOM     10  C   LIG    1        8.226   0.821  26.993  0.00  0.00    +0.044 A 
ATOM     11  C   LIG    1        8.675  -0.391  27.532  0.00  0.00    +0.044 A 
ATOM     12 CL   LIG    1        8.819  -1.774  26.516  0.00  0.00    -0.083 Cl
ATOM     13  C   LIG    1        8.999  -0.496  28.876  0.00  0.00    +0.040 A 
ATOM     14  C   LIG    1        8.868   0.626  29.681  0.00  0.00    +0.044 A 
ATOM     15 CL   LIG    1        9.278   0.524  31.351  0.00  0.00    -0.083 Cl
ATOM     16  C   LIG    1        8.414   1.841  29.154  0.00  0.00    +0.044 A 
ENDBRANCH   3   9
BRANCH   6  17
ATOM     17  C   LIG    1        7.181   6.648  27.341  0.00  0.00    +0.022 C 
ATOM     18  C   LIG    1        6.513   7.734  26.921  0.00  0.00    +0.008 C 
ENDBRANCH   6  17
TORSDOF 2
ENDMDL
MODEL 9
REMARK VINA RESULT:      -7.6      4.891      6.785
REMARK  Name = 
REMARK                            x       y       z     vdW  Elec       q    Type
REMARK                         _______ _______ _______ _____ _____    ______ ____
ROOT
ATOM      1  O   LIG    1        5.339   2.329  26.649  0.00  0.00    -0.225 OA
ATOM      2  C   LIG    1        6.488   2.277  27.059  0.00  0.00    +0.415 C 
ATOM      3  N   LIG    1        7.375   3.301  27.243  0.00  0.00    -0.172 N 
ATOM      4  C   LIG    1        8.531   2.797  27.784  0.00  0.00    +0.276 C 
ATOM      5  O   LIG    1        9.579   3.376  28.040  0.00  0.00    -0.270 OA
ATOM      6  C   LIG    1        8.300   1.316  28.030  0.00  0.00    +0.206 C 
ATOM      7  C   LIG    1        8.185   1.061  29.532  0.00  0.00    +0.071 C 
ATOM      8  O   LIG    1        7.031   1.082  27.432  0.00  0.00    -0.430 OA
ENDROOT
BRANCH   3   9
ATOM      9  C   LIG    1        7.141   4.674  26.917  0.00  0.00    +0.050 A 
ATOM     10  C   LIG    1        6.347   5.501  27.729  0.00  0.00    +0.044 A 
ATOM     11  C   LIG    1        6.118   6.843  27.399  0.00  0.00    +0.044 A 
ATOM     12 CL   LIG    1        5.123   7.813  28.416  0.00  0.00    -0.083 Cl
ATOM     13  C   LIG    1        6.678   7.400  26.259  0.00  0.00    +0.040 A 
ATOM     14  C   LIG    1        7.469   6.601  25.447  0.00  0.00    +0.044 A 
ATOM     15 CL   LIG    1        8.185   7.276  24.034  0.00  0.00    -0.083 Cl
ATOM     16  C   LIG    1        7.699   5.257  25.765  0.00  0.00    +0.044 A 
ENDBRANCH   3   9
BRANCH   6  17
ATOM     17  C   LIG    1        9.340   0.445  27.371  0.00  0.00    +0.022 C 
ATOM     18  C   LIG    1        9.106  -0.696  26.703  0.00  0.00    +0.008 C 
ENDBRANCH   6  17
TORSDOF 2
ENDMDL
