MODEL 1
REMARK VINA RESULT:      -2.5      0.000      0.000
REMARK  Name = 
REMARK                            x       y       z     vdW  Elec       q    Type
REMARK                         _______ _______ _______ _____ _____    ______ ____
ROOT
ATOM      1  O   LIG    1       18.737   0.932  53.756  0.00  0.00    -0.225 OA
ATOM      2  C   LIG    1       18.759   1.939  53.066  0.00  0.00    +0.415 C 
ATOM      3  N   LIG    1       17.707   2.645  52.554  0.00  0.00    -0.172 N 
ATOM      4  C   LIG    1       18.191   3.747  51.893  0.00  0.00    +0.276 C 
ATOM      5  O   LIG    1       17.578   4.591  51.252  0.00  0.00    -0.270 OA
ATOM      6  C   LIG    1       19.697   3.759  52.086  0.00  0.00    +0.206 C 
ATOM      7  C   LIG    1       20.079   4.894  53.035  0.00  0.00    +0.071 C 
ATOM      8  O   LIG    1       19.950   2.519  52.737  0.00  0.00    -0.430 OA
ENDROOT
BRANCH   3   9
ATOM      9  C   LIG    1       16.327   2.290  52.677  0.00  0.00    +0.050 A 
ATOM     10  C   LIG    1       15.620   1.694  51.619  0.00  0.00    +0.044 A 
ATOM     11  C   LIG    1       14.267   1.356  51.746  0.00  0.00    +0.044 A 
ATOM     12 CL   LIG    1       13.438   0.644  50.416  0.00  0.00    -0.083 Cl
ATOM     13  C   LIG    1       13.583   1.593  52.929  0.00  0.00    +0.040 A 
ATOM     14  C   LIG    1       14.265   2.176  53.987  0.00  0.00    +0.044 A 
ATOM     15 CL   LIG    1       13.439   2.467  55.470  0.00  0.00    -0.083 Cl
ATOM     16  C   LIG    1       15.615   2.523  53.868  0.00  0.00    +0.044 A 
ENDBRANCH   3   9
BRANCH   6  17
ATOM     17  C   LIG    1       20.453   3.811  50.782  0.00  0.00    +0.022 C 
ATOM     18  C   LIG    1       21.132   4.867  50.306  0.00  0.00    +0.008 C 
ENDBRANCH   6  17
TORSDOF 2
ENDMDL
MODEL 2
REMARK VINA RESULT:      -2.4      2.050      2.466
REMARK  Name = 
REMARK                            x       y       z     vdW  Elec       q    Type
REMARK                         _______ _______ _______ _____ _____    ______ ____
ROOT
ATOM      1  O   LIG    1       18.098   4.796  54.009  0.00  0.00    -0.225 OA
ATOM      2  C   LIG    1       18.492   4.522  52.886  0.00  0.00    +0.415 C 
ATOM      3  N   LIG    1       18.154   3.457  52.100  0.00  0.00    -0.172 N 
ATOM      4  C   LIG    1       18.785   3.580  50.887  0.00  0.00    +0.276 C 
ATOM      5  O   LIG    1       18.788   2.807  49.938  0.00  0.00    -0.270 OA
ATOM      6  C   LIG    1       19.529   4.903  50.904  0.00  0.00    +0.206 C 
ATOM      7  C   LIG    1       18.830   5.893  49.974  0.00  0.00    +0.071 C 
ATOM      8  O   LIG    1       19.368   5.349  52.245  0.00  0.00    -0.430 OA
ENDROOT
BRANCH   3   9
ATOM      9  C   LIG    1       17.289   2.382  52.481  0.00  0.00    +0.050 A 
ATOM     10  C   LIG    1       16.013   2.225  51.915  0.00  0.00    +0.044 A 
ATOM     11  C   LIG    1       15.171   1.174  52.298  0.00  0.00    +0.044 A 
ATOM     12 CL   LIG    1       13.608   1.033  51.589  0.00  0.00    -0.083 Cl
ATOM     13  C   LIG    1       15.577   0.246  53.246  0.00  0.00    +0.040 A 
ATOM     14  C   LIG    1       16.836   0.381  53.811  0.00  0.00    +0.044 A 
ATOM     15 CL   LIG    1       17.366  -0.766  54.981  0.00  0.00    -0.083 Cl
ATOM     16  C   LIG    1       17.682   1.432  53.440  0.00  0.00    +0.044 A 
ENDBRANCH   3   9
BRANCH   6  17
ATOM     17  C   LIG    1       20.998   4.752  50.593  0.00  0.00    +0.022 C 
ATOM     18  C   LIG    1       21.891   4.063  51.321  0.00  0.00    +0.008 C 
ENDBRANCH   6  17
TORSDOF 2
ENDMDL
MODEL 3
REMARK VINA RESULT:      -2.4      2.061      2.970
REMARK  Name = 
REMARK                            x       y       z     vdW  Elec       q    Type
REMARK                         _______ _______ _______ _____ _____    ______ ____
ROOT
ATOM      1  O   LIG    1       17.261   5.044  53.913  0.00  0.00    -0.225 OA
ATOM      2  C   LIG    1       17.834   4.776  52.869  0.00  0.00    +0.415 C 
ATOM      3  N   LIG    1       17.749   3.638  52.117  0.00  0.00    -0.172 N 
ATOM      4  C   LIG    1       18.512   3.793  50.987  0.00  0.00    +0.276 C 
ATOM      5  O   LIG    1       18.744   2.985  50.097  0.00  0.00    -0.270 OA
ATOM      6  C   LIG    1       19.062   5.209  51.010  0.00  0.00    +0.206 C 
ATOM      7  C   LIG    1       18.364   6.044  49.938  0.00  0.00    +0.071 C 
ATOM      8  O   LIG    1       18.666   5.689  52.289  0.00  0.00    -0.430 OA
ENDROOT
BRANCH   3   9
ATOM      9  C   LIG    1       16.995   2.470  52.456  0.00  0.00    +0.050 A 
ATOM     10  C   LIG    1       17.456   1.546  53.409  0.00  0.00    +0.044 A 
ATOM     11  C   LIG    1       16.715   0.402  53.731  0.00  0.00    +0.044 A 
ATOM     12 CL   LIG    1       17.328  -0.712  54.892  0.00  0.00    -0.083 Cl
ATOM     13  C   LIG    1       15.495   0.150  53.121  0.00  0.00    +0.040 A 
ATOM     14  C   LIG    1       15.021   1.054  52.182  0.00  0.00    +0.044 A 
ATOM     15 CL   LIG    1       13.502   0.768  51.423  0.00  0.00    -0.083 Cl
ATOM     16  C   LIG    1       15.757   2.197  51.849  0.00  0.00    +0.044 A 
ENDBRANCH   3   9
BRANCH   6  17
ATOM     17  C   LIG    1       20.565   5.253  50.894  0.00  0.00    +0.022 C 
ATOM     18  C   LIG    1       21.441   4.904  51.850  0.00  0.00    +0.008 C 
ENDBRANCH   6  17
TORSDOF 2
ENDMDL
MODEL 4
REMARK VINA RESULT:      -2.4      3.345      5.999
REMARK  Name = 
REMARK                            x       y       z     vdW  Elec       q    Type
REMARK                         _______ _______ _______ _____ _____    ______ ____
ROOT
ATOM      1  O   LIG    1       16.487   3.609  51.894  0.00  0.00    -0.225 OA
ATOM      2  C   LIG    1       16.183   2.462  52.184  0.00  0.00    +0.415 C 
ATOM      3  N   LIG    1       16.817   1.601  53.035  0.00  0.00    -0.172 N 
ATOM      4  C   LIG    1       16.092   0.438  53.113  0.00  0.00    +0.276 C 
ATOM      5  O   LIG    1       16.354  -0.594  53.717  0.00  0.00    -0.270 OA
ATOM      6  C   LIG    1       14.838   0.637  52.280  0.00  0.00    +0.206 C 
ATOM      7  C   LIG    1       13.627   0.758  53.204  0.00  0.00    +0.071 C 
ATOM      8  O   LIG    1       15.059   1.895  51.655  0.00  0.00    -0.430 OA
ENDROOT
BRANCH   3   9
ATOM      9  C   LIG    1       18.042   1.864  53.725  0.00  0.00    +0.050 A 
ATOM     10  C   LIG    1       18.089   1.989  55.124  0.00  0.00    +0.044 A 
ATOM     11  C   LIG    1       19.292   2.252  55.792  0.00  0.00    +0.044 A 
ATOM     12 CL   LIG    1       19.297   2.414  57.506  0.00  0.00    -0.083 Cl
ATOM     13  C   LIG    1       20.479   2.390  55.089  0.00  0.00    +0.040 A 
ATOM     14  C   LIG    1       20.454   2.265  53.708  0.00  0.00    +0.044 A 
ATOM     15 CL   LIG    1       21.919   2.419  52.817  0.00  0.00    -0.083 Cl
ATOM     16  C   LIG    1       19.256   2.008  53.031  0.00  0.00    +0.044 A 
ENDBRANCH   3   9
BRANCH   6  17
ATOM     17  C   LIG    1       14.660  -0.428  51.227  0.00  0.00    +0.022 C 
ATOM     18  C   LIG    1       15.024  -0.332  49.939  0.00  0.00    +0.008 C 
ENDBRANCH   6  17
TORSDOF 2
ENDMDL
MODEL 5
REMARK VINA RESULT:      -2.4      2.917      3.884
REMARK  Name = 
REMARK                            x       y       z     vdW  Elec       q    Type
REMARK                         _______ _______ _______ _____ _____    ______ ____
ROOT
ATOM      1  O   LIG    1       17.750   4.023  51.458  0.00  0.00    -0.225 OA
ATOM      2  C   LIG    1       16.797   4.444  52.095  0.00  0.00    +0.415 C 
ATOM      3  N   LIG    1       15.757   3.742  52.638  0.00  0.00    -0.172 N 
ATOM      4  C   LIG    1       14.947   4.609  53.328  0.00  0.00    +0.276 C 
ATOM      5  O   LIG    1       13.889   4.384  53.901  0.00  0.00    -0.270 OA
ATOM      6  C   LIG    1       15.603   5.977  53.267  0.00  0.00    +0.206 C 
ATOM      7  C   LIG    1       16.161   6.337  54.642  0.00  0.00    +0.071 C 
ATOM      8  O   LIG    1       16.692   5.776  52.374  0.00  0.00    -0.430 OA
ENDROOT
BRANCH   3   9
ATOM      9  C   LIG    1       15.542   2.334  52.502  0.00  0.00    +0.050 A 
ATOM     10  C   LIG    1       14.702   1.809  51.505  0.00  0.00    +0.044 A 
ATOM     11  C   LIG    1       14.492   0.429  51.384  0.00  0.00    +0.044 A 
ATOM     12 CL   LIG    1       13.440  -0.167  50.157  0.00  0.00    -0.083 Cl
ATOM     13  C   LIG    1       15.115  -0.464  52.242  0.00  0.00    +0.040 A 
ATOM     14  C   LIG    1       15.951   0.035  53.229  0.00  0.00    +0.044 A 
ATOM     15 CL   LIG    1       16.746  -1.056  54.298  0.00  0.00    -0.083 Cl
ATOM     16  C   LIG    1       16.164   1.413  53.364  0.00  0.00    +0.044 A 
ENDBRANCH   3   9
BRANCH   6  17
ATOM     17  C   LIG    1       14.685   7.040  52.716  0.00  0.00    +0.022 C 
ATOM     18  C   LIG    1       14.920   7.803  51.637  0.00  0.00    +0.008 C 
ENDBRANCH   6  17
TORSDOF 2
ENDMDL
MODEL 6
REMARK VINA RESULT:      -2.2      3.201      5.605
REMARK  Name = 
REMARK                            x       y       z     vdW  Elec       q    Type
REMARK                         _______ _______ _______ _____ _____    ______ ____
ROOT
ATOM      1  O   LIG    1       17.996   3.069  55.131  0.00  0.00    -0.225 OA
ATOM      2  C   LIG    1       17.234   2.464  54.392  0.00  0.00    +0.415 C 
ATOM      3  N   LIG    1       17.165   2.496  53.027  0.00  0.00    -0.172 N 
ATOM      4  C   LIG    1       16.205   1.609  52.609  0.00  0.00    +0.276 C 
ATOM      5  O   LIG    1       15.801   1.388  51.475  0.00  0.00    -0.270 OA
ATOM      6  C   LIG    1       15.683   0.900  53.847  0.00  0.00    +0.206 C 
ATOM      7  C   LIG    1       16.175  -0.546  53.851  0.00  0.00    +0.071 C 
ATOM      8  O   LIG    1       16.317   1.598  54.912  0.00  0.00    -0.430 OA
ENDROOT
BRANCH   3   9
ATOM      9  C   LIG    1       17.957   3.326  52.172  0.00  0.00    +0.050 A 
ATOM     10  C   LIG    1       19.313   3.050  51.926  0.00  0.00    +0.044 A 
ATOM     11  C   LIG    1       20.083   3.872  51.092  0.00  0.00    +0.044 A 
ATOM     12 CL   LIG    1       21.745   3.504  50.834  0.00  0.00    -0.083 Cl
ATOM     13  C   LIG    1       19.525   4.982  50.476  0.00  0.00    +0.040 A 
ATOM     14  C   LIG    1       18.187   5.267  50.703  0.00  0.00    +0.044 A 
ATOM     15 CL   LIG    1       17.470   6.633  49.938  0.00  0.00    -0.083 Cl
ATOM     16  C   LIG    1       17.411   4.456  51.539  0.00  0.00    +0.044 A 
ENDBRANCH   3   9
BRANCH   6  17
ATOM     17  C   LIG    1       14.185   1.004  53.992  0.00  0.00    +0.022 C 
ATOM     18  C   LIG    1       13.461   2.130  53.903  0.00  0.00    +0.008 C 
ENDBRANCH   6  17
TORSDOF 2
ENDMDL
MODEL 7
REMARK VINA RESULT:      -2.2      1.649      2.599
REMARK  Name = 
REMARK                            x       y       z     vdW  Elec       q    Type
REMARK                         _______ _______ _______ _____ _____    ______ ____
ROOT
ATOM      1  O   LIG    1       19.124   3.581  54.399  0.00  0.00    -0.225 OA
ATOM      2  C   LIG    1       19.219   4.044  53.273  0.00  0.00    +0.415 C 
ATOM      3  N   LIG    1       18.249   4.174  52.320  0.00  0.00    -0.172 N 
ATOM      4  C   LIG    1       18.783   4.808  51.226  0.00  0.00    +0.276 C 
ATOM      5  O   LIG    1       18.258   5.056  50.148  0.00  0.00    -0.270 OA
ATOM      6  C   LIG    1       20.214   5.175  51.576  0.00  0.00    +0.206 C 
ATOM      7  C   LIG    1       20.320   6.688  51.765  0.00  0.00    +0.071 C 
ATOM      8  O   LIG    1       20.411   4.545  52.836  0.00  0.00    -0.430 OA
ENDROOT
BRANCH   3   9
ATOM      9  C   LIG    1       16.899   3.716  52.438  0.00  0.00    +0.050 A 
ATOM     10  C   LIG    1       15.924   4.460  53.124  0.00  0.00    +0.044 A 
ATOM     11  C   LIG    1       14.606   4.001  53.240  0.00  0.00    +0.044 A 
ATOM     12 CL   LIG    1       13.450   4.939  54.105  0.00  0.00    -0.083 Cl
ATOM     13  C   LIG    1       14.219   2.797  52.671  0.00  0.00    +0.040 A 
ATOM     14  C   LIG    1       15.166   2.051  51.985  0.00  0.00    +0.044 A 
ATOM     15 CL   LIG    1       14.705   0.559  51.260  0.00  0.00    -0.083 Cl
ATOM     16  C   LIG    1       16.488   2.497  51.869  0.00  0.00    +0.044 A 
ENDBRANCH   3   9
BRANCH   6  17
ATOM     17  C   LIG    1       21.214   4.643  50.580  0.00  0.00    +0.022 C 
ATOM     18  C   LIG    1       22.161   5.358  49.955  0.00  0.00    +0.008 C 
ENDBRANCH   6  17
TORSDOF 2
ENDMDL
MODEL 8
REMARK VINA RESULT:      -2.2      0.949      3.145
REMARK  Name = 
REMARK                            x       y       z     vdW  Elec       q    Type
REMARK                         _______ _______ _______ _____ _____    ______ ____
ROOT
ATOM      1  O   LIG    1       16.420   5.779  52.021  0.00  0.00    -0.225 OA
ATOM      2  C   LIG    1       17.323   4.966  52.142  0.00  0.00    +0.415 C 
ATOM      3  N   LIG    1       17.238   3.638  52.451  0.00  0.00    -0.172 N 
ATOM      4  C   LIG    1       18.497   3.092  52.417  0.00  0.00    +0.276 C 
ATOM      5  O   LIG    1       18.850   1.952  52.690  0.00  0.00    -0.270 OA
ATOM      6  C   LIG    1       19.446   4.186  51.961  0.00  0.00    +0.206 C 
ATOM      7  C   LIG    1       19.920   3.890  50.539  0.00  0.00    +0.071 C 
ATOM      8  O   LIG    1       18.618   5.342  51.931  0.00  0.00    -0.430 OA
ENDROOT
BRANCH   3   9
ATOM      9  C   LIG    1       16.035   2.932  52.770  0.00  0.00    +0.050 A 
ATOM     10  C   LIG    1       15.450   3.008  54.045  0.00  0.00    +0.044 A 
ATOM     11  C   LIG    1       14.276   2.308  54.350  0.00  0.00    +0.044 A 
ATOM     12 CL   LIG    1       13.606   2.418  55.932  0.00  0.00    -0.083 Cl
ATOM     13  C   LIG    1       13.648   1.522  53.396  0.00  0.00    +0.040 A 
ATOM     14  C   LIG    1       14.207   1.439  52.130  0.00  0.00    +0.044 A 
ATOM     15 CL   LIG    1       13.438   0.479  50.925  0.00  0.00    -0.083 Cl
ATOM     16  C   LIG    1       15.385   2.129  51.816  0.00  0.00    +0.044 A 
ENDBRANCH   3   9
BRANCH   6  17
ATOM     17  C   LIG    1       20.589   4.405  52.921  0.00  0.00    +0.022 C 
ATOM     18  C   LIG    1       20.478   4.653  54.235  0.00  0.00    +0.008 C 
ENDBRANCH   6  17
TORSDOF 2
ENDMDL
MODEL 9
REMARK VINA RESULT:      -2.2      3.623      5.602
REMARK  Name = 
REMARK                            x       y       z     vdW  Elec       q    Type
REMARK                         _______ _______ _______ _____ _____    ______ ____
ROOT
ATOM      1  O   LIG    1       17.324   3.154  52.043  0.00  0.00    -0.225 OA
ATOM      2  C   LIG    1       16.579   2.208  52.245  0.00  0.00    +0.415 C 
ATOM      3  N   LIG    1       16.687   1.223  53.187  0.00  0.00    -0.172 N 
ATOM      4  C   LIG    1       15.592   0.401  53.099  0.00  0.00    +0.276 C 
ATOM      5  O   LIG    1       15.345  -0.623  53.722  0.00  0.00    -0.270 OA
ATOM      6  C   LIG    1       14.675   0.990  52.042  0.00  0.00    +0.206 C 
ATOM      7  C   LIG    1       13.438   1.584  52.713  0.00  0.00    +0.071 C 
ATOM      8  O   LIG    1       15.449   2.052  51.496  0.00  0.00    -0.430 OA
ENDROOT
BRANCH   3   9
ATOM      9  C   LIG    1       17.771   1.067  54.108  0.00  0.00    +0.050 A 
ATOM     10  C   LIG    1       19.010   0.539  53.708  0.00  0.00    +0.044 A 
ATOM     11  C   LIG    1       20.063   0.384  54.618  0.00  0.00    +0.044 A 
ATOM     12 CL   LIG    1       21.558  -0.285  54.086  0.00  0.00    -0.083 Cl
ATOM     13  C   LIG    1       19.917   0.756  55.946  0.00  0.00    +0.040 A 
ATOM     14  C   LIG    1       18.703   1.285  56.359  0.00  0.00    +0.044 A 
ATOM     15 CL   LIG    1       18.502   1.767  58.000  0.00  0.00    -0.083 Cl
ATOM     16  C   LIG    1       17.641   1.438  55.458  0.00  0.00    +0.044 A 
ENDBRANCH   3   9
BRANCH   6  17
ATOM     17  C   LIG    1       14.329   0.005  50.953  0.00  0.00    +0.022 C 
ATOM     18  C   LIG    1       15.172  -0.475  50.026  0.00  0.00    +0.008 C 
ENDBRANCH   6  17
TORSDOF 2
ENDMDL
