MODEL 1
REMARK VINA RESULT:      -7.8      0.000      0.000
REMARK  Name = 
REMARK                            x       y       z     vdW  Elec       q    Type
REMARK                         _______ _______ _______ _____ _____    ______ ____
ROOT
ATOM      1  O   LIG    1       30.518   2.233  20.729  0.00  0.00    -0.225 OA
ATOM      2  C   LIG    1       29.889   1.271  21.142  0.00  0.00    +0.415 C 
ATOM      3  N   LIG    1       28.597   0.917  20.870  0.00  0.00    -0.172 N 
ATOM      4  C   LIG    1       28.321  -0.273  21.496  0.00  0.00    +0.276 C 
ATOM      5  O   LIG    1       27.264  -0.889  21.548  0.00  0.00    -0.270 OA
ATOM      6  C   LIG    1       29.606  -0.738  22.158  0.00  0.00    +0.206 C 
ATOM      7  C   LIG    1       30.162  -1.943  21.402  0.00  0.00    +0.071 C 
ATOM      8  O   LIG    1       30.486   0.363  21.967  0.00  0.00    -0.430 OA
ENDROOT
BRANCH   3   9
ATOM      9  C   LIG    1       27.678   1.669  20.072  0.00  0.00    +0.050 A 
ATOM     10  C   LIG    1       27.184   2.916  20.492  0.00  0.00    +0.044 A 
ATOM     11  C   LIG    1       26.279   3.642  19.707  0.00  0.00    +0.044 A 
ATOM     12 CL   LIG    1       25.688   5.158  20.271  0.00  0.00    -0.083 Cl
ATOM     13  C   LIG    1       25.848   3.153  18.483  0.00  0.00    +0.040 A 
ATOM     14  C   LIG    1       26.328   1.927  18.049  0.00  0.00    +0.044 A 
ATOM     15 CL   LIG    1       25.816   1.307  16.526  0.00  0.00    -0.083 Cl
ATOM     16  C   LIG    1       27.228   1.190  18.829  0.00  0.00    +0.044 A 
ENDBRANCH   3   9
BRANCH   6  17
ATOM     17  C   LIG    1       29.439  -1.004  23.634  0.00  0.00    +0.022 C 
ATOM     18  C   LIG    1       30.422  -1.304  24.497  0.00  0.00    +0.008 C 
ENDBRANCH   6  17
TORSDOF 2
ENDMDL
MODEL 2
REMARK VINA RESULT:      -7.8      0.011      2.116
REMARK  Name = 
REMARK                            x       y       z     vdW  Elec       q    Type
REMARK                         _______ _______ _______ _____ _____    ______ ____
ROOT
ATOM      1  O   LIG    1       30.510   2.233  20.718  0.00  0.00    -0.225 OA
ATOM      2  C   LIG    1       29.882   1.272  21.132  0.00  0.00    +0.415 C 
ATOM      3  N   LIG    1       28.591   0.915  20.861  0.00  0.00    -0.172 N 
ATOM      4  C   LIG    1       28.316  -0.274  21.488  0.00  0.00    +0.276 C 
ATOM      5  O   LIG    1       27.260  -0.891  21.541  0.00  0.00    -0.270 OA
ATOM      6  C   LIG    1       29.601  -0.737  22.152  0.00  0.00    +0.206 C 
ATOM      7  C   LIG    1       30.159  -1.942  21.397  0.00  0.00    +0.071 C 
ATOM      8  O   LIG    1       30.480   0.365  21.959  0.00  0.00    -0.430 OA
ENDROOT
BRANCH   3   9
ATOM      9  C   LIG    1       27.670   1.665  20.061  0.00  0.00    +0.050 A 
ATOM     10  C   LIG    1       27.216   1.191  18.819  0.00  0.00    +0.044 A 
ATOM     11  C   LIG    1       26.320   1.934  18.040  0.00  0.00    +0.044 A 
ATOM     12 CL   LIG    1       25.806   1.320  16.516  0.00  0.00    -0.083 Cl
ATOM     13  C   LIG    1       25.846   3.161  18.477  0.00  0.00    +0.040 A 
ATOM     14  C   LIG    1       26.278   3.643  19.704  0.00  0.00    +0.044 A 
ATOM     15 CL   LIG    1       25.691   5.159  20.273  0.00  0.00    -0.083 Cl
ATOM     16  C   LIG    1       27.179   2.911  20.487  0.00  0.00    +0.044 A 
ENDBRANCH   3   9
BRANCH   6  17
ATOM     17  C   LIG    1       29.434  -1.000  23.627  0.00  0.00    +0.022 C 
ATOM     18  C   LIG    1       30.417  -1.304  24.490  0.00  0.00    +0.008 C 
ENDBRANCH   6  17
TORSDOF 2
ENDMDL
MODEL 3
REMARK VINA RESULT:      -7.0      1.182      3.100
REMARK  Name = 
REMARK                            x       y       z     vdW  Elec       q    Type
REMARK                         _______ _______ _______ _____ _____    ______ ____
ROOT
ATOM      1  O   LIG    1       26.541  -1.408  19.405  0.00  0.00    -0.225 OA
ATOM      2  C   LIG    1       27.404  -0.854  20.069  0.00  0.00    +0.415 C 
ATOM      3  N   LIG    1       27.649   0.484  20.202  0.00  0.00    -0.172 N 
ATOM      4  C   LIG    1       28.672   0.662  21.100  0.00  0.00    +0.276 C 
ATOM      5  O   LIG    1       29.224   1.699  21.444  0.00  0.00    -0.270 OA
ATOM      6  C   LIG    1       29.042  -0.711  21.633  0.00  0.00    +0.206 C 
ATOM      7  C   LIG    1       28.581  -0.836  23.084  0.00  0.00    +0.071 C 
ATOM      8  O   LIG    1       28.262  -1.591  20.832  0.00  0.00    -0.430 OA
ENDROOT
BRANCH   3   9
ATOM      9  C   LIG    1       26.959   1.530  19.512  0.00  0.00    +0.050 A 
ATOM     10  C   LIG    1       26.665   1.441  18.141  0.00  0.00    +0.044 A 
ATOM     11  C   LIG    1       25.995   2.473  17.472  0.00  0.00    +0.044 A 
ATOM     12 CL   LIG    1       25.671   2.326  15.787  0.00  0.00    -0.083 Cl
ATOM     13  C   LIG    1       25.593   3.615  18.147  0.00  0.00    +0.040 A 
ATOM     14  C   LIG    1       25.869   3.719  19.502  0.00  0.00    +0.044 A 
ATOM     15 CL   LIG    1       25.367   5.123  20.363  0.00  0.00    -0.083 Cl
ATOM     16  C   LIG    1       26.544   2.697  20.179  0.00  0.00    +0.044 A 
ENDBRANCH   3   9
BRANCH   6  17
ATOM     17  C   LIG    1       30.506  -1.031  21.459  0.00  0.00    +0.022 C 
ATOM     18  C   LIG    1       31.049  -2.258  21.445  0.00  0.00    +0.008 C 
ENDBRANCH   6  17
TORSDOF 2
ENDMDL
MODEL 4
REMARK VINA RESULT:      -7.0      1.174      2.292
REMARK  Name = 
REMARK                            x       y       z     vdW  Elec       q    Type
REMARK                         _______ _______ _______ _____ _____    ______ ____
ROOT
ATOM      1  O   LIG    1       26.541  -1.399  19.426  0.00  0.00    -0.225 OA
ATOM      2  C   LIG    1       27.407  -0.848  20.087  0.00  0.00    +0.415 C 
ATOM      3  N   LIG    1       27.657   0.489  20.219  0.00  0.00    -0.172 N 
ATOM      4  C   LIG    1       28.684   0.664  21.113  0.00  0.00    +0.276 C 
ATOM      5  O   LIG    1       29.240   1.700  21.455  0.00  0.00    -0.270 OA
ATOM      6  C   LIG    1       29.052  -0.710  21.644  0.00  0.00    +0.206 C 
ATOM      7  C   LIG    1       28.596  -0.833  23.097  0.00  0.00    +0.071 C 
ATOM      8  O   LIG    1       28.267  -1.588  20.846  0.00  0.00    -0.430 OA
ENDROOT
BRANCH   3   9
ATOM      9  C   LIG    1       26.967   1.538  19.532  0.00  0.00    +0.050 A 
ATOM     10  C   LIG    1       26.544   2.702  20.195  0.00  0.00    +0.044 A 
ATOM     11  C   LIG    1       25.864   3.720  19.515  0.00  0.00    +0.044 A 
ATOM     12 CL   LIG    1       25.349   5.121  20.374  0.00  0.00    -0.083 Cl
ATOM     13  C   LIG    1       25.594   3.613  18.159  0.00  0.00    +0.040 A 
ATOM     14  C   LIG    1       26.009   2.474  17.486  0.00  0.00    +0.044 A 
ATOM     15 CL   LIG    1       25.696   2.326  15.799  0.00  0.00    -0.083 Cl
ATOM     16  C   LIG    1       26.683   1.447  18.157  0.00  0.00    +0.044 A 
ENDBRANCH   3   9
BRANCH   6  17
ATOM     17  C   LIG    1       30.514  -1.033  21.465  0.00  0.00    +0.022 C 
ATOM     18  C   LIG    1       31.054  -2.262  21.445  0.00  0.00    +0.008 C 
ENDBRANCH   6  17
TORSDOF 2
ENDMDL
MODEL 5
REMARK VINA RESULT:      -6.3      1.330      2.377
REMARK  Name = 
REMARK                            x       y       z     vdW  Elec       q    Type
REMARK                         _______ _______ _______ _____ _____    ______ ____
ROOT
ATOM      1  O   LIG    1       27.153  -0.603  23.046  0.00  0.00    -0.225 OA
ATOM      2  C   LIG    1       28.318  -0.559  22.684  0.00  0.00    +0.415 C 
ATOM      3  N   LIG    1       28.857   0.119  21.626  0.00  0.00    -0.172 N 
ATOM      4  C   LIG    1       30.218  -0.059  21.630  0.00  0.00    +0.276 C 
ATOM      5  O   LIG    1       31.048   0.332  20.820  0.00  0.00    -0.270 OA
ATOM      6  C   LIG    1       30.559  -0.870  22.868  0.00  0.00    +0.206 C 
ATOM      7  C   LIG    1       31.267   0.025  23.884  0.00  0.00    +0.071 C 
ATOM      8  O   LIG    1       29.282  -1.222  23.387  0.00  0.00    -0.430 OA
ENDROOT
BRANCH   3   9
ATOM      9  C   LIG    1       28.122   0.883  20.665  0.00  0.00    +0.050 A 
ATOM     10  C   LIG    1       27.959   2.272  20.795  0.00  0.00    +0.044 A 
ATOM     11  C   LIG    1       27.233   3.011  19.853  0.00  0.00    +0.044 A 
ATOM     12 CL   LIG    1       27.044   4.709  20.063  0.00  0.00    -0.083 Cl
ATOM     13  C   LIG    1       26.657   2.392  18.753  0.00  0.00    +0.040 A 
ATOM     14  C   LIG    1       26.812   1.022  18.605  0.00  0.00    +0.044 A 
ATOM     15 CL   LIG    1       26.118   0.233  17.240  0.00  0.00    -0.083 Cl
ATOM     16  C   LIG    1       27.531   0.273  19.544  0.00  0.00    +0.044 A 
ENDBRANCH   3   9
BRANCH   6  17
ATOM     17  C   LIG    1       31.340  -2.120  22.551  0.00  0.00    +0.022 C 
ATOM     18  C   LIG    1       30.952  -3.105  21.725  0.00  0.00    +0.008 C 
ENDBRANCH   6  17
TORSDOF 2
ENDMDL
MODEL 6
REMARK VINA RESULT:      -6.3      1.354      3.167
REMARK  Name = 
REMARK                            x       y       z     vdW  Elec       q    Type
REMARK                         _______ _______ _______ _____ _____    ______ ____
ROOT
ATOM      1  O   LIG    1       27.156  -0.650  23.074  0.00  0.00    -0.225 OA
ATOM      2  C   LIG    1       28.322  -0.599  22.716  0.00  0.00    +0.415 C 
ATOM      3  N   LIG    1       28.860   0.075  21.656  0.00  0.00    -0.172 N 
ATOM      4  C   LIG    1       30.222  -0.092  21.667  0.00  0.00    +0.276 C 
ATOM      5  O   LIG    1       31.053   0.300  20.858  0.00  0.00    -0.270 OA
ATOM      6  C   LIG    1       30.564  -0.891  22.912  0.00  0.00    +0.206 C 
ATOM      7  C   LIG    1       31.261   0.016  23.925  0.00  0.00    +0.071 C 
ATOM      8  O   LIG    1       29.288  -1.250  23.428  0.00  0.00    -0.430 OA
ENDROOT
BRANCH   3   9
ATOM      9  C   LIG    1       28.123   0.826  20.686  0.00  0.00    +0.050 A 
ATOM     10  C   LIG    1       27.541   0.213  19.564  0.00  0.00    +0.044 A 
ATOM     11  C   LIG    1       26.827   0.956  18.617  0.00  0.00    +0.044 A 
ATOM     12 CL   LIG    1       26.146   0.163  17.248  0.00  0.00    -0.083 Cl
ATOM     13  C   LIG    1       26.666   2.326  18.762  0.00  0.00    +0.040 A 
ATOM     14  C   LIG    1       27.228   2.949  19.866  0.00  0.00    +0.044 A 
ATOM     15 CL   LIG    1       27.029   4.647  20.074  0.00  0.00    -0.083 Cl
ATOM     16  C   LIG    1       27.949   2.216  20.816  0.00  0.00    +0.044 A 
ENDBRANCH   3   9
BRANCH   6  17
ATOM     17  C   LIG    1       31.356  -2.138  22.607  0.00  0.00    +0.022 C 
ATOM     18  C   LIG    1       30.936  -3.180  21.873  0.00  0.00    +0.008 C 
ENDBRANCH   6  17
TORSDOF 2
ENDMDL
MODEL 7
REMARK VINA RESULT:      -6.3      3.041      5.989
REMARK  Name = 
REMARK                            x       y       z     vdW  Elec       q    Type
REMARK                         _______ _______ _______ _____ _____    ______ ____
ROOT
ATOM      1  O   LIG    1       29.953   2.543  20.048  0.00  0.00    -0.225 OA
ATOM      2  C   LIG    1       28.779   2.250  19.881  0.00  0.00    +0.415 C 
ATOM      3  N   LIG    1       28.083   1.193  20.395  0.00  0.00    -0.172 N 
ATOM      4  C   LIG    1       26.772   1.289  19.999  0.00  0.00    +0.276 C 
ATOM      5  O   LIG    1       25.848   0.511  20.200  0.00  0.00    -0.270 OA
ATOM      6  C   LIG    1       26.633   2.586  19.223  0.00  0.00    +0.206 C 
ATOM      7  C   LIG    1       25.840   3.594  20.053  0.00  0.00    +0.071 C 
ATOM      8  O   LIG    1       27.975   3.044  19.115  0.00  0.00    -0.430 OA
ENDROOT
BRANCH   3   9
ATOM      9  C   LIG    1       28.631   0.149  21.206  0.00  0.00    +0.050 A 
ATOM     10  C   LIG    1       29.591  -0.747  20.706  0.00  0.00    +0.044 A 
ATOM     11  C   LIG    1       30.118  -1.769  21.505  0.00  0.00    +0.044 A 
ATOM     12 CL   LIG    1       31.279  -2.855  20.843  0.00  0.00    -0.083 Cl
ATOM     13  C   LIG    1       29.712  -1.924  22.822  0.00  0.00    +0.040 A 
ATOM     14  C   LIG    1       28.770  -1.045  23.335  0.00  0.00    +0.044 A 
ATOM     15 CL   LIG    1       28.262  -1.209  24.972  0.00  0.00    -0.083 Cl
ATOM     16  C   LIG    1       28.232  -0.024  22.543  0.00  0.00    +0.044 A 
ENDBRANCH   3   9
BRANCH   6  17
ATOM     17  C   LIG    1       26.054   2.384  17.845  0.00  0.00    +0.022 C 
ATOM     18  C   LIG    1       25.302   3.266  17.168  0.00  0.00    +0.008 C 
ENDBRANCH   6  17
TORSDOF 2
ENDMDL
MODEL 8
REMARK VINA RESULT:      -6.2      3.024      5.574
REMARK  Name = 
REMARK                            x       y       z     vdW  Elec       q    Type
REMARK                         _______ _______ _______ _____ _____    ______ ____
ROOT
ATOM      1  O   LIG    1       30.049   2.499  19.910  0.00  0.00    -0.225 OA
ATOM      2  C   LIG    1       28.840   2.337  19.872  0.00  0.00    +0.415 C 
ATOM      3  N   LIG    1       28.091   1.361  20.468  0.00  0.00    -0.172 N 
ATOM      4  C   LIG    1       26.764   1.601  20.215  0.00  0.00    +0.276 C 
ATOM      5  O   LIG    1       25.788   0.929  20.521  0.00  0.00    -0.270 OA
ATOM      6  C   LIG    1       26.685   2.907  19.445  0.00  0.00    +0.206 C 
ATOM      7  C   LIG    1       26.100   3.995  20.344  0.00  0.00    +0.071 C 
ATOM      8  O   LIG    1       28.050   3.216  19.189  0.00  0.00    -0.430 OA
ENDROOT
BRANCH   3   9
ATOM      9  C   LIG    1       28.607   0.263  21.227  0.00  0.00    +0.050 A 
ATOM     10  C   LIG    1       28.229   0.046  22.562  0.00  0.00    +0.044 A 
ATOM     11  C   LIG    1       28.743  -1.028  23.299  0.00  0.00    +0.044 A 
ATOM     12 CL   LIG    1       28.264  -1.244  24.939  0.00  0.00    -0.083 Cl
ATOM     13  C   LIG    1       29.639  -1.919  22.727  0.00  0.00    +0.040 A 
ATOM     14  C   LIG    1       30.019  -1.725  21.408  0.00  0.00    +0.044 A 
ATOM     15 CL   LIG    1       31.120  -2.826  20.673  0.00  0.00    -0.083 Cl
ATOM     16  C   LIG    1       29.516  -0.651  20.665  0.00  0.00    +0.044 A 
ENDBRANCH   3   9
BRANCH   6  17
ATOM     17  C   LIG    1       25.942   2.772  18.139  0.00  0.00    +0.022 C 
ATOM     18  C   LIG    1       25.965   1.704  17.326  0.00  0.00    +0.008 C 
ENDBRANCH   6  17
TORSDOF 2
ENDMDL
MODEL 9
REMARK VINA RESULT:      -6.1      3.229      6.212
REMARK  Name = 
REMARK                            x       y       z     vdW  Elec       q    Type
REMARK                         _______ _______ _______ _____ _____    ______ ____
ROOT
ATOM      1  O   LIG    1       26.387  -1.230  20.090  0.00  0.00    -0.225 OA
ATOM      2  C   LIG    1       26.765  -0.091  20.318  0.00  0.00    +0.415 C 
ATOM      3  N   LIG    1       27.946   0.322  20.867  0.00  0.00    -0.172 N 
ATOM      4  C   LIG    1       27.976   1.694  20.877  0.00  0.00    +0.276 C 
ATOM      5  O   LIG    1       28.829   2.443  21.338  0.00  0.00    -0.270 OA
ATOM      6  C   LIG    1       26.710   2.174  20.190  0.00  0.00    +0.206 C 
ATOM      7  C   LIG    1       27.063   2.766  18.827  0.00  0.00    +0.071 C 
ATOM      8  O   LIG    1       25.976   0.972  19.987  0.00  0.00    -0.430 OA
ENDROOT
BRANCH   3   9
ATOM      9  C   LIG    1       28.981  -0.535  21.359  0.00  0.00    +0.050 A 
ATOM     10  C   LIG    1       29.728  -1.359  20.501  0.00  0.00    +0.044 A 
ATOM     11  C   LIG    1       30.734  -2.200  20.992  0.00  0.00    +0.044 A 
ATOM     12 CL   LIG    1       31.612  -3.205  19.904  0.00  0.00    -0.083 Cl
ATOM     13  C   LIG    1       31.031  -2.238  22.346  0.00  0.00    +0.040 A 
ATOM     14  C   LIG    1       30.308  -1.428  23.209  0.00  0.00    +0.044 A 
ATOM     15 CL   LIG    1       30.668  -1.449  24.893  0.00  0.00    -0.083 Cl
ATOM     16  C   LIG    1       29.296  -0.589  22.729  0.00  0.00    +0.044 A 
ENDBRANCH   3   9
BRANCH   6  17
ATOM     17  C   LIG    1       25.905   3.122  21.044  0.00  0.00    +0.022 C 
ATOM     18  C   LIG    1       25.283   4.232  20.619  0.00  0.00    +0.008 C 
ENDBRANCH   6  17
TORSDOF 2
ENDMDL
