MODEL 1
REMARK VINA RESULT:      -8.4      0.000      0.000
REMARK  Name = 
REMARK                            x       y       z     vdW  Elec       q    Type
REMARK                         _______ _______ _______ _____ _____    ______ ____
ROOT
ATOM      1  O   LIG    1        2.115  20.268  30.203  0.00  0.00    -0.225 OA
ATOM      2  C   LIG    1        3.257  19.837  30.206  0.00  0.00    +0.415 C 
ATOM      3  N   LIG    1        3.767  18.777  30.901  0.00  0.00    -0.172 N 
ATOM      4  C   LIG    1        5.084  18.607  30.552  0.00  0.00    +0.276 C 
ATOM      5  O   LIG    1        5.901  17.810  30.994  0.00  0.00    -0.270 OA
ATOM      6  C   LIG    1        5.393  19.624  29.468  0.00  0.00    +0.206 C 
ATOM      7  C   LIG    1        5.560  18.907  28.129  0.00  0.00    +0.071 C 
ATOM      8  O   LIG    1        4.210  20.412  29.416  0.00  0.00    -0.430 OA
ENDROOT
BRANCH   3   9
ATOM      9  C   LIG    1        3.049  17.979  31.847  0.00  0.00    +0.050 A 
ATOM     10  C   LIG    1        2.594  18.510  33.066  0.00  0.00    +0.044 A 
ATOM     11  C   LIG    1        1.898  17.720  33.989  0.00  0.00    +0.044 A 
ATOM     12 CL   LIG    1        1.375  18.410  35.478  0.00  0.00    -0.083 Cl
ATOM     13  C   LIG    1        1.628  16.386  33.724  0.00  0.00    +0.040 A 
ATOM     14  C   LIG    1        2.065  15.845  32.524  0.00  0.00    +0.044 A 
ATOM     15 CL   LIG    1        1.729  14.194  32.167  0.00  0.00    -0.083 Cl
ATOM     16  C   LIG    1        2.767  16.624  31.597  0.00  0.00    +0.044 A 
ENDBRANCH   3   9
BRANCH   6  17
ATOM     17  C   LIG    1        6.573  20.500  29.808  0.00  0.00    +0.022 C 
ATOM     18  C   LIG    1        7.864  20.203  29.593  0.00  0.00    +0.008 C 
ENDBRANCH   6  17
TORSDOF 2
ENDMDL
MODEL 2
REMARK VINA RESULT:      -8.4      0.054      2.117
REMARK  Name = 
REMARK                            x       y       z     vdW  Elec       q    Type
REMARK                         _______ _______ _______ _____ _____    ______ ____
ROOT
ATOM      1  O   LIG    1        2.167  20.257  30.190  0.00  0.00    -0.225 OA
ATOM      2  C   LIG    1        3.310  19.828  30.209  0.00  0.00    +0.415 C 
ATOM      3  N   LIG    1        3.812  18.769  30.912  0.00  0.00    -0.172 N 
ATOM      4  C   LIG    1        5.134  18.602  30.582  0.00  0.00    +0.276 C 
ATOM      5  O   LIG    1        5.947  17.807  31.036  0.00  0.00    -0.270 OA
ATOM      6  C   LIG    1        5.457  19.619  29.503  0.00  0.00    +0.206 C 
ATOM      7  C   LIG    1        5.644  18.903  28.167  0.00  0.00    +0.071 C 
ATOM      8  O   LIG    1        4.273  20.405  29.433  0.00  0.00    -0.430 OA
ENDROOT
BRANCH   3   9
ATOM      9  C   LIG    1        3.082  17.969  31.848  0.00  0.00    +0.050 A 
ATOM     10  C   LIG    1        2.793  16.617  31.596  0.00  0.00    +0.044 A 
ATOM     11  C   LIG    1        2.072  15.844  32.514  0.00  0.00    +0.044 A 
ATOM     12 CL   LIG    1        1.726  14.196  32.154  0.00  0.00    -0.083 Cl
ATOM     13  C   LIG    1        1.628  16.389  33.710  0.00  0.00    +0.040 A 
ATOM     14  C   LIG    1        1.909  17.720  33.979  0.00  0.00    +0.044 A 
ATOM     15 CL   LIG    1        1.379  18.414  35.463  0.00  0.00    -0.083 Cl
ATOM     16  C   LIG    1        2.623  18.504  33.065  0.00  0.00    +0.044 A 
ENDBRANCH   3   9
BRANCH   6  17
ATOM     17  C   LIG    1        6.629  20.498  29.860  0.00  0.00    +0.022 C 
ATOM     18  C   LIG    1        7.925  20.202  29.669  0.00  0.00    +0.008 C 
ENDBRANCH   6  17
TORSDOF 2
ENDMDL
MODEL 3
REMARK VINA RESULT:      -8.2      0.981      2.321
REMARK  Name = 
REMARK                            x       y       z     vdW  Elec       q    Type
REMARK                         _______ _______ _______ _____ _____    ______ ____
ROOT
ATOM      1  O   LIG    1        6.519  17.557  31.316  0.00  0.00    -0.225 OA
ATOM      2  C   LIG    1        5.784  18.238  30.618  0.00  0.00    +0.415 C 
ATOM      3  N   LIG    1        4.435  18.426  30.731  0.00  0.00    -0.172 N 
ATOM      4  C   LIG    1        4.030  19.323  29.775  0.00  0.00    +0.276 C 
ATOM      5  O   LIG    1        2.898  19.707  29.509  0.00  0.00    -0.270 OA
ATOM      6  C   LIG    1        5.276  19.795  29.047  0.00  0.00    +0.206 C 
ATOM      7  C   LIG    1        5.575  21.243  29.434  0.00  0.00    +0.071 C 
ATOM      8  O   LIG    1        6.298  18.963  29.583  0.00  0.00    -0.430 OA
ENDROOT
BRANCH   3   9
ATOM      9  C   LIG    1        3.581  17.786  31.684  0.00  0.00    +0.050 A 
ATOM     10  C   LIG    1        3.178  18.432  32.865  0.00  0.00    +0.044 A 
ATOM     11  C   LIG    1        2.347  17.795  33.795  0.00  0.00    +0.044 A 
ATOM     12 CL   LIG    1        1.893  18.620  35.236  0.00  0.00    -0.083 Cl
ATOM     13  C   LIG    1        1.889  16.505  33.574  0.00  0.00    +0.040 A 
ATOM     14  C   LIG    1        2.272  15.853  32.411  0.00  0.00    +0.044 A 
ATOM     15 CL   LIG    1        1.705  14.255  32.109  0.00  0.00    -0.083 Cl
ATOM     16  C   LIG    1        3.107  16.478  31.478  0.00  0.00    +0.044 A 
ENDBRANCH   3   9
BRANCH   6  17
ATOM     17  C   LIG    1        5.192  19.598  27.554  0.00  0.00    +0.022 C 
ATOM     18  C   LIG    1        4.924  18.443  26.925  0.00  0.00    +0.008 C 
ENDBRANCH   6  17
TORSDOF 2
ENDMDL
MODEL 4
REMARK VINA RESULT:      -8.2      1.005      3.141
REMARK  Name = 
REMARK                            x       y       z     vdW  Elec       q    Type
REMARK                         _______ _______ _______ _____ _____    ______ ____
ROOT
ATOM      1  O   LIG    1        6.532  17.589  31.307  0.00  0.00    -0.225 OA
ATOM      2  C   LIG    1        5.786  18.244  30.596  0.00  0.00    +0.415 C 
ATOM      3  N   LIG    1        4.435  18.417  30.707  0.00  0.00    -0.172 N 
ATOM      4  C   LIG    1        4.016  19.286  29.731  0.00  0.00    +0.276 C 
ATOM      5  O   LIG    1        2.878  19.649  29.460  0.00  0.00    -0.270 OA
ATOM      6  C   LIG    1        5.254  19.757  28.990  0.00  0.00    +0.206 C 
ATOM      7  C   LIG    1        5.535  21.217  29.341  0.00  0.00    +0.071 C 
ATOM      8  O   LIG    1        6.289  18.951  29.542  0.00  0.00    -0.430 OA
ENDROOT
BRANCH   3   9
ATOM      9  C   LIG    1        3.592  17.788  31.677  0.00  0.00    +0.050 A 
ATOM     10  C   LIG    1        3.093  16.487  31.489  0.00  0.00    +0.044 A 
ATOM     11  C   LIG    1        2.263  15.881  32.440  0.00  0.00    +0.044 A 
ATOM     12 CL   LIG    1        1.662  14.293  32.158  0.00  0.00    -0.083 Cl
ATOM     13  C   LIG    1        1.914  16.546  33.606  0.00  0.00    +0.040 A 
ATOM     14  C   LIG    1        2.401  17.828  33.812  0.00  0.00    +0.044 A 
ATOM     15 CL   LIG    1        1.990  18.668  35.258  0.00  0.00    -0.083 Cl
ATOM     16  C   LIG    1        3.225  18.446  32.864  0.00  0.00    +0.044 A 
ENDBRANCH   3   9
BRANCH   6  17
ATOM     17  C   LIG    1        5.169  19.524  27.502  0.00  0.00    +0.022 C 
ATOM     18  C   LIG    1        4.927  18.348  26.901  0.00  0.00    +0.008 C 
ENDBRANCH   6  17
TORSDOF 2
ENDMDL
MODEL 5
REMARK VINA RESULT:      -8.1      3.228      5.974
REMARK  Name = 
REMARK                            x       y       z     vdW  Elec       q    Type
REMARK                         _______ _______ _______ _____ _____    ______ ____
ROOT
ATOM      1  O   LIG    1        1.597  20.494  30.579  0.00  0.00    -0.225 OA
ATOM      2  C   LIG    1        1.987  19.436  31.048  0.00  0.00    +0.415 C 
ATOM      3  N   LIG    1        2.970  18.608  30.583  0.00  0.00    -0.172 N 
ATOM      4  C   LIG    1        3.121  17.561  31.458  0.00  0.00    +0.276 C 
ATOM      5  O   LIG    1        3.850  16.583  31.370  0.00  0.00    -0.270 OA
ATOM      6  C   LIG    1        2.183  17.816  32.625  0.00  0.00    +0.206 C 
ATOM      7  C   LIG    1        2.998  18.194  33.861  0.00  0.00    +0.071 C 
ATOM      8  O   LIG    1        1.443  18.955  32.203  0.00  0.00    -0.430 OA
ENDROOT
BRANCH   3   9
ATOM      9  C   LIG    1        3.715  18.795  29.376  0.00  0.00    +0.050 A 
ATOM     10  C   LIG    1        3.610  17.900  28.298  0.00  0.00    +0.044 A 
ATOM     11  C   LIG    1        4.348  18.088  27.122  0.00  0.00    +0.044 A 
ATOM     12 CL   LIG    1        4.200  16.955  25.834  0.00  0.00    -0.083 Cl
ATOM     13  C   LIG    1        5.202  19.171  26.983  0.00  0.00    +0.040 A 
ATOM     14  C   LIG    1        5.315  20.069  28.035  0.00  0.00    +0.044 A 
ATOM     15 CL   LIG    1        6.359  21.429  27.879  0.00  0.00    -0.083 Cl
ATOM     16  C   LIG    1        4.587  19.887  29.217  0.00  0.00    +0.044 A 
ENDBRANCH   3   9
BRANCH   6  17
ATOM     17  C   LIG    1        1.241  16.665  32.879  0.00  0.00    +0.022 C 
ATOM     18  C   LIG    1        1.422  15.680  33.773  0.00  0.00    +0.008 C 
ENDBRANCH   6  17
TORSDOF 2
ENDMDL
MODEL 6
REMARK VINA RESULT:      -8.1      3.229      5.641
REMARK  Name = 
REMARK                            x       y       z     vdW  Elec       q    Type
REMARK                         _______ _______ _______ _____ _____    ______ ____
ROOT
ATOM      1  O   LIG    1        1.600  20.496  30.592  0.00  0.00    -0.225 OA
ATOM      2  C   LIG    1        1.995  19.439  31.057  0.00  0.00    +0.415 C 
ATOM      3  N   LIG    1        2.981  18.616  30.589  0.00  0.00    -0.172 N 
ATOM      4  C   LIG    1        3.138  17.568  31.461  0.00  0.00    +0.276 C 
ATOM      5  O   LIG    1        3.872  16.592  31.368  0.00  0.00    -0.270 OA
ATOM      6  C   LIG    1        2.202  17.815  32.630  0.00  0.00    +0.206 C 
ATOM      7  C   LIG    1        3.018  18.194  33.865  0.00  0.00    +0.071 C 
ATOM      8  O   LIG    1        1.456  18.953  32.213  0.00  0.00    -0.430 OA
ENDROOT
BRANCH   3   9
ATOM      9  C   LIG    1        3.722  18.809  29.380  0.00  0.00    +0.050 A 
ATOM     10  C   LIG    1        4.592  19.900  29.215  0.00  0.00    +0.044 A 
ATOM     11  C   LIG    1        5.310  20.085  28.026  0.00  0.00    +0.044 A 
ATOM     12 CL   LIG    1        6.351  21.446  27.862  0.00  0.00    -0.083 Cl
ATOM     13  C   LIG    1        5.188  19.189  26.975  0.00  0.00    +0.040 A 
ATOM     14  C   LIG    1        4.338  18.103  27.122  0.00  0.00    +0.044 A 
ATOM     15 CL   LIG    1        4.181  16.969  25.834  0.00  0.00    -0.083 Cl
ATOM     16  C   LIG    1        3.612  17.912  28.303  0.00  0.00    +0.044 A 
ENDBRANCH   3   9
BRANCH   6  17
ATOM     17  C   LIG    1        1.266  16.660  32.884  0.00  0.00    +0.022 C 
ATOM     18  C   LIG    1        1.451  15.677  33.779  0.00  0.00    +0.008 C 
ENDBRANCH   6  17
TORSDOF 2
ENDMDL
MODEL 7
REMARK VINA RESULT:      -8.1      5.313      8.199
REMARK  Name = 
REMARK                            x       y       z     vdW  Elec       q    Type
REMARK                         _______ _______ _______ _____ _____    ______ ____
ROOT
ATOM      1  O   LIG    1        7.746  19.877  29.486  0.00  0.00    -0.225 OA
ATOM      2  C   LIG    1        6.693  19.746  28.882  0.00  0.00    +0.415 C 
ATOM      3  N   LIG    1        6.360  20.206  27.639  0.00  0.00    -0.172 N 
ATOM      4  C   LIG    1        5.095  19.772  27.328  0.00  0.00    +0.276 C 
ATOM      5  O   LIG    1        4.418  20.019  26.339  0.00  0.00    -0.270 OA
ATOM      6  C   LIG    1        4.633  18.886  28.471  0.00  0.00    +0.206 C 
ATOM      7  C   LIG    1        4.607  17.430  28.009  0.00  0.00    +0.071 C 
ATOM      8  O   LIG    1        5.667  19.037  29.437  0.00  0.00    -0.430 OA
ENDROOT
BRANCH   3   9
ATOM      9  C   LIG    1        7.189  21.017  26.801  0.00  0.00    +0.050 A 
ATOM     10  C   LIG    1        8.089  20.449  25.883  0.00  0.00    +0.044 A 
ATOM     11  C   LIG    1        8.902  21.250  25.071  0.00  0.00    +0.044 A 
ATOM     12 CL   LIG    1       10.002  20.510  23.973  0.00  0.00    -0.083 Cl
ATOM     13  C   LIG    1        8.836  22.633  25.143  0.00  0.00    +0.040 A 
ATOM     14  C   LIG    1        7.950  23.212  26.039  0.00  0.00    +0.044 A 
ATOM     15 CL   LIG    1        7.842  24.928  26.136  0.00  0.00    -0.083 Cl
ATOM     16  C   LIG    1        7.138  22.421  26.860  0.00  0.00    +0.044 A 
ENDBRANCH   3   9
BRANCH   6  17
ATOM     17  C   LIG    1        3.319  19.331  29.062  0.00  0.00    +0.022 C 
ATOM     18  C   LIG    1        2.358  18.528  29.544  0.00  0.00    +0.008 C 
ENDBRANCH   6  17
TORSDOF 2
ENDMDL
MODEL 8
REMARK VINA RESULT:      -8.1      5.305      7.935
REMARK  Name = 
REMARK                            x       y       z     vdW  Elec       q    Type
REMARK                         _______ _______ _______ _____ _____    ______ ____
ROOT
ATOM      1  O   LIG    1        7.743  19.872  29.499  0.00  0.00    -0.225 OA
ATOM      2  C   LIG    1        6.689  19.742  28.896  0.00  0.00    +0.415 C 
ATOM      3  N   LIG    1        6.355  20.202  27.654  0.00  0.00    -0.172 N 
ATOM      4  C   LIG    1        5.090  19.770  27.344  0.00  0.00    +0.276 C 
ATOM      5  O   LIG    1        4.411  20.017  26.356  0.00  0.00    -0.270 OA
ATOM      6  C   LIG    1        4.628  18.884  28.488  0.00  0.00    +0.206 C 
ATOM      7  C   LIG    1        4.600  17.428  28.027  0.00  0.00    +0.071 C 
ATOM      8  O   LIG    1        5.663  19.034  29.453  0.00  0.00    -0.430 OA
ENDROOT
BRANCH   3   9
ATOM      9  C   LIG    1        7.184  21.011  26.814  0.00  0.00    +0.050 A 
ATOM     10  C   LIG    1        7.135  22.415  26.861  0.00  0.00    +0.044 A 
ATOM     11  C   LIG    1        7.946  23.199  26.031  0.00  0.00    +0.044 A 
ATOM     12 CL   LIG    1        7.839  24.916  26.111  0.00  0.00    -0.083 Cl
ATOM     13  C   LIG    1        8.832  22.612  25.140  0.00  0.00    +0.040 A 
ATOM     14  C   LIG    1        8.898  21.227  25.084  0.00  0.00    +0.044 A 
ATOM     15 CL   LIG    1       10.000  20.476  23.994  0.00  0.00    -0.083 Cl
ATOM     16  C   LIG    1        8.087  20.434  25.904  0.00  0.00    +0.044 A 
ENDBRANCH   3   9
BRANCH   6  17
ATOM     17  C   LIG    1        3.315  19.332  29.080  0.00  0.00    +0.022 C 
ATOM     18  C   LIG    1        2.351  18.529  29.558  0.00  0.00    +0.008 C 
ENDBRANCH   6  17
TORSDOF 2
ENDMDL
MODEL 9
REMARK VINA RESULT:      -7.8      3.349      5.868
REMARK  Name = 
REMARK                            x       y       z     vdW  Elec       q    Type
REMARK                         _______ _______ _______ _____ _____    ______ ____
ROOT
ATOM      1  O   LIG    1        6.120  17.870  31.491  0.00  0.00    -0.225 OA
ATOM      2  C   LIG    1        4.902  17.960  31.479  0.00  0.00    +0.415 C 
ATOM      3  N   LIG    1        4.078  18.240  30.425  0.00  0.00    -0.172 N 
ATOM      4  C   LIG    1        2.775  18.175  30.849  0.00  0.00    +0.276 C 
ATOM      5  O   LIG    1        1.749  18.418  30.227  0.00  0.00    -0.270 OA
ATOM      6  C   LIG    1        2.799  17.733  32.302  0.00  0.00    +0.206 C 
ATOM      7  C   LIG    1        2.284  16.298  32.406  0.00  0.00    +0.071 C 
ATOM      8  O   LIG    1        4.186  17.741  32.620  0.00  0.00    -0.430 OA
ENDROOT
BRANCH   3   9
ATOM      9  C   LIG    1        4.504  18.558  29.096  0.00  0.00    +0.050 A 
ATOM     10  C   LIG    1        5.237  19.723  28.816  0.00  0.00    +0.044 A 
ATOM     11  C   LIG    1        5.645  20.030  27.511  0.00  0.00    +0.044 A 
ATOM     12 CL   LIG    1        6.526  21.479  27.213  0.00  0.00    -0.083 Cl
ATOM     13  C   LIG    1        5.342  19.185  26.454  0.00  0.00    +0.040 A 
ATOM     14  C   LIG    1        4.624  18.027  26.712  0.00  0.00    +0.044 A 
ATOM     15 CL   LIG    1        4.249  16.956  25.417  0.00  0.00    -0.083 Cl
ATOM     16  C   LIG    1        4.206  17.715  28.011  0.00  0.00    +0.044 A 
ENDBRANCH   3   9
BRANCH   6  17
ATOM     17  C   LIG    1        2.064  18.682  33.215  0.00  0.00    +0.022 C 
ATOM     18  C   LIG    1        2.119  18.688  34.556  0.00  0.00    +0.008 C 
ENDBRANCH   6  17
TORSDOF 2
ENDMDL
