MODEL 1
REMARK VINA RESULT:      -8.1      0.000      0.000
REMARK  Name = 
REMARK                            x       y       z     vdW  Elec       q    Type
REMARK                         _______ _______ _______ _____ _____    ______ ____
ROOT
ATOM      1  O   LIG    1       24.100 -15.884  20.199  0.00  0.00    -0.225 OA
ATOM      2  C   LIG    1       24.555 -16.401  19.190  0.00  0.00    +0.415 C 
ATOM      3  N   LIG    1       25.718 -16.111  18.534  0.00  0.00    -0.172 N 
ATOM      4  C   LIG    1       25.867 -16.984  17.486  0.00  0.00    +0.276 C 
ATOM      5  O   LIG    1       26.740 -17.016  16.628  0.00  0.00    -0.270 OA
ATOM      6  C   LIG    1       24.710 -17.965  17.553  0.00  0.00    +0.206 C 
ATOM      7  C   LIG    1       25.226 -19.333  17.995  0.00  0.00    +0.071 C 
ATOM      8  O   LIG    1       23.893 -17.432  18.589  0.00  0.00    -0.430 OA
ENDROOT
BRANCH   3   9
ATOM      9  C   LIG    1       26.628 -15.062  18.877  0.00  0.00    +0.050 A 
ATOM     10  C   LIG    1       27.625 -15.238  19.852  0.00  0.00    +0.044 A 
ATOM     11  C   LIG    1       28.508 -14.204  20.186  0.00  0.00    +0.044 A 
ATOM     12 CL   LIG    1       29.701 -14.461  21.400  0.00  0.00    -0.083 Cl
ATOM     13  C   LIG    1       28.430 -12.971  19.556  0.00  0.00    +0.040 A 
ATOM     14  C   LIG    1       27.457 -12.779  18.587  0.00  0.00    +0.044 A 
ATOM     15 CL   LIG    1       27.350 -11.261  17.781  0.00  0.00    -0.083 Cl
ATOM     16  C   LIG    1       26.565 -13.805  18.250  0.00  0.00    +0.044 A 
ENDBRANCH   3   9
BRANCH   6  17
ATOM     17  C   LIG    1       23.923 -18.029  16.268  0.00  0.00    +0.022 C 
ATOM     18  C   LIG    1       22.911 -17.217  15.922  0.00  0.00    +0.008 C 
ENDBRANCH   6  17
TORSDOF 2
ENDMDL
MODEL 2
REMARK VINA RESULT:      -8.1      0.044      2.116
REMARK  Name = 
REMARK                            x       y       z     vdW  Elec       q    Type
REMARK                         _______ _______ _______ _____ _____    ______ ____
ROOT
ATOM      1  O   LIG    1       24.085 -15.827  20.195  0.00  0.00    -0.225 OA
ATOM      2  C   LIG    1       24.542 -16.350  19.191  0.00  0.00    +0.415 C 
ATOM      3  N   LIG    1       25.708 -16.066  18.536  0.00  0.00    -0.172 N 
ATOM      4  C   LIG    1       25.858 -16.944  17.492  0.00  0.00    +0.276 C 
ATOM      5  O   LIG    1       26.733 -16.983  16.637  0.00  0.00    -0.270 OA
ATOM      6  C   LIG    1       24.698 -17.922  17.561  0.00  0.00    +0.206 C 
ATOM      7  C   LIG    1       25.210 -19.289  18.011  0.00  0.00    +0.071 C 
ATOM      8  O   LIG    1       23.879 -17.382  18.592  0.00  0.00    -0.430 OA
ENDROOT
BRANCH   3   9
ATOM      9  C   LIG    1       26.620 -15.017  18.876  0.00  0.00    +0.050 A 
ATOM     10  C   LIG    1       26.570 -13.763  18.244  0.00  0.00    +0.044 A 
ATOM     11  C   LIG    1       27.471 -12.744  18.579  0.00  0.00    +0.044 A 
ATOM     12 CL   LIG    1       27.384 -11.228  17.766  0.00  0.00    -0.083 Cl
ATOM     13  C   LIG    1       28.438 -12.940  19.554  0.00  0.00    +0.040 A 
ATOM     14  C   LIG    1       28.499 -14.170  20.192  0.00  0.00    +0.044 A 
ATOM     15 CL   LIG    1       29.682 -14.432  21.415  0.00  0.00    -0.083 Cl
ATOM     16  C   LIG    1       27.607 -15.197  19.860  0.00  0.00    +0.044 A 
ENDBRANCH   3   9
BRANCH   6  17
ATOM     17  C   LIG    1       23.913 -17.990  16.275  0.00  0.00    +0.022 C 
ATOM     18  C   LIG    1       22.899 -17.183  15.926  0.00  0.00    +0.008 C 
ENDBRANCH   6  17
TORSDOF 2
ENDMDL
MODEL 3
REMARK VINA RESULT:      -8.0      3.190      5.861
REMARK  Name = 
REMARK                            x       y       z     vdW  Elec       q    Type
REMARK                         _______ _______ _______ _____ _____    ______ ____
ROOT
ATOM      1  O   LIG    1       26.007 -16.948  20.238  0.00  0.00    -0.225 OA
ATOM      2  C   LIG    1       26.292 -15.825  19.853  0.00  0.00    +0.415 C 
ATOM      3  N   LIG    1       25.714 -15.094  18.854  0.00  0.00    -0.172 N 
ATOM      4  C   LIG    1       26.306 -13.857  18.807  0.00  0.00    +0.276 C 
ATOM      5  O   LIG    1       26.114 -12.940  18.020  0.00  0.00    -0.270 OA
ATOM      6  C   LIG    1       27.303 -13.795  19.952  0.00  0.00    +0.206 C 
ATOM      7  C   LIG    1       26.780 -12.850  21.032  0.00  0.00    +0.071 C 
ATOM      8  O   LIG    1       27.290 -15.122  20.464  0.00  0.00    -0.430 OA
ENDROOT
BRANCH   3   9
ATOM      9  C   LIG    1       24.666 -15.546  17.990  0.00  0.00    +0.050 A 
ATOM     10  C   LIG    1       23.526 -14.764  17.741  0.00  0.00    +0.044 A 
ATOM     11  C   LIG    1       22.503 -15.217  16.899  0.00  0.00    +0.044 A 
ATOM     12 CL   LIG    1       21.116 -14.231  16.637  0.00  0.00    -0.083 Cl
ATOM     13  C   LIG    1       22.589 -16.453  16.276  0.00  0.00    +0.040 A 
ATOM     14  C   LIG    1       23.709 -17.237  16.506  0.00  0.00    +0.044 A 
ATOM     15 CL   LIG    1       23.844 -18.770  15.733  0.00  0.00    -0.083 Cl
ATOM     16  C   LIG    1       24.735 -16.796  17.351  0.00  0.00    +0.044 A 
ENDBRANCH   3   9
BRANCH   6  17
ATOM     17  C   LIG    1       28.696 -13.442  19.495  0.00  0.00    +0.022 C 
ATOM     18  C   LIG    1       29.748 -14.274  19.454  0.00  0.00    +0.008 C 
ENDBRANCH   6  17
TORSDOF 2
ENDMDL
MODEL 4
REMARK VINA RESULT:      -7.9      3.189      5.618
REMARK  Name = 
REMARK                            x       y       z     vdW  Elec       q    Type
REMARK                         _______ _______ _______ _____ _____    ______ ____
ROOT
ATOM      1  O   LIG    1       26.028 -16.978  20.226  0.00  0.00    -0.225 OA
ATOM      2  C   LIG    1       26.308 -15.853  19.843  0.00  0.00    +0.415 C 
ATOM      3  N   LIG    1       25.725 -15.121  18.847  0.00  0.00    -0.172 N 
ATOM      4  C   LIG    1       26.314 -13.882  18.801  0.00  0.00    +0.276 C 
ATOM      5  O   LIG    1       26.118 -12.964  18.015  0.00  0.00    -0.270 OA
ATOM      6  C   LIG    1       27.313 -13.820  19.943  0.00  0.00    +0.206 C 
ATOM      7  C   LIG    1       26.790 -12.879  21.027  0.00  0.00    +0.071 C 
ATOM      8  O   LIG    1       27.305 -15.148  20.453  0.00  0.00    -0.430 OA
ENDROOT
BRANCH   3   9
ATOM      9  C   LIG    1       24.678 -15.575  17.984  0.00  0.00    +0.050 A 
ATOM     10  C   LIG    1       24.731 -16.830  17.355  0.00  0.00    +0.044 A 
ATOM     11  C   LIG    1       23.704 -17.264  16.507  0.00  0.00    +0.044 A 
ATOM     12 CL   LIG    1       23.821 -18.803  15.745  0.00  0.00    -0.083 Cl
ATOM     13  C   LIG    1       22.595 -16.467  16.268  0.00  0.00    +0.040 A 
ATOM     14  C   LIG    1       22.522 -15.226  16.884  0.00  0.00    +0.044 A 
ATOM     15 CL   LIG    1       21.147 -14.225  16.612  0.00  0.00    -0.083 Cl
ATOM     16  C   LIG    1       23.546 -14.781  17.728  0.00  0.00    +0.044 A 
ENDBRANCH   3   9
BRANCH   6  17
ATOM     17  C   LIG    1       28.704 -13.462  19.484  0.00  0.00    +0.022 C 
ATOM     18  C   LIG    1       29.764 -14.285  19.460  0.00  0.00    +0.008 C 
ENDBRANCH   6  17
TORSDOF 2
ENDMDL
MODEL 5
REMARK VINA RESULT:      -7.9      0.902      2.268
REMARK  Name = 
REMARK                            x       y       z     vdW  Elec       q    Type
REMARK                         _______ _______ _______ _____ _____    ______ ____
ROOT
ATOM      1  O   LIG    1       26.975 -17.105  16.449  0.00  0.00    -0.225 OA
ATOM      2  C   LIG    1       25.940 -16.994  17.089  0.00  0.00    +0.415 C 
ATOM      3  N   LIG    1       25.628 -16.077  18.053  0.00  0.00    -0.172 N 
ATOM      4  C   LIG    1       24.332 -16.281  18.458  0.00  0.00    +0.276 C 
ATOM      5  O   LIG    1       23.702 -15.711  19.339  0.00  0.00    -0.270 OA
ATOM      6  C   LIG    1       23.763 -17.392  17.593  0.00  0.00    +0.206 C 
ATOM      7  C   LIG    1       22.743 -16.808  16.618  0.00  0.00    +0.071 C 
ATOM      8  O   LIG    1       24.894 -17.839  16.854  0.00  0.00    -0.430 OA
ENDROOT
BRANCH   3   9
ATOM      9  C   LIG    1       26.510 -15.074  18.566  0.00  0.00    +0.050 A 
ATOM     10  C   LIG    1       27.444 -15.360  19.576  0.00  0.00    +0.044 A 
ATOM     11  C   LIG    1       28.300 -14.370  20.077  0.00  0.00    +0.044 A 
ATOM     12 CL   LIG    1       29.416 -14.762  21.328  0.00  0.00    -0.083 Cl
ATOM     13  C   LIG    1       28.256 -13.075  19.582  0.00  0.00    +0.040 A 
ATOM     14  C   LIG    1       27.345 -12.776  18.580  0.00  0.00    +0.044 A 
ATOM     15 CL   LIG    1       27.283 -11.178  17.941  0.00  0.00    -0.083 Cl
ATOM     16  C   LIG    1       26.481 -13.756  18.078  0.00  0.00    +0.044 A 
ENDBRANCH   3   9
BRANCH   6  17
ATOM     17  C   LIG    1       23.204 -18.535  18.404  0.00  0.00    +0.022 C 
ATOM     18  C   LIG    1       23.759 -19.748  18.544  0.00  0.00    +0.008 C 
ENDBRANCH   6  17
TORSDOF 2
ENDMDL
MODEL 6
REMARK VINA RESULT:      -7.9      0.902      3.100
REMARK  Name = 
REMARK                            x       y       z     vdW  Elec       q    Type
REMARK                         _______ _______ _______ _____ _____    ______ ____
ROOT
ATOM      1  O   LIG    1       26.966 -17.095  16.445  0.00  0.00    -0.225 OA
ATOM      2  C   LIG    1       25.934 -16.987  17.089  0.00  0.00    +0.415 C 
ATOM      3  N   LIG    1       25.623 -16.072  18.055  0.00  0.00    -0.172 N 
ATOM      4  C   LIG    1       24.329 -16.278  18.464  0.00  0.00    +0.276 C 
ATOM      5  O   LIG    1       23.701 -15.711  19.349  0.00  0.00    -0.270 OA
ATOM      6  C   LIG    1       23.760 -17.391  17.601  0.00  0.00    +0.206 C 
ATOM      7  C   LIG    1       22.734 -16.808  16.630  0.00  0.00    +0.071 C 
ATOM      8  O   LIG    1       24.889 -17.834  16.857  0.00  0.00    -0.430 OA
ENDROOT
BRANCH   3   9
ATOM      9  C   LIG    1       26.504 -15.067  18.565  0.00  0.00    +0.050 A 
ATOM     10  C   LIG    1       26.479 -13.748  18.080  0.00  0.00    +0.044 A 
ATOM     11  C   LIG    1       27.350 -12.772  18.581  0.00  0.00    +0.044 A 
ATOM     12 CL   LIG    1       27.295 -11.173  17.944  0.00  0.00    -0.083 Cl
ATOM     13  C   LIG    1       28.262 -13.077  19.580  0.00  0.00    +0.040 A 
ATOM     14  C   LIG    1       28.298 -14.372  20.074  0.00  0.00    +0.044 A 
ATOM     15 CL   LIG    1       29.414 -14.771  21.324  0.00  0.00    -0.083 Cl
ATOM     16  C   LIG    1       27.437 -15.357  19.577  0.00  0.00    +0.044 A 
ENDBRANCH   3   9
BRANCH   6  17
ATOM     17  C   LIG    1       23.206 -18.535  18.413  0.00  0.00    +0.022 C 
ATOM     18  C   LIG    1       23.764 -19.748  18.549  0.00  0.00    +0.008 C 
ENDBRANCH   6  17
TORSDOF 2
ENDMDL
MODEL 7
REMARK VINA RESULT:      -7.5      3.151      5.574
REMARK  Name = 
REMARK                            x       y       z     vdW  Elec       q    Type
REMARK                         _______ _______ _______ _____ _____    ______ ____
ROOT
ATOM      1  O   LIG    1       25.552 -12.911  21.048  0.00  0.00    -0.225 OA
ATOM      2  C   LIG    1       26.476 -13.464  20.472  0.00  0.00    +0.415 C 
ATOM      3  N   LIG    1       26.423 -14.401  19.479  0.00  0.00    -0.172 N 
ATOM      4  C   LIG    1       27.701 -14.698  19.078  0.00  0.00    +0.276 C 
ATOM      5  O   LIG    1       28.080 -15.526  18.260  0.00  0.00    -0.270 OA
ATOM      6  C   LIG    1       28.636 -13.787  19.855  0.00  0.00    +0.206 C 
ATOM      7  C   LIG    1       29.218 -12.732  18.915  0.00  0.00    +0.071 C 
ATOM      8  O   LIG    1       27.766 -13.142  20.778  0.00  0.00    -0.430 OA
ENDROOT
BRANCH   3   9
ATOM      9  C   LIG    1       25.230 -14.987  18.949  0.00  0.00    +0.050 A 
ATOM     10  C   LIG    1       24.956 -16.358  19.087  0.00  0.00    +0.044 A 
ATOM     11  C   LIG    1       23.789 -16.924  18.560  0.00  0.00    +0.044 A 
ATOM     12 CL   LIG    1       23.505 -18.613  18.739  0.00  0.00    -0.083 Cl
ATOM     13  C   LIG    1       22.859 -16.144  17.889  0.00  0.00    +0.040 A 
ATOM     14  C   LIG    1       23.109 -14.787  17.747  0.00  0.00    +0.044 A 
ATOM     15 CL   LIG    1       21.963 -13.795  16.930  0.00  0.00    -0.083 Cl
ATOM     16  C   LIG    1       24.276 -14.212  18.265  0.00  0.00    +0.044 A 
ENDBRANCH   3   9
BRANCH   6  17
ATOM     17  C   LIG    1       29.700 -14.546  20.607  0.00  0.00    +0.022 C 
ATOM     18  C   LIG    1       30.101 -14.306  21.865  0.00  0.00    +0.008 C 
ENDBRANCH   6  17
TORSDOF 2
ENDMDL
MODEL 8
REMARK VINA RESULT:      -7.5      3.152      5.921
REMARK  Name = 
REMARK                            x       y       z     vdW  Elec       q    Type
REMARK                         _______ _______ _______ _____ _____    ______ ____
ROOT
ATOM      1  O   LIG    1       25.553 -12.914  21.058  0.00  0.00    -0.225 OA
ATOM      2  C   LIG    1       26.478 -13.459  20.474  0.00  0.00    +0.415 C 
ATOM      3  N   LIG    1       26.425 -14.389  19.474  0.00  0.00    -0.172 N 
ATOM      4  C   LIG    1       27.704 -14.678  19.068  0.00  0.00    +0.276 C 
ATOM      5  O   LIG    1       28.083 -15.499  18.242  0.00  0.00    -0.270 OA
ATOM      6  C   LIG    1       28.637 -13.771  19.849  0.00  0.00    +0.206 C 
ATOM      7  C   LIG    1       29.213 -12.707  18.916  0.00  0.00    +0.071 C 
ATOM      8  O   LIG    1       27.768 -13.136  20.780  0.00  0.00    -0.430 OA
ENDROOT
BRANCH   3   9
ATOM      9  C   LIG    1       25.233 -14.975  18.943  0.00  0.00    +0.050 A 
ATOM     10  C   LIG    1       24.277 -14.207  18.256  0.00  0.00    +0.044 A 
ATOM     11  C   LIG    1       23.109 -14.787  17.745  0.00  0.00    +0.044 A 
ATOM     12 CL   LIG    1       21.958 -13.804  16.925  0.00  0.00    -0.083 Cl
ATOM     13  C   LIG    1       22.864 -16.144  17.894  0.00  0.00    +0.040 A 
ATOM     14  C   LIG    1       23.799 -16.919  18.565  0.00  0.00    +0.044 A 
ATOM     15 CL   LIG    1       23.522 -18.608  18.751  0.00  0.00    -0.083 Cl
ATOM     16  C   LIG    1       24.966 -16.348  19.085  0.00  0.00    +0.044 A 
ENDBRANCH   3   9
BRANCH   6  17
ATOM     17  C   LIG    1       29.706 -14.532  20.592  0.00  0.00    +0.022 C 
ATOM     18  C   LIG    1       30.087 -14.321  21.862  0.00  0.00    +0.008 C 
ENDBRANCH   6  17
TORSDOF 2
ENDMDL
MODEL 9
REMARK VINA RESULT:      -7.2      3.645      4.678
REMARK  Name = 
REMARK                            x       y       z     vdW  Elec       q    Type
REMARK                         _______ _______ _______ _____ _____    ______ ____
ROOT
ATOM      1  O   LIG    1       21.399 -13.796  16.239  0.00  0.00    -0.225 OA
ATOM      2  C   LIG    1       21.173 -14.720  17.005  0.00  0.00    +0.415 C 
ATOM      3  N   LIG    1       22.057 -15.436  17.762  0.00  0.00    -0.172 N 
ATOM      4  C   LIG    1       21.360 -16.337  18.528  0.00  0.00    +0.276 C 
ATOM      5  O   LIG    1       21.788 -17.196  19.288  0.00  0.00    -0.270 OA
ATOM      6  C   LIG    1       19.883 -16.094  18.270  0.00  0.00    +0.206 C 
ATOM      7  C   LIG    1       19.249 -15.453  19.503  0.00  0.00    +0.071 C 
ATOM      8  O   LIG    1       19.891 -15.139  17.215  0.00  0.00    -0.430 OA
ENDROOT
BRANCH   3   9
ATOM      9  C   LIG    1       23.479 -15.280  17.752  0.00  0.00    +0.050 A 
ATOM     10  C   LIG    1       24.319 -16.205  17.110  0.00  0.00    +0.044 A 
ATOM     11  C   LIG    1       25.710 -16.048  17.110  0.00  0.00    +0.044 A 
ATOM     12 CL   LIG    1       26.700 -17.218  16.324  0.00  0.00    -0.083 Cl
ATOM     13  C   LIG    1       26.304 -14.965  17.742  0.00  0.00    +0.040 A 
ATOM     14  C   LIG    1       25.491 -14.038  18.377  0.00  0.00    +0.044 A 
ATOM     15 CL   LIG    1       26.205 -12.679  19.156  0.00  0.00    -0.083 Cl
ATOM     16  C   LIG    1       24.100 -14.189  18.388  0.00  0.00    +0.044 A 
ENDBRANCH   3   9
BRANCH   6  17
ATOM     17  C   LIG    1       19.156 -17.337  17.822  0.00  0.00    +0.022 C 
ATOM     18  C   LIG    1       18.438 -18.157  18.607  0.00  0.00    +0.008 C 
ENDBRANCH   6  17
TORSDOF 2
ENDMDL
