MODEL 1
REMARK VINA RESULT:      -7.3      0.000      0.000
REMARK  Name = 
REMARK                            x       y       z     vdW  Elec       q    Type
REMARK                         _______ _______ _______ _____ _____    ______ ____
ROOT
ATOM      1  O   LIG    1        5.116  10.508  -0.985  0.00  0.00    -0.225 OA
ATOM      2  C   LIG    1        4.776  10.187  -2.113  0.00  0.00    +0.415 C 
ATOM      3  N   LIG    1        4.166   9.035  -2.524  0.00  0.00    -0.172 N 
ATOM      4  C   LIG    1        3.907   9.124  -3.869  0.00  0.00    +0.276 C 
ATOM      5  O   LIG    1        3.428   8.283  -4.619  0.00  0.00    -0.270 OA
ATOM      6  C   LIG    1        4.333  10.512  -4.315  0.00  0.00    +0.206 C 
ATOM      7  C   LIG    1        3.095  11.352  -4.621  0.00  0.00    +0.071 C 
ATOM      8  O   LIG    1        4.967  11.044  -3.158  0.00  0.00    -0.430 OA
ENDROOT
BRANCH   3   9
ATOM      9  C   LIG    1        3.857   7.913  -1.691  0.00  0.00    +0.050 A 
ATOM     10  C   LIG    1        2.742   7.915  -0.836  0.00  0.00    +0.044 A 
ATOM     11  C   LIG    1        2.450   6.815  -0.019  0.00  0.00    +0.044 A 
ATOM     12 CL   LIG    1        1.082   6.869   1.026  0.00  0.00    -0.083 Cl
ATOM     13  C   LIG    1        3.251   5.683  -0.037  0.00  0.00    +0.040 A 
ATOM     14  C   LIG    1        4.353   5.661  -0.879  0.00  0.00    +0.044 A 
ATOM     15 CL   LIG    1        5.355   4.261  -0.926  0.00  0.00    -0.083 Cl
ATOM     16  C   LIG    1        4.658   6.758  -1.694  0.00  0.00    +0.044 A 
ENDBRANCH   3   9
BRANCH   6  17
ATOM     17  C   LIG    1        5.313  10.481  -5.462  0.00  0.00    +0.022 C 
ATOM     18  C   LIG    1        6.420  11.232  -5.573  0.00  0.00    +0.008 C 
ENDBRANCH   6  17
TORSDOF 2
ENDMDL
MODEL 2
REMARK VINA RESULT:      -7.3      0.079      2.117
REMARK  Name = 
REMARK                            x       y       z     vdW  Elec       q    Type
REMARK                         _______ _______ _______ _____ _____    ______ ____
ROOT
ATOM      1  O   LIG    1        5.189  10.485  -1.008  0.00  0.00    -0.225 OA
ATOM      2  C   LIG    1        4.849  10.167  -2.137  0.00  0.00    +0.415 C 
ATOM      3  N   LIG    1        4.238   9.018  -2.552  0.00  0.00    -0.172 N 
ATOM      4  C   LIG    1        3.979   9.112  -3.897  0.00  0.00    +0.276 C 
ATOM      5  O   LIG    1        3.500   8.274  -4.650  0.00  0.00    -0.270 OA
ATOM      6  C   LIG    1        4.409  10.500  -4.338  0.00  0.00    +0.206 C 
ATOM      7  C   LIG    1        3.172  11.343  -4.643  0.00  0.00    +0.071 C 
ATOM      8  O   LIG    1        5.043  11.027  -3.179  0.00  0.00    -0.430 OA
ENDROOT
BRANCH   3   9
ATOM      9  C   LIG    1        3.926   7.894  -1.723  0.00  0.00    +0.050 A 
ATOM     10  C   LIG    1        4.705   6.725  -1.740  0.00  0.00    +0.044 A 
ATOM     11  C   LIG    1        4.389   5.627  -0.930  0.00  0.00    +0.044 A 
ATOM     12 CL   LIG    1        5.364   4.210  -0.998  0.00  0.00    -0.083 Cl
ATOM     13  C   LIG    1        3.296   5.664  -0.077  0.00  0.00    +0.040 A 
ATOM     14  C   LIG    1        2.518   6.812  -0.042  0.00  0.00    +0.044 A 
ATOM     15 CL   LIG    1        1.164   6.885   1.020  0.00  0.00    -0.083 Cl
ATOM     16  C   LIG    1        2.822   7.912  -0.853  0.00  0.00    +0.044 A 
ENDBRANCH   3   9
BRANCH   6  17
ATOM     17  C   LIG    1        5.389  10.472  -5.484  0.00  0.00    +0.022 C 
ATOM     18  C   LIG    1        6.510  11.204  -5.582  0.00  0.00    +0.008 C 
ENDBRANCH   6  17
TORSDOF 2
ENDMDL
MODEL 3
REMARK VINA RESULT:      -7.2     11.712     13.306
REMARK  Name = 
REMARK                            x       y       z     vdW  Elec       q    Type
REMARK                         _______ _______ _______ _____ _____    ______ ____
ROOT
ATOM      1  O   LIG    1       15.323   3.539  -3.247  0.00  0.00    -0.225 OA
ATOM      2  C   LIG    1       14.245   2.984  -3.385  0.00  0.00    +0.415 C 
ATOM      3  N   LIG    1       13.941   1.889  -4.144  0.00  0.00    -0.172 N 
ATOM      4  C   LIG    1       12.621   1.566  -3.951  0.00  0.00    +0.276 C 
ATOM      5  O   LIG    1       11.954   0.693  -4.491  0.00  0.00    -0.270 OA
ATOM      6  C   LIG    1       12.077   2.518  -2.901  0.00  0.00    +0.206 C 
ATOM      7  C   LIG    1       11.841   1.758  -1.596  0.00  0.00    +0.071 C 
ATOM      8  O   LIG    1       13.149   3.432  -2.705  0.00  0.00    -0.430 OA
ENDROOT
BRANCH   3   9
ATOM      9  C   LIG    1       14.847   1.196  -5.008  0.00  0.00    +0.050 A 
ATOM     10  C   LIG    1       15.785   0.277  -4.508  0.00  0.00    +0.044 A 
ATOM     11  C   LIG    1       16.673  -0.392  -5.361  0.00  0.00    +0.044 A 
ATOM     12 CL   LIG    1       17.817  -1.497  -4.701  0.00  0.00    -0.083 Cl
ATOM     13  C   LIG    1       16.648  -0.172  -6.729  0.00  0.00    +0.040 A 
ATOM     14  C   LIG    1       15.725   0.728  -7.241  0.00  0.00    +0.044 A 
ATOM     15 CL   LIG    1       15.666   1.007  -8.940  0.00  0.00    -0.083 Cl
ATOM     16  C   LIG    1       14.838   1.407  -6.398  0.00  0.00    +0.044 A 
ENDBRANCH   3   9
BRANCH   6  17
ATOM     17  C   LIG    1       10.852   3.265  -3.367  0.00  0.00    +0.022 C 
ATOM     18  C   LIG    1        9.580   2.955  -3.073  0.00  0.00    +0.008 C 
ENDBRANCH   6  17
TORSDOF 2
ENDMDL
MODEL 4
REMARK VINA RESULT:      -7.1     11.745     13.277
REMARK  Name = 
REMARK                            x       y       z     vdW  Elec       q    Type
REMARK                         _______ _______ _______ _____ _____    ______ ____
ROOT
ATOM      1  O   LIG    1       15.423   3.471  -3.199  0.00  0.00    -0.225 OA
ATOM      2  C   LIG    1       14.326   2.967  -3.381  0.00  0.00    +0.415 C 
ATOM      3  N   LIG    1       13.994   1.911  -4.182  0.00  0.00    -0.172 N 
ATOM      4  C   LIG    1       12.657   1.639  -4.030  0.00  0.00    +0.276 C 
ATOM      5  O   LIG    1       11.968   0.814  -4.615  0.00  0.00    -0.270 OA
ATOM      6  C   LIG    1       12.129   2.581  -2.963  0.00  0.00    +0.206 C 
ATOM      7  C   LIG    1       11.829   1.791  -1.690  0.00  0.00    +0.071 C 
ATOM      8  O   LIG    1       13.234   3.441  -2.713  0.00  0.00    -0.430 OA
ENDROOT
BRANCH   3   9
ATOM      9  C   LIG    1       14.892   1.207  -5.046  0.00  0.00    +0.050 A 
ATOM     10  C   LIG    1       14.895   1.417  -6.436  0.00  0.00    +0.044 A 
ATOM     11  C   LIG    1       15.772   0.720  -7.275  0.00  0.00    +0.044 A 
ATOM     12 CL   LIG    1       15.728   0.997  -8.974  0.00  0.00    -0.083 Cl
ATOM     13  C   LIG    1       16.674  -0.198  -6.757  0.00  0.00    +0.040 A 
ATOM     14  C   LIG    1       16.690  -0.414  -5.387  0.00  0.00    +0.044 A 
ATOM     15 CL   LIG    1       17.810  -1.539  -4.720  0.00  0.00    -0.083 Cl
ATOM     16  C   LIG    1       15.812   0.273  -4.540  0.00  0.00    +0.044 A 
ENDBRANCH   3   9
BRANCH   6  17
ATOM     17  C   LIG    1       10.949   3.395  -3.434  0.00  0.00    +0.022 C 
ATOM     18  C   LIG    1        9.738   3.436  -2.855  0.00  0.00    +0.008 C 
ENDBRANCH   6  17
TORSDOF 2
ENDMDL
MODEL 5
REMARK VINA RESULT:      -7.0      1.670      1.874
REMARK  Name = 
REMARK                            x       y       z     vdW  Elec       q    Type
REMARK                         _______ _______ _______ _____ _____    ______ ____
ROOT
ATOM      1  O   LIG    1        3.418  10.030  -2.831  0.00  0.00    -0.225 OA
ATOM      2  C   LIG    1        3.844   9.378  -3.771  0.00  0.00    +0.415 C 
ATOM      3  N   LIG    1        3.987   8.023  -3.874  0.00  0.00    -0.172 N 
ATOM      4  C   LIG    1        4.441   7.717  -5.132  0.00  0.00    +0.276 C 
ATOM      5  O   LIG    1        4.749   6.626  -5.596  0.00  0.00    -0.270 OA
ATOM      6  C   LIG    1        4.510   9.018  -5.911  0.00  0.00    +0.206 C 
ATOM      7  C   LIG    1        3.399   9.044  -6.960  0.00  0.00    +0.071 C 
ATOM      8  O   LIG    1        4.224  10.002  -4.924  0.00  0.00    -0.430 OA
ENDROOT
BRANCH   3   9
ATOM      9  C   LIG    1        3.717   7.076  -2.835  0.00  0.00    +0.050 A 
ATOM     10  C   LIG    1        2.409   6.825  -2.386  0.00  0.00    +0.044 A 
ATOM     11  C   LIG    1        2.155   5.902  -1.365  0.00  0.00    +0.044 A 
ATOM     12 CL   LIG    1        0.537   5.641  -0.836  0.00  0.00    -0.083 Cl
ATOM     13  C   LIG    1        3.190   5.197  -0.769  0.00  0.00    +0.040 A 
ATOM     14  C   LIG    1        4.487   5.427  -1.202  0.00  0.00    +0.044 A 
ATOM     15 CL   LIG    1        5.787   4.554  -0.485  0.00  0.00    -0.083 Cl
ATOM     16  C   LIG    1        4.753   6.353  -2.218  0.00  0.00    +0.044 A 
ENDBRANCH   3   9
BRANCH   6  17
ATOM     17  C   LIG    1        5.873   9.274  -6.503  0.00  0.00    +0.022 C 
ATOM     18  C   LIG    1        6.631  10.362  -6.296  0.00  0.00    +0.008 C 
ENDBRANCH   6  17
TORSDOF 2
ENDMDL
MODEL 6
REMARK VINA RESULT:      -6.6      1.238      3.146
REMARK  Name = 
REMARK                            x       y       z     vdW  Elec       q    Type
REMARK                         _______ _______ _______ _____ _____    ______ ____
ROOT
ATOM      1  O   LIG    1        2.708   8.060  -5.102  0.00  0.00    -0.225 OA
ATOM      2  C   LIG    1        3.356   8.809  -4.387  0.00  0.00    +0.415 C 
ATOM      3  N   LIG    1        3.828   8.586  -3.125  0.00  0.00    -0.172 N 
ATOM      4  C   LIG    1        4.563   9.674  -2.726  0.00  0.00    +0.276 C 
ATOM      5  O   LIG    1        5.098   9.889  -1.646  0.00  0.00    -0.270 OA
ATOM      6  C   LIG    1        4.611  10.636  -3.900  0.00  0.00    +0.206 C 
ATOM      7  C   LIG    1        6.019  10.646  -4.493  0.00  0.00    +0.071 C 
ATOM      8  O   LIG    1        3.726  10.041  -4.842  0.00  0.00    -0.430 OA
ENDROOT
BRANCH   3   9
ATOM      9  C   LIG    1        3.589   7.413  -2.340  0.00  0.00    +0.050 A 
ATOM     10  C   LIG    1        4.617   6.504  -2.039  0.00  0.00    +0.044 A 
ATOM     11  C   LIG    1        4.372   5.356  -1.276  0.00  0.00    +0.044 A 
ATOM     12 CL   LIG    1        5.660   4.262  -0.946  0.00  0.00    -0.083 Cl
ATOM     13  C   LIG    1        3.104   5.084  -0.786  0.00  0.00    +0.040 A 
ATOM     14  C   LIG    1        2.077   5.972  -1.069  0.00  0.00    +0.044 A 
ATOM     15 CL   LIG    1        0.496   5.661  -0.460  0.00  0.00    -0.083 Cl
ATOM     16  C   LIG    1        2.309   7.120  -1.836  0.00  0.00    +0.044 A 
ENDBRANCH   3   9
BRANCH   6  17
ATOM     17  C   LIG    1        4.120  12.017  -3.545  0.00  0.00    +0.022 C 
ATOM     18  C   LIG    1        4.301  12.641  -2.370  0.00  0.00    +0.008 C 
ENDBRANCH   6  17
TORSDOF 2
ENDMDL
MODEL 7
REMARK VINA RESULT:      -6.6      1.240      2.402
REMARK  Name = 
REMARK                            x       y       z     vdW  Elec       q    Type
REMARK                         _______ _______ _______ _____ _____    ______ ____
ROOT
ATOM      1  O   LIG    1        2.679   7.998  -5.147  0.00  0.00    -0.225 OA
ATOM      2  C   LIG    1        3.341   8.755  -4.455  0.00  0.00    +0.415 C 
ATOM      3  N   LIG    1        3.830   8.551  -3.195  0.00  0.00    -0.172 N 
ATOM      4  C   LIG    1        4.575   9.642  -2.824  0.00  0.00    +0.276 C 
ATOM      5  O   LIG    1        5.126   9.871  -1.755  0.00  0.00    -0.270 OA
ATOM      6  C   LIG    1        4.612  10.583  -4.015  0.00  0.00    +0.206 C 
ATOM      7  C   LIG    1        6.011  10.576  -4.627  0.00  0.00    +0.071 C 
ATOM      8  O   LIG    1        3.711   9.978  -4.935  0.00  0.00    -0.430 OA
ENDROOT
BRANCH   3   9
ATOM      9  C   LIG    1        3.595   7.392  -2.388  0.00  0.00    +0.050 A 
ATOM     10  C   LIG    1        2.318   7.089  -1.886  0.00  0.00    +0.044 A 
ATOM     11  C   LIG    1        2.099   5.957  -1.092  0.00  0.00    +0.044 A 
ATOM     12 CL   LIG    1        0.520   5.635  -0.484  0.00  0.00    -0.083 Cl
ATOM     13  C   LIG    1        3.138   5.092  -0.782  0.00  0.00    +0.040 A 
ATOM     14  C   LIG    1        4.405   5.372  -1.273  0.00  0.00    +0.044 A 
ATOM     15 CL   LIG    1        5.708   4.306  -0.913  0.00  0.00    -0.083 Cl
ATOM     16  C   LIG    1        4.636   6.505  -2.063  0.00  0.00    +0.044 A 
ENDBRANCH   3   9
BRANCH   6  17
ATOM     17  C   LIG    1        4.133  11.973  -3.676  0.00  0.00    +0.022 C 
ATOM     18  C   LIG    1        4.246  12.577  -2.483  0.00  0.00    +0.008 C 
ENDBRANCH   6  17
TORSDOF 2
ENDMDL
MODEL 8
REMARK VINA RESULT:      -6.1      8.429     10.712
REMARK  Name = 
REMARK                            x       y       z     vdW  Elec       q    Type
REMARK                         _______ _______ _______ _____ _____    ______ ____
ROOT
ATOM      1  O   LIG    1        9.994   7.163  -8.162  0.00  0.00    -0.225 OA
ATOM      2  C   LIG    1       10.167   7.556  -9.305  0.00  0.00    +0.415 C 
ATOM      3  N   LIG    1       10.273   8.841  -9.759  0.00  0.00    -0.172 N 
ATOM      4  C   LIG    1       10.529   8.817 -11.107  0.00  0.00    +0.276 C 
ATOM      5  O   LIG    1       10.631   9.754 -11.888  0.00  0.00    -0.270 OA
ATOM      6  C   LIG    1       10.671   7.360 -11.509  0.00  0.00    +0.206 C 
ATOM      7  C   LIG    1       12.135   7.059 -11.826  0.00  0.00    +0.071 C 
ATOM      8  O   LIG    1       10.310   6.660 -10.324  0.00  0.00    -0.430 OA
ENDROOT
BRANCH   3   9
ATOM      9  C   LIG    1       10.132  10.020  -8.961  0.00  0.00    +0.050 A 
ATOM     10  C   LIG    1       11.189  10.932  -8.799  0.00  0.00    +0.044 A 
ATOM     11  C   LIG    1       11.044  12.081  -8.011  0.00  0.00    +0.044 A 
ATOM     12 CL   LIG    1       12.372  13.161  -7.827  0.00  0.00    -0.083 Cl
ATOM     13  C   LIG    1        9.845  12.358  -7.370  0.00  0.00    +0.040 A 
ATOM     14  C   LIG    1        8.789  11.472  -7.523  0.00  0.00    +0.044 A 
ATOM     15 CL   LIG    1        7.287  11.803  -6.748  0.00  0.00    -0.083 Cl
ATOM     16  C   LIG    1        8.926  10.318  -8.303  0.00  0.00    +0.044 A 
ENDBRANCH   3   9
BRANCH   6  17
ATOM     17  C   LIG    1        9.742   6.970 -12.631  0.00  0.00    +0.022 C 
ATOM     18  C   LIG    1       10.068   6.882 -13.931  0.00  0.00    +0.008 C 
ENDBRANCH   6  17
TORSDOF 2
ENDMDL
MODEL 9
REMARK VINA RESULT:      -6.1      2.141      3.631
REMARK  Name = 
REMARK                            x       y       z     vdW  Elec       q    Type
REMARK                         _______ _______ _______ _____ _____    ______ ____
ROOT
ATOM      1  O   LIG    1        5.575   5.584  -5.456  0.00  0.00    -0.225 OA
ATOM      2  C   LIG    1        5.023   6.671  -5.382  0.00  0.00    +0.415 C 
ATOM      3  N   LIG    1        4.307   7.195  -4.343  0.00  0.00    -0.172 N 
ATOM      4  C   LIG    1        3.922   8.472  -4.666  0.00  0.00    +0.276 C 
ATOM      5  O   LIG    1        3.221   9.249  -4.031  0.00  0.00    -0.270 OA
ATOM      6  C   LIG    1        4.533   8.794  -6.018  0.00  0.00    +0.206 C 
ATOM      7  C   LIG    1        5.659   9.811  -5.840  0.00  0.00    +0.071 C 
ATOM      8  O   LIG    1        5.103   7.554  -6.420  0.00  0.00    -0.430 OA
ENDROOT
BRANCH   3   9
ATOM      9  C   LIG    1        4.000   6.520  -3.119  0.00  0.00    +0.050 A 
ATOM     10  C   LIG    1        5.002   5.930  -2.330  0.00  0.00    +0.044 A 
ATOM     11  C   LIG    1        4.691   5.266  -1.136  0.00  0.00    +0.044 A 
ATOM     12 CL   LIG    1        5.951   4.544  -0.211  0.00  0.00    -0.083 Cl
ATOM     13  C   LIG    1        3.381   5.176  -0.692  0.00  0.00    +0.040 A 
ATOM     14  C   LIG    1        2.379   5.757  -1.455  0.00  0.00    +0.044 A 
ATOM     15 CL   LIG    1        0.745   5.669  -0.916  0.00  0.00    -0.083 Cl
ATOM     16  C   LIG    1        2.677   6.417  -2.653  0.00  0.00    +0.044 A 
ENDBRANCH   3   9
BRANCH   6  17
ATOM     17  C   LIG    1        3.508   9.234  -7.033  0.00  0.00    +0.022 C 
ATOM     18  C   LIG    1        2.353   8.608  -7.310  0.00  0.00    +0.008 C 
ENDBRANCH   6  17
TORSDOF 2
ENDMDL
