MODEL 1
REMARK VINA RESULT:      -7.8      0.000      0.000
REMARK  Name = 
REMARK                            x       y       z     vdW  Elec       q    Type
REMARK                         _______ _______ _______ _____ _____    ______ ____
ROOT
ATOM      1  O   LIG    1        0.106  32.440   7.118  0.00  0.00    -0.225 OA
ATOM      2  C   LIG    1        0.464  32.892   6.042  0.00  0.00    +0.415 C 
ATOM      3  N   LIG    1        1.229  32.296   5.079  0.00  0.00    -0.172 N 
ATOM      4  C   LIG    1        1.330  33.143   4.003  0.00  0.00    +0.276 C 
ATOM      5  O   LIG    1        1.973  33.004   2.971  0.00  0.00    -0.270 OA
ATOM      6  C   LIG    1        0.471  34.357   4.309  0.00  0.00    +0.206 C 
ATOM      7  C   LIG    1       -0.774  34.336   3.424  0.00  0.00    +0.071 C 
ATOM      8  O   LIG    1        0.072  34.141   5.657  0.00  0.00    -0.430 OA
ENDROOT
BRANCH   3   9
ATOM      9  C   LIG    1        1.834  31.003   5.177  0.00  0.00    +0.050 A 
ATOM     10  C   LIG    1        3.228  30.835   5.122  0.00  0.00    +0.044 A 
ATOM     11  C   LIG    1        3.812  29.565   5.213  0.00  0.00    +0.044 A 
ATOM     12 CL   LIG    1        5.524  29.406   5.123  0.00  0.00    -0.083 Cl
ATOM     13  C   LIG    1        3.028  28.431   5.369  0.00  0.00    +0.040 A 
ATOM     14  C   LIG    1        1.651  28.578   5.431  0.00  0.00    +0.044 A 
ATOM     15 CL   LIG    1        0.659  27.185   5.638  0.00  0.00    -0.083 Cl
ATOM     16  C   LIG    1        1.057  29.842   5.335  0.00  0.00    +0.044 A 
ENDBRANCH   3   9
BRANCH   6  17
ATOM     17  C   LIG    1        1.234  35.654   4.207  0.00  0.00    +0.022 C 
ATOM     18  C   LIG    1        1.663  36.400   5.237  0.00  0.00    +0.008 C 
ENDBRANCH   6  17
TORSDOF 2
ENDMDL
MODEL 2
REMARK VINA RESULT:      -7.8      0.022      2.116
REMARK  Name = 
REMARK                            x       y       z     vdW  Elec       q    Type
REMARK                         _______ _______ _______ _____ _____    ______ ____
ROOT
ATOM      1  O   LIG    1        0.087  32.443   7.119  0.00  0.00    -0.225 OA
ATOM      2  C   LIG    1        0.445  32.898   6.043  0.00  0.00    +0.415 C 
ATOM      3  N   LIG    1        1.210  32.304   5.079  0.00  0.00    -0.172 N 
ATOM      4  C   LIG    1        1.310  33.153   4.005  0.00  0.00    +0.276 C 
ATOM      5  O   LIG    1        1.953  33.017   2.973  0.00  0.00    -0.270 OA
ATOM      6  C   LIG    1        0.449  34.366   4.313  0.00  0.00    +0.206 C 
ATOM      7  C   LIG    1       -0.796  34.344   3.428  0.00  0.00    +0.071 C 
ATOM      8  O   LIG    1        0.051  34.147   5.661  0.00  0.00    -0.430 OA
ENDROOT
BRANCH   3   9
ATOM      9  C   LIG    1        1.817  31.012   5.175  0.00  0.00    +0.050 A 
ATOM     10  C   LIG    1        1.050  29.846   5.335  0.00  0.00    +0.044 A 
ATOM     11  C   LIG    1        1.653  28.586   5.435  0.00  0.00    +0.044 A 
ATOM     12 CL   LIG    1        0.673  27.187   5.648  0.00  0.00    -0.083 Cl
ATOM     13  C   LIG    1        3.032  28.450   5.370  0.00  0.00    +0.040 A 
ATOM     14  C   LIG    1        3.806  29.589   5.207  0.00  0.00    +0.044 A 
ATOM     15 CL   LIG    1        5.519  29.443   5.111  0.00  0.00    -0.083 Cl
ATOM     16  C   LIG    1        3.213  30.854   5.113  0.00  0.00    +0.044 A 
ENDBRANCH   3   9
BRANCH   6  17
ATOM     17  C   LIG    1        1.210  35.664   4.213  0.00  0.00    +0.022 C 
ATOM     18  C   LIG    1        1.672  36.389   5.244  0.00  0.00    +0.008 C 
ENDBRANCH   6  17
TORSDOF 2
ENDMDL
MODEL 3
REMARK VINA RESULT:      -7.7      0.811      3.051
REMARK  Name = 
REMARK                            x       y       z     vdW  Elec       q    Type
REMARK                         _______ _______ _______ _____ _____    ______ ____
ROOT
ATOM      1  O   LIG    1        2.606  32.721   2.551  0.00  0.00    -0.225 OA
ATOM      2  C   LIG    1        1.933  33.028   3.522  0.00  0.00    +0.415 C 
ATOM      3  N   LIG    1        1.702  32.311   4.662  0.00  0.00    -0.172 N 
ATOM      4  C   LIG    1        0.941  33.067   5.518  0.00  0.00    +0.276 C 
ATOM      5  O   LIG    1        0.475  32.763   6.608  0.00  0.00    -0.270 OA
ATOM      6  C   LIG    1        0.749  34.424   4.864  0.00  0.00    +0.206 C 
ATOM      7  C   LIG    1        1.571  35.472   5.614  0.00  0.00    +0.071 C 
ATOM      8  O   LIG    1        1.315  34.244   3.571  0.00  0.00    -0.430 OA
ENDROOT
BRANCH   3   9
ATOM      9  C   LIG    1        2.169  30.983   4.919  0.00  0.00    +0.050 A 
ATOM     10  C   LIG    1        1.279  29.915   5.128  0.00  0.00    +0.044 A 
ATOM     11  C   LIG    1        1.745  28.620   5.385  0.00  0.00    +0.044 A 
ATOM     12 CL   LIG    1        0.617  27.346   5.652  0.00  0.00    -0.083 Cl
ATOM     13  C   LIG    1        3.104  28.349   5.434  0.00  0.00    +0.040 A 
ATOM     14  C   LIG    1        3.998  29.389   5.225  0.00  0.00    +0.044 A 
ATOM     15 CL   LIG    1        5.690  29.073   5.268  0.00  0.00    -0.083 Cl
ATOM     16  C   LIG    1        3.543  30.689   4.974  0.00  0.00    +0.044 A 
ENDBRANCH   3   9
BRANCH   6  17
ATOM     17  C   LIG    1       -0.703  34.810   4.733  0.00  0.00    +0.022 C 
ATOM     18  C   LIG    1       -1.186  35.825   4.000  0.00  0.00    +0.008 C 
ENDBRANCH   6  17
TORSDOF 2
ENDMDL
MODEL 4
REMARK VINA RESULT:      -7.7      0.810      2.204
REMARK  Name = 
REMARK                            x       y       z     vdW  Elec       q    Type
REMARK                         _______ _______ _______ _____ _____    ______ ____
ROOT
ATOM      1  O   LIG    1        2.612  32.734   2.556  0.00  0.00    -0.225 OA
ATOM      2  C   LIG    1        1.936  33.039   3.526  0.00  0.00    +0.415 C 
ATOM      3  N   LIG    1        1.706  32.321   4.666  0.00  0.00    -0.172 N 
ATOM      4  C   LIG    1        0.941  33.075   5.520  0.00  0.00    +0.276 C 
ATOM      5  O   LIG    1        0.474  32.770   6.609  0.00  0.00    -0.270 OA
ATOM      6  C   LIG    1        0.745  34.432   4.866  0.00  0.00    +0.206 C 
ATOM      7  C   LIG    1        1.562  35.482   5.616  0.00  0.00    +0.071 C 
ATOM      8  O   LIG    1        1.314  34.253   3.574  0.00  0.00    -0.430 OA
ENDROOT
BRANCH   3   9
ATOM      9  C   LIG    1        2.177  30.995   4.924  0.00  0.00    +0.050 A 
ATOM     10  C   LIG    1        3.549  30.697   4.977  0.00  0.00    +0.044 A 
ATOM     11  C   LIG    1        4.001  29.394   5.224  0.00  0.00    +0.044 A 
ATOM     12 CL   LIG    1        5.692  29.073   5.263  0.00  0.00    -0.083 Cl
ATOM     13  C   LIG    1        3.105  28.357   5.433  0.00  0.00    +0.040 A 
ATOM     14  C   LIG    1        1.746  28.634   5.390  0.00  0.00    +0.044 A 
ATOM     15 CL   LIG    1        0.615  27.364   5.660  0.00  0.00    -0.083 Cl
ATOM     16  C   LIG    1        1.284  29.930   5.137  0.00  0.00    +0.044 A 
ENDBRANCH   3   9
BRANCH   6  17
ATOM     17  C   LIG    1       -0.708  34.812   4.732  0.00  0.00    +0.022 C 
ATOM     18  C   LIG    1       -1.192  35.834   4.009  0.00  0.00    +0.008 C 
ENDBRANCH   6  17
TORSDOF 2
ENDMDL
MODEL 5
REMARK VINA RESULT:      -6.7      3.038      5.931
REMARK  Name = 
REMARK                            x       y       z     vdW  Elec       q    Type
REMARK                         _______ _______ _______ _____ _____    ______ ____
ROOT
ATOM      1  O   LIG    1       -0.222  30.673   6.872  0.00  0.00    -0.225 OA
ATOM      2  C   LIG    1        0.780  30.456   6.209  0.00  0.00    +0.415 C 
ATOM      3  N   LIG    1        1.388  31.267   5.293  0.00  0.00    -0.172 N 
ATOM      4  C   LIG    1        2.526  30.650   4.838  0.00  0.00    +0.276 C 
ATOM      5  O   LIG    1        3.310  31.020   3.973  0.00  0.00    -0.270 OA
ATOM      6  C   LIG    1        2.674  29.355   5.616  0.00  0.00    +0.206 C 
ATOM      7  C   LIG    1        3.842  29.479   6.594  0.00  0.00    +0.071 C 
ATOM      8  O   LIG    1        1.464  29.285   6.362  0.00  0.00    -0.430 OA
ENDROOT
BRANCH   3   9
ATOM      9  C   LIG    1        0.911  32.548   4.868  0.00  0.00    +0.050 A 
ATOM     10  C   LIG    1       -0.172  32.675   3.982  0.00  0.00    +0.044 A 
ATOM     11  C   LIG    1       -0.628  33.932   3.566  0.00  0.00    +0.044 A 
ATOM     12 CL   LIG    1       -1.948  34.039   2.466  0.00  0.00    -0.083 Cl
ATOM     13  C   LIG    1       -0.027  35.095   4.025  0.00  0.00    +0.040 A 
ATOM     14  C   LIG    1        1.041  34.989   4.904  0.00  0.00    +0.044 A 
ATOM     15 CL   LIG    1        1.794  36.420   5.496  0.00  0.00    -0.083 Cl
ATOM     16  C   LIG    1        1.509  33.738   5.320  0.00  0.00    +0.044 A 
ENDBRANCH   3   9
BRANCH   6  17
ATOM     17  C   LIG    1        2.790  28.146   4.723  0.00  0.00    +0.022 C 
ATOM     18  C   LIG    1        3.471  27.023   4.999  0.00  0.00    +0.008 C 
ENDBRANCH   6  17
TORSDOF 2
ENDMDL
MODEL 6
REMARK VINA RESULT:      -6.7      3.026      5.623
REMARK  Name = 
REMARK                            x       y       z     vdW  Elec       q    Type
REMARK                         _______ _______ _______ _____ _____    ______ ____
ROOT
ATOM      1  O   LIG    1       -0.188  30.765   6.980  0.00  0.00    -0.225 OA
ATOM      2  C   LIG    1        0.776  30.495   6.281  0.00  0.00    +0.415 C 
ATOM      3  N   LIG    1        1.368  31.257   5.313  0.00  0.00    -0.172 N 
ATOM      4  C   LIG    1        2.463  30.588   4.828  0.00  0.00    +0.276 C 
ATOM      5  O   LIG    1        3.219  30.905   3.918  0.00  0.00    -0.270 OA
ATOM      6  C   LIG    1        2.603  29.312   5.639  0.00  0.00    +0.206 C 
ATOM      7  C   LIG    1        3.817  29.424   6.559  0.00  0.00    +0.071 C 
ATOM      8  O   LIG    1        1.427  29.306   6.439  0.00  0.00    -0.430 OA
ENDROOT
BRANCH   3   9
ATOM      9  C   LIG    1        0.915  32.540   4.870  0.00  0.00    +0.050 A 
ATOM     10  C   LIG    1        1.536  33.728   5.292  0.00  0.00    +0.044 A 
ATOM     11  C   LIG    1        1.083  34.980   4.858  0.00  0.00    +0.044 A 
ATOM     12 CL   LIG    1        1.865  36.409   5.415  0.00  0.00    -0.083 Cl
ATOM     13  C   LIG    1        0.006  35.086   3.990  0.00  0.00    +0.040 A 
ATOM     14  C   LIG    1       -0.617  33.924   3.559  0.00  0.00    +0.044 A 
ATOM     15 CL   LIG    1       -1.947  34.030   2.470  0.00  0.00    -0.083 Cl
ATOM     16  C   LIG    1       -0.175  32.668   3.991  0.00  0.00    +0.044 A 
ENDBRANCH   3   9
BRANCH   6  17
ATOM     17  C   LIG    1        2.638  28.074   4.779  0.00  0.00    +0.022 C 
ATOM     18  C   LIG    1        3.579  27.117   4.811  0.00  0.00    +0.008 C 
ENDBRANCH   6  17
TORSDOF 2
ENDMDL
MODEL 7
REMARK VINA RESULT:      -6.6      3.140      6.010
REMARK  Name = 
REMARK                            x       y       z     vdW  Elec       q    Type
REMARK                         _______ _______ _______ _____ _____    ______ ____
ROOT
ATOM      1  O   LIG    1        2.287  30.427   8.238  0.00  0.00    -0.225 OA
ATOM      2  C   LIG    1        2.473  30.164   7.060  0.00  0.00    +0.415 C 
ATOM      3  N   LIG    1        2.206  30.933   5.962  0.00  0.00    -0.172 N 
ATOM      4  C   LIG    1        2.637  30.271   4.839  0.00  0.00    +0.276 C 
ATOM      5  O   LIG    1        2.527  30.595   3.664  0.00  0.00    -0.270 OA
ATOM      6  C   LIG    1        3.310  28.992   5.306  0.00  0.00    +0.206 C 
ATOM      7  C   LIG    1        4.820  29.106   5.098  0.00  0.00    +0.071 C 
ATOM      8  O   LIG    1        3.045  28.977   6.704  0.00  0.00    -0.430 OA
ENDROOT
BRANCH   3   9
ATOM      9  C   LIG    1        1.572  32.216   5.977  0.00  0.00    +0.050 A 
ATOM     10  C   LIG    1        0.327  32.416   6.597  0.00  0.00    +0.044 A 
ATOM     11  C   LIG    1       -0.290  33.673   6.601  0.00  0.00    +0.044 A 
ATOM     12 CL   LIG    1       -1.825  33.867   7.358  0.00  0.00    -0.083 Cl
ATOM     13  C   LIG    1        0.317  34.765   6.000  0.00  0.00    +0.040 A 
ATOM     14  C   LIG    1        1.549  34.589   5.388  0.00  0.00    +0.044 A 
ATOM     15 CL   LIG    1        2.327  35.934   4.646  0.00  0.00    -0.083 Cl
ATOM     16  C   LIG    1        2.171  33.334   5.372  0.00  0.00    +0.044 A 
ENDBRANCH   3   9
BRANCH   6  17
ATOM     17  C   LIG    1        2.727  27.757   4.666  0.00  0.00    +0.022 C 
ATOM     18  C   LIG    1        3.414  26.673   4.273  0.00  0.00    +0.008 C 
ENDBRANCH   6  17
TORSDOF 2
ENDMDL
MODEL 8
REMARK VINA RESULT:      -6.5      3.132      5.690
REMARK  Name = 
REMARK                            x       y       z     vdW  Elec       q    Type
REMARK                         _______ _______ _______ _____ _____    ______ ____
ROOT
ATOM      1  O   LIG    1        1.874  31.247   3.026  0.00  0.00    -0.225 OA
ATOM      2  C   LIG    1        2.103  30.709   4.098  0.00  0.00    +0.415 C 
ATOM      3  N   LIG    1        1.871  31.186   5.358  0.00  0.00    -0.172 N 
ATOM      4  C   LIG    1        2.219  30.221   6.270  0.00  0.00    +0.276 C 
ATOM      5  O   LIG    1        2.218  30.281   7.493  0.00  0.00    -0.270 OA
ATOM      6  C   LIG    1        2.638  28.992   5.482  0.00  0.00    +0.206 C 
ATOM      7  C   LIG    1        1.573  27.907   5.628  0.00  0.00    +0.071 C 
ATOM      8  O   LIG    1        2.635  29.453   4.136  0.00  0.00    -0.430 OA
ENDROOT
BRANCH   3   9
ATOM      9  C   LIG    1        1.357  32.483   5.676  0.00  0.00    +0.050 A 
ATOM     10  C   LIG    1        1.940  33.654   5.164  0.00  0.00    +0.044 A 
ATOM     11  C   LIG    1        1.435  34.920   5.486  0.00  0.00    +0.044 A 
ATOM     12 CL   LIG    1        2.194  36.328   4.849  0.00  0.00    -0.083 Cl
ATOM     13  C   LIG    1        0.333  35.055   6.317  0.00  0.00    +0.040 A 
ATOM     14  C   LIG    1       -0.260  33.911   6.828  0.00  0.00    +0.044 A 
ATOM     15 CL   LIG    1       -1.638  34.054   7.851  0.00  0.00    -0.083 Cl
ATOM     16  C   LIG    1        0.241  32.641   6.518  0.00  0.00    +0.044 A 
ENDBRANCH   3   9
BRANCH   6  17
ATOM     17  C   LIG    1        4.018  28.505   5.849  0.00  0.00    +0.022 C 
ATOM     18  C   LIG    1        5.172  28.927   5.309  0.00  0.00    +0.008 C 
ENDBRANCH   6  17
TORSDOF 2
ENDMDL
MODEL 9
REMARK VINA RESULT:      -6.5      3.132      6.026
REMARK  Name = 
REMARK                            x       y       z     vdW  Elec       q    Type
REMARK                         _______ _______ _______ _____ _____    ______ ____
ROOT
ATOM      1  O   LIG    1        1.920  31.283   3.026  0.00  0.00    -0.225 OA
ATOM      2  C   LIG    1        2.145  30.741   4.097  0.00  0.00    +0.415 C 
ATOM      3  N   LIG    1        1.899  31.208   5.358  0.00  0.00    -0.172 N 
ATOM      4  C   LIG    1        2.249  30.242   6.267  0.00  0.00    +0.276 C 
ATOM      5  O   LIG    1        2.237  30.295   7.490  0.00  0.00    -0.270 OA
ATOM      6  C   LIG    1        2.685  29.021   5.477  0.00  0.00    +0.206 C 
ATOM      7  C   LIG    1        1.628  27.925   5.608  0.00  0.00    +0.071 C 
ATOM      8  O   LIG    1        2.688  29.489   4.133  0.00  0.00    -0.430 OA
ENDROOT
BRANCH   3   9
ATOM      9  C   LIG    1        1.370  32.499   5.679  0.00  0.00    +0.050 A 
ATOM     10  C   LIG    1        0.245  32.650   6.507  0.00  0.00    +0.044 A 
ATOM     11  C   LIG    1       -0.269  33.917   6.811  0.00  0.00    +0.044 A 
ATOM     12 CL   LIG    1       -1.661  34.053   7.816  0.00  0.00    -0.083 Cl
ATOM     13  C   LIG    1        0.324  35.065   6.308  0.00  0.00    +0.040 A 
ATOM     14  C   LIG    1        1.439  34.936   5.494  0.00  0.00    +0.044 A 
ATOM     15 CL   LIG    1        2.200  36.349   4.869  0.00  0.00    -0.083 Cl
ATOM     16  C   LIG    1        1.957  33.674   5.178  0.00  0.00    +0.044 A 
ENDBRANCH   3   9
BRANCH   6  17
ATOM     17  C   LIG    1        4.066  28.545   5.851  0.00  0.00    +0.022 C 
ATOM     18  C   LIG    1        5.219  28.961   5.305  0.00  0.00    +0.008 C 
ENDBRANCH   6  17
TORSDOF 2
ENDMDL
