MODEL 1
REMARK VINA RESULT:      -7.1      0.000      0.000
REMARK  Name = 
REMARK                            x       y       z     vdW  Elec       q    Type
REMARK                         _______ _______ _______ _____ _____    ______ ____
ROOT
ATOM      1  O   LIG    1      -44.597  10.622 -42.860  0.00  0.00    -0.225 OA
ATOM      2  C   LIG    1      -45.225   9.617 -43.155  0.00  0.00    +0.415 C 
ATOM      3  N   LIG    1      -46.574   9.403 -43.088  0.00  0.00    -0.172 N 
ATOM      4  C   LIG    1      -46.851   8.153 -43.582  0.00  0.00    +0.276 C 
ATOM      5  O   LIG    1      -47.925   7.568 -43.638  0.00  0.00    -0.270 OA
ATOM      6  C   LIG    1      -45.541   7.567 -44.077  0.00  0.00    +0.206 C 
ATOM      7  C   LIG    1      -45.546   7.524 -45.604  0.00  0.00    +0.071 C 
ATOM      8  O   LIG    1      -44.577   8.524 -43.653  0.00  0.00    -0.430 OA
ENDROOT
BRANCH   3   9
ATOM      9  C   LIG    1      -47.539  10.328 -42.578  0.00  0.00    +0.050 A 
ATOM     10  C   LIG    1      -48.007  11.406 -43.348  0.00  0.00    +0.044 A 
ATOM     11  C   LIG    1      -48.948  12.310 -42.838  0.00  0.00    +0.044 A 
ATOM     12 CL   LIG    1      -49.480  13.626 -43.812  0.00  0.00    -0.083 Cl
ATOM     13  C   LIG    1      -49.453  12.162 -41.555  0.00  0.00    +0.040 A 
ATOM     14  C   LIG    1      -49.007  11.101 -40.782  0.00  0.00    +0.044 A 
ATOM     15 CL   LIG    1      -49.631  10.891 -39.190  0.00  0.00    -0.083 Cl
ATOM     16  C   LIG    1      -48.062  10.196 -41.279  0.00  0.00    +0.044 A 
ENDBRANCH   3   9
BRANCH   6  17
ATOM     17  C   LIG    1      -45.230   6.226 -43.460  0.00  0.00    +0.022 C 
ATOM     18  C   LIG    1      -45.776   5.051 -43.810  0.00  0.00    +0.008 C 
ENDBRANCH   6  17
TORSDOF 2
ENDMDL
MODEL 2
REMARK VINA RESULT:      -7.1      0.037      2.116
REMARK  Name = 
REMARK                            x       y       z     vdW  Elec       q    Type
REMARK                         _______ _______ _______ _____ _____    ______ ____
ROOT
ATOM      1  O   LIG    1      -44.578  10.648 -42.843  0.00  0.00    -0.225 OA
ATOM      2  C   LIG    1      -45.200   9.643 -43.150  0.00  0.00    +0.415 C 
ATOM      3  N   LIG    1      -46.547   9.422 -43.089  0.00  0.00    -0.172 N 
ATOM      4  C   LIG    1      -46.817   8.176 -43.596  0.00  0.00    +0.276 C 
ATOM      5  O   LIG    1      -47.888   7.586 -43.661  0.00  0.00    -0.270 OA
ATOM      6  C   LIG    1      -45.502   7.600 -44.092  0.00  0.00    +0.206 C 
ATOM      7  C   LIG    1      -45.502   7.572 -45.619  0.00  0.00    +0.071 C 
ATOM      8  O   LIG    1      -44.545   8.558 -43.655  0.00  0.00    -0.430 OA
ENDROOT
BRANCH   3   9
ATOM      9  C   LIG    1      -47.519  10.338 -42.574  0.00  0.00    +0.050 A 
ATOM     10  C   LIG    1      -48.044  10.203 -41.277  0.00  0.00    +0.044 A 
ATOM     11  C   LIG    1      -49.000  11.099 -40.783  0.00  0.00    +0.044 A 
ATOM     12 CL   LIG    1      -49.628  10.884 -39.194  0.00  0.00    -0.083 Cl
ATOM     13  C   LIG    1      -49.452  12.157 -41.558  0.00  0.00    +0.040 A 
ATOM     14  C   LIG    1      -48.941  12.309 -42.838  0.00  0.00    +0.044 A 
ATOM     15 CL   LIG    1      -49.478  13.623 -43.814  0.00  0.00    -0.083 Cl
ATOM     16  C   LIG    1      -47.990  11.415 -43.344  0.00  0.00    +0.044 A 
ENDBRANCH   3   9
BRANCH   6  17
ATOM     17  C   LIG    1      -45.188   6.255 -43.486  0.00  0.00    +0.022 C 
ATOM     18  C   LIG    1      -45.778   5.091 -43.800  0.00  0.00    +0.008 C 
ENDBRANCH   6  17
TORSDOF 2
ENDMDL
MODEL 3
REMARK VINA RESULT:      -6.8      4.352      6.377
REMARK  Name = 
REMARK                            x       y       z     vdW  Elec       q    Type
REMARK                         _______ _______ _______ _____ _____    ______ ____
ROOT
ATOM      1  O   LIG    1      -44.848  10.864 -41.627  0.00  0.00    -0.225 OA
ATOM      2  C   LIG    1      -45.441  11.244 -42.624  0.00  0.00    +0.415 C 
ATOM      3  N   LIG    1      -44.933  11.846 -43.741  0.00  0.00    -0.172 N 
ATOM      4  C   LIG    1      -45.949  12.041 -44.643  0.00  0.00    +0.276 C 
ATOM      5  O   LIG    1      -45.917  12.600 -45.731  0.00  0.00    -0.270 OA
ATOM      6  C   LIG    1      -47.201  11.421 -44.047  0.00  0.00    +0.206 C 
ATOM      7  C   LIG    1      -47.557  10.150 -44.817  0.00  0.00    +0.071 C 
ATOM      8  O   LIG    1      -46.789  11.056 -42.735  0.00  0.00    -0.430 OA
ENDROOT
BRANCH   3   9
ATOM      9  C   LIG    1      -43.567  12.222 -43.936  0.00  0.00    +0.050 A 
ATOM     10  C   LIG    1      -42.670  11.404 -44.643  0.00  0.00    +0.044 A 
ATOM     11  C   LIG    1      -41.332  11.777 -44.823  0.00  0.00    +0.044 A 
ATOM     12 CL   LIG    1      -40.265  10.733 -45.682  0.00  0.00    -0.083 Cl
ATOM     13  C   LIG    1      -40.852  12.974 -44.314  0.00  0.00    +0.040 A 
ATOM     14  C   LIG    1      -41.724  13.798 -43.618  0.00  0.00    +0.044 A 
ATOM     15 CL   LIG    1      -41.154  15.296 -42.989  0.00  0.00    -0.083 Cl
ATOM     16  C   LIG    1      -43.061  13.431 -43.427  0.00  0.00    +0.044 A 
ENDBRANCH   3   9
BRANCH   6  17
ATOM     17  C   LIG    1      -48.352  12.392 -43.965  0.00  0.00    +0.022 C 
ATOM     18  C   LIG    1      -48.945  12.819 -42.839  0.00  0.00    +0.008 C 
ENDBRANCH   6  17
TORSDOF 2
ENDMDL
MODEL 4
REMARK VINA RESULT:      -6.8      4.280      6.272
REMARK  Name = 
REMARK                            x       y       z     vdW  Elec       q    Type
REMARK                         _______ _______ _______ _____ _____    ______ ____
ROOT
ATOM      1  O   LIG    1      -45.058  10.658 -41.779  0.00  0.00    -0.225 OA
ATOM      2  C   LIG    1      -45.611  11.055 -42.793  0.00  0.00    +0.415 C 
ATOM      3  N   LIG    1      -45.064  11.697 -43.867  0.00  0.00    -0.172 N 
ATOM      4  C   LIG    1      -46.040  11.899 -44.810  0.00  0.00    +0.276 C 
ATOM      5  O   LIG    1      -45.967  12.490 -45.880  0.00  0.00    -0.270 OA
ATOM      6  C   LIG    1      -47.306  11.240 -44.291  0.00  0.00    +0.206 C 
ATOM      7  C   LIG    1      -47.600   9.986 -45.112  0.00  0.00    +0.071 C 
ATOM      8  O   LIG    1      -46.948  10.846 -42.972  0.00  0.00    -0.430 OA
ENDROOT
BRANCH   3   9
ATOM      9  C   LIG    1      -43.697  12.104 -43.987  0.00  0.00    +0.050 A 
ATOM     10  C   LIG    1      -43.236  13.314 -43.441  0.00  0.00    +0.044 A 
ATOM     11  C   LIG    1      -41.898  13.706 -43.568  0.00  0.00    +0.044 A 
ATOM     12 CL   LIG    1      -41.382  15.206 -42.897  0.00  0.00    -0.083 Cl
ATOM     13  C   LIG    1      -40.981  12.905 -44.233  0.00  0.00    +0.040 A 
ATOM     14  C   LIG    1      -41.416  11.705 -44.773  0.00  0.00    +0.044 A 
ATOM     15 CL   LIG    1      -40.293  10.688 -45.592  0.00  0.00    -0.083 Cl
ATOM     16  C   LIG    1      -42.753  11.306 -44.658  0.00  0.00    +0.044 A 
ENDBRANCH   3   9
BRANCH   6  17
ATOM     17  C   LIG    1      -48.478  12.188 -44.237  0.00  0.00    +0.022 C 
ATOM     18  C   LIG    1      -48.859  12.911 -43.173  0.00  0.00    +0.008 C 
ENDBRANCH   6  17
TORSDOF 2
ENDMDL
MODEL 5
REMARK VINA RESULT:      -6.7      2.627      4.118
REMARK  Name = 
REMARK                            x       y       z     vdW  Elec       q    Type
REMARK                         _______ _______ _______ _____ _____    ______ ____
ROOT
ATOM      1  O   LIG    1      -47.847   9.398 -44.822  0.00  0.00    -0.225 OA
ATOM      2  C   LIG    1      -46.997  10.218 -44.510  0.00  0.00    +0.415 C 
ATOM      3  N   LIG    1      -46.691  10.699 -43.268  0.00  0.00    -0.172 N 
ATOM      4  C   LIG    1      -45.624  11.555 -43.372  0.00  0.00    +0.276 C 
ATOM      5  O   LIG    1      -45.090  12.231 -42.502  0.00  0.00    -0.270 OA
ATOM      6  C   LIG    1      -45.177  11.537 -44.824  0.00  0.00    +0.206 C 
ATOM      7  C   LIG    1      -43.843  10.803 -44.938  0.00  0.00    +0.071 C 
ATOM      8  O   LIG    1      -46.181  10.756 -45.462  0.00  0.00    -0.430 OA
ENDROOT
BRANCH   3   9
ATOM      9  C   LIG    1      -47.378  10.371 -42.056  0.00  0.00    +0.050 A 
ATOM     10  C   LIG    1      -48.481  11.117 -41.608  0.00  0.00    +0.044 A 
ATOM     11  C   LIG    1      -49.143  10.794 -40.417  0.00  0.00    +0.044 A 
ATOM     12 CL   LIG    1      -50.480  11.748 -39.899  0.00  0.00    -0.083 Cl
ATOM     13  C   LIG    1      -48.733   9.718 -39.644  0.00  0.00    +0.040 A 
ATOM     14  C   LIG    1      -47.649   8.966 -40.073  0.00  0.00    +0.044 A 
ATOM     15 CL   LIG    1      -47.130   7.617 -39.136  0.00  0.00    -0.083 Cl
ATOM     16  C   LIG    1      -46.976   9.285 -41.258  0.00  0.00    +0.044 A 
ENDBRANCH   3   9
BRANCH   6  17
ATOM     17  C   LIG    1      -45.138  12.913 -45.439  0.00  0.00    +0.022 C 
ATOM     18  C   LIG    1      -44.038  13.656 -45.639  0.00  0.00    +0.008 C 
ENDBRANCH   6  17
TORSDOF 2
ENDMDL
MODEL 6
REMARK VINA RESULT:      -6.7      3.212      4.917
REMARK  Name = 
REMARK                            x       y       z     vdW  Elec       q    Type
REMARK                         _______ _______ _______ _____ _____    ______ ____
ROOT
ATOM      1  O   LIG    1      -47.825  11.172 -45.854  0.00  0.00    -0.225 OA
ATOM      2  C   LIG    1      -46.771  11.594 -45.403  0.00  0.00    +0.415 C 
ATOM      3  N   LIG    1      -46.209  11.352 -44.182  0.00  0.00    -0.172 N 
ATOM      4  C   LIG    1      -44.987  11.975 -44.123  0.00  0.00    +0.276 C 
ATOM      5  O   LIG    1      -44.204  12.049 -43.185  0.00  0.00    -0.270 OA
ATOM      6  C   LIG    1      -44.739  12.602 -45.484  0.00  0.00    +0.206 C 
ATOM      7  C   LIG    1      -43.645  11.823 -46.212  0.00  0.00    +0.071 C 
ATOM      8  O   LIG    1      -45.972  12.397 -46.164  0.00  0.00    -0.430 OA
ENDROOT
BRANCH   3   9
ATOM      9  C   LIG    1      -46.800  10.584 -43.130  0.00  0.00    +0.050 A 
ATOM     10  C   LIG    1      -46.350   9.289 -42.819  0.00  0.00    +0.044 A 
ATOM     11  C   LIG    1      -46.939   8.541 -41.792  0.00  0.00    +0.044 A 
ATOM     12 CL   LIG    1      -46.365   6.952 -41.459  0.00  0.00    -0.083 Cl
ATOM     13  C   LIG    1      -47.983   9.061 -41.041  0.00  0.00    +0.040 A 
ATOM     14  C   LIG    1      -48.437  10.339 -41.330  0.00  0.00    +0.044 A 
ATOM     15 CL   LIG    1      -49.723  11.011 -40.402  0.00  0.00    -0.083 Cl
ATOM     16  C   LIG    1      -47.860  11.093 -42.359  0.00  0.00    +0.044 A 
ENDBRANCH   3   9
BRANCH   6  17
ATOM     17  C   LIG    1      -44.444  14.079 -45.403  0.00  0.00    +0.022 C 
ATOM     18  C   LIG    1      -43.284  14.670 -45.725  0.00  0.00    +0.008 C 
ENDBRANCH   6  17
TORSDOF 2
ENDMDL
MODEL 7
REMARK VINA RESULT:      -6.6      3.221      4.842
REMARK  Name = 
REMARK                            x       y       z     vdW  Elec       q    Type
REMARK                         _______ _______ _______ _____ _____    ______ ____
ROOT
ATOM      1  O   LIG    1      -47.595  10.926 -46.008  0.00  0.00    -0.225 OA
ATOM      2  C   LIG    1      -46.607  11.446 -45.511  0.00  0.00    +0.415 C 
ATOM      3  N   LIG    1      -46.117  11.306 -44.243  0.00  0.00    -0.172 N 
ATOM      4  C   LIG    1      -44.949  12.020 -44.137  0.00  0.00    +0.276 C 
ATOM      5  O   LIG    1      -44.242  12.197 -43.153  0.00  0.00    -0.270 OA
ATOM      6  C   LIG    1      -44.651  12.596 -45.509  0.00  0.00    +0.206 C 
ATOM      7  C   LIG    1      -43.456  11.866 -46.120  0.00  0.00    +0.071 C 
ATOM      8  O   LIG    1      -45.815  12.268 -46.259  0.00  0.00    -0.430 OA
ENDROOT
BRANCH   3   9
ATOM      9  C   LIG    1      -46.725  10.547 -43.194  0.00  0.00    +0.050 A 
ATOM     10  C   LIG    1      -47.794  11.058 -42.438  0.00  0.00    +0.044 A 
ATOM     11  C   LIG    1      -48.380  10.311 -41.408  0.00  0.00    +0.044 A 
ATOM     12 CL   LIG    1      -49.677  10.985 -40.498  0.00  0.00    -0.083 Cl
ATOM     13  C   LIG    1      -47.925   9.036 -41.107  0.00  0.00    +0.040 A 
ATOM     14  C   LIG    1      -46.874   8.513 -41.846  0.00  0.00    +0.044 A 
ATOM     15 CL   LIG    1      -46.302   6.926 -41.498  0.00  0.00    -0.083 Cl
ATOM     16  C   LIG    1      -46.278   9.253 -42.873  0.00  0.00    +0.044 A 
ENDBRANCH   3   9
BRANCH   6  17
ATOM     17  C   LIG    1      -44.468  14.093 -45.487  0.00  0.00    +0.022 C 
ATOM     18  C   LIG    1      -43.296  14.743 -45.403  0.00  0.00    +0.008 C 
ENDBRANCH   6  17
TORSDOF 2
ENDMDL
MODEL 8
REMARK VINA RESULT:      -6.5      2.311      4.077
REMARK  Name = 
REMARK                            x       y       z     vdW  Elec       q    Type
REMARK                         _______ _______ _______ _____ _____    ______ ____
ROOT
ATOM      1  O   LIG    1      -47.522   8.259 -44.692  0.00  0.00    -0.225 OA
ATOM      2  C   LIG    1      -46.876   9.294 -44.637  0.00  0.00    +0.415 C 
ATOM      3  N   LIG    1      -46.736  10.156 -43.586  0.00  0.00    -0.172 N 
ATOM      4  C   LIG    1      -45.865  11.155 -43.943  0.00  0.00    +0.276 C 
ATOM      5  O   LIG    1      -45.526  12.145 -43.307  0.00  0.00    -0.270 OA
ATOM      6  C   LIG    1      -45.356  10.828 -45.335  0.00  0.00    +0.206 C 
ATOM      7  C   LIG    1      -43.894  10.391 -45.254  0.00  0.00    +0.071 C 
ATOM      8  O   LIG    1      -46.144   9.705 -45.713  0.00  0.00    -0.430 OA
ENDROOT
BRANCH   3   9
ATOM      9  C   LIG    1      -47.398  10.043 -42.322  0.00  0.00    +0.050 A 
ATOM     10  C   LIG    1      -47.044   9.053 -41.390  0.00  0.00    +0.044 A 
ATOM     11  C   LIG    1      -47.700   8.946 -40.158  0.00  0.00    +0.044 A 
ATOM     12 CL   LIG    1      -47.244   7.705 -39.055  0.00  0.00    -0.083 Cl
ATOM     13  C   LIG    1      -48.719   9.822 -39.815  0.00  0.00    +0.040 A 
ATOM     14  C   LIG    1      -49.078  10.810 -40.720  0.00  0.00    +0.044 A 
ATOM     15 CL   LIG    1      -50.331  11.919 -40.310  0.00  0.00    -0.083 Cl
ATOM     16  C   LIG    1      -48.433  10.922 -41.957  0.00  0.00    +0.044 A 
ENDBRANCH   3   9
BRANCH   6  17
ATOM     17  C   LIG    1      -45.573  11.953 -46.316  0.00  0.00    +0.022 C 
ATOM     18  C   LIG    1      -46.269  11.877 -47.461  0.00  0.00    +0.008 C 
ENDBRANCH   6  17
TORSDOF 2
ENDMDL
MODEL 9
REMARK VINA RESULT:      -6.5      4.430      6.230
REMARK  Name = 
REMARK                            x       y       z     vdW  Elec       q    Type
REMARK                         _______ _______ _______ _____ _____    ______ ____
ROOT
ATOM      1  O   LIG    1      -45.726  12.554 -45.812  0.00  0.00    -0.225 OA
ATOM      2  C   LIG    1      -45.792  12.002 -44.724  0.00  0.00    +0.415 C 
ATOM      3  N   LIG    1      -44.807  11.835 -43.792  0.00  0.00    -0.172 N 
ATOM      4  C   LIG    1      -45.339  11.217 -42.688  0.00  0.00    +0.276 C 
ATOM      5  O   LIG    1      -44.775  10.840 -41.669  0.00  0.00    -0.270 OA
ATOM      6  C   LIG    1      -46.828  11.058 -42.940  0.00  0.00    +0.206 C 
ATOM      7  C   LIG    1      -47.603  12.021 -42.041  0.00  0.00    +0.071 C 
ATOM      8  O   LIG    1      -46.976  11.480 -44.290  0.00  0.00    -0.430 OA
ENDROOT
BRANCH   3   9
ATOM      9  C   LIG    1      -43.440  12.230 -43.944  0.00  0.00    +0.050 A 
ATOM     10  C   LIG    1      -42.500  11.406 -44.584  0.00  0.00    +0.044 A 
ATOM     11  C   LIG    1      -41.163  11.798 -44.723  0.00  0.00    +0.044 A 
ATOM     12 CL   LIG    1      -40.043  10.746 -45.500  0.00  0.00    -0.083 Cl
ATOM     13  C   LIG    1      -40.726  13.021 -44.237  0.00  0.00    +0.040 A 
ATOM     14  C   LIG    1      -41.641  13.851 -43.606  0.00  0.00    +0.044 A 
ATOM     15 CL   LIG    1      -41.124  15.380 -43.007  0.00  0.00    -0.083 Cl
ATOM     16  C   LIG    1      -42.978  13.466 -43.457  0.00  0.00    +0.044 A 
ENDBRANCH   3   9
BRANCH   6  17
ATOM     17  C   LIG    1      -47.296   9.630 -42.800  0.00  0.00    +0.022 C 
ATOM     18  C   LIG    1      -47.922   9.106 -41.736  0.00  0.00    +0.008 C 
ENDBRANCH   6  17
TORSDOF 2
ENDMDL
