MODEL 1
REMARK VINA RESULT:      -6.9      0.000      0.000
REMARK  Name = 
REMARK                            x       y       z     vdW  Elec       q    Type
REMARK                         _______ _______ _______ _____ _____    ______ ____
ROOT
ATOM      1  O   LIG    1       27.138 -28.145  -9.118  0.00  0.00    -0.225 OA
ATOM      2  C   LIG    1       26.268 -28.764  -9.710  0.00  0.00    +0.415 C 
ATOM      3  N   LIG    1       25.480 -28.348 -10.746  0.00  0.00    -0.172 N 
ATOM      4  C   LIG    1       24.684 -29.393 -11.147  0.00  0.00    +0.276 C 
ATOM      5  O   LIG    1       23.806 -29.408 -11.999  0.00  0.00    -0.270 OA
ATOM      6  C   LIG    1       25.083 -30.601 -10.319  0.00  0.00    +0.206 C 
ATOM      7  C   LIG    1       25.826 -31.602 -11.202  0.00  0.00    +0.071 C 
ATOM      8  O   LIG    1       26.000 -30.060  -9.376  0.00  0.00    -0.430 OA
ENDROOT
BRANCH   3   9
ATOM      9  C   LIG    1       25.476 -27.036 -11.315  0.00  0.00    +0.050 A 
ATOM     10  C   LIG    1       24.356 -26.193 -11.219  0.00  0.00    +0.044 A 
ATOM     11  C   LIG    1       24.359 -24.911 -11.785  0.00  0.00    +0.044 A 
ATOM     12 CL   LIG    1       22.956 -23.921 -11.657  0.00  0.00    -0.083 Cl
ATOM     13  C   LIG    1       25.475 -24.431 -12.452  0.00  0.00    +0.040 A 
ATOM     14  C   LIG    1       26.593 -25.246 -12.553  0.00  0.00    +0.044 A 
ATOM     15 CL   LIG    1       27.995 -24.665 -13.366  0.00  0.00    -0.083 Cl
ATOM     16  C   LIG    1       26.598 -26.531 -11.997  0.00  0.00    +0.044 A 
ENDBRANCH   3   9
BRANCH   6  17
ATOM     17  C   LIG    1       23.916 -31.222  -9.592  0.00  0.00    +0.022 C 
ATOM     18  C   LIG    1       22.822 -31.752 -10.163  0.00  0.00    +0.008 C 
ENDBRANCH   6  17
TORSDOF 2
ENDMDL
MODEL 2
REMARK VINA RESULT:      -6.9      0.007      2.116
REMARK  Name = 
REMARK                            x       y       z     vdW  Elec       q    Type
REMARK                         _______ _______ _______ _____ _____    ______ ____
ROOT
ATOM      1  O   LIG    1       27.134 -28.147  -9.115  0.00  0.00    -0.225 OA
ATOM      2  C   LIG    1       26.265 -28.767  -9.708  0.00  0.00    +0.415 C 
ATOM      3  N   LIG    1       25.480 -28.352 -10.747  0.00  0.00    -0.172 N 
ATOM      4  C   LIG    1       24.684 -29.396 -11.147  0.00  0.00    +0.276 C 
ATOM      5  O   LIG    1       23.807 -29.413 -12.001  0.00  0.00    -0.270 OA
ATOM      6  C   LIG    1       25.078 -30.603 -10.315  0.00  0.00    +0.206 C 
ATOM      7  C   LIG    1       25.821 -31.608 -11.194  0.00  0.00    +0.071 C 
ATOM      8  O   LIG    1       25.994 -30.061  -9.371  0.00  0.00    -0.430 OA
ENDROOT
BRANCH   3   9
ATOM      9  C   LIG    1       25.480 -27.041 -11.320  0.00  0.00    +0.050 A 
ATOM     10  C   LIG    1       26.598 -26.534 -12.003  0.00  0.00    +0.044 A 
ATOM     11  C   LIG    1       26.592 -25.247 -12.555  0.00  0.00    +0.044 A 
ATOM     12 CL   LIG    1       27.992 -24.662 -13.369  0.00  0.00    -0.083 Cl
ATOM     13  C   LIG    1       25.474 -24.433 -12.450  0.00  0.00    +0.040 A 
ATOM     14  C   LIG    1       24.359 -24.918 -11.783  0.00  0.00    +0.044 A 
ATOM     15 CL   LIG    1       22.954 -23.930 -11.652  0.00  0.00    -0.083 Cl
ATOM     16  C   LIG    1       24.357 -26.201 -11.223  0.00  0.00    +0.044 A 
ENDBRANCH   3   9
BRANCH   6  17
ATOM     17  C   LIG    1       23.908 -31.220  -9.590  0.00  0.00    +0.022 C 
ATOM     18  C   LIG    1       22.814 -31.746 -10.162  0.00  0.00    +0.008 C 
ENDBRANCH   6  17
TORSDOF 2
ENDMDL
MODEL 3
REMARK VINA RESULT:      -6.3      0.955      2.362
REMARK  Name = 
REMARK                            x       y       z     vdW  Elec       q    Type
REMARK                         _______ _______ _______ _____ _____    ______ ____
ROOT
ATOM      1  O   LIG    1       23.718 -29.201 -13.610  0.00  0.00    -0.225 OA
ATOM      2  C   LIG    1       24.151 -29.384 -12.483  0.00  0.00    +0.415 C 
ATOM      3  N   LIG    1       24.678 -28.470 -11.614  0.00  0.00    -0.172 N 
ATOM      4  C   LIG    1       24.977 -29.102 -10.432  0.00  0.00    +0.276 C 
ATOM      5  O   LIG    1       25.516 -28.648  -9.431  0.00  0.00    -0.270 OA
ATOM      6  C   LIG    1       24.512 -30.541 -10.565  0.00  0.00    +0.206 C 
ATOM      7  C   LIG    1       23.281 -30.762  -9.686  0.00  0.00    +0.071 C 
ATOM      8  O   LIG    1       24.118 -30.630 -11.929  0.00  0.00    -0.430 OA
ENDROOT
BRANCH   3   9
ATOM      9  C   LIG    1       24.892 -27.083 -11.891  0.00  0.00    +0.050 A 
ATOM     10  C   LIG    1       23.878 -26.129 -11.709  0.00  0.00    +0.044 A 
ATOM     11  C   LIG    1       24.094 -24.774 -11.989  0.00  0.00    +0.044 A 
ATOM     12 CL   LIG    1       22.815 -23.643 -11.767  0.00  0.00    -0.083 Cl
ATOM     13  C   LIG    1       25.325 -24.330 -12.450  0.00  0.00    +0.040 A 
ATOM     14  C   LIG    1       26.341 -25.257 -12.631  0.00  0.00    +0.044 A 
ATOM     15 CL   LIG    1       27.881 -24.727 -13.189  0.00  0.00    -0.083 Cl
ATOM     16  C   LIG    1       26.133 -26.615 -12.360  0.00  0.00    +0.044 A 
ENDBRANCH   3   9
BRANCH   6  17
ATOM     17  C   LIG    1       25.610 -31.538 -10.288  0.00  0.00    +0.022 C 
ATOM     18  C   LIG    1       26.923 -31.339 -10.481  0.00  0.00    +0.008 C 
ENDBRANCH   6  17
TORSDOF 2
ENDMDL
MODEL 4
REMARK VINA RESULT:      -6.2      0.962      3.166
REMARK  Name = 
REMARK                            x       y       z     vdW  Elec       q    Type
REMARK                         _______ _______ _______ _____ _____    ______ ____
ROOT
ATOM      1  O   LIG    1       23.749 -29.219 -13.627  0.00  0.00    -0.225 OA
ATOM      2  C   LIG    1       24.164 -29.399 -12.492  0.00  0.00    +0.415 C 
ATOM      3  N   LIG    1       24.679 -28.484 -11.618  0.00  0.00    -0.172 N 
ATOM      4  C   LIG    1       24.957 -29.111 -10.429  0.00  0.00    +0.276 C 
ATOM      5  O   LIG    1       25.481 -28.655  -9.421  0.00  0.00    -0.270 OA
ATOM      6  C   LIG    1       24.489 -30.550 -10.563  0.00  0.00    +0.206 C 
ATOM      7  C   LIG    1       23.244 -30.763  -9.705  0.00  0.00    +0.071 C 
ATOM      8  O   LIG    1       24.117 -30.643 -11.933  0.00  0.00    -0.430 OA
ENDROOT
BRANCH   3   9
ATOM      9  C   LIG    1       24.903 -27.098 -11.897  0.00  0.00    +0.050 A 
ATOM     10  C   LIG    1       26.141 -26.631 -12.370  0.00  0.00    +0.044 A 
ATOM     11  C   LIG    1       26.353 -25.272 -12.635  0.00  0.00    +0.044 A 
ATOM     12 CL   LIG    1       27.892 -24.744 -13.197  0.00  0.00    -0.083 Cl
ATOM     13  C   LIG    1       25.340 -24.344 -12.446  0.00  0.00    +0.040 A 
ATOM     14  C   LIG    1       24.109 -24.787 -11.986  0.00  0.00    +0.044 A 
ATOM     15 CL   LIG    1       22.833 -23.654 -11.756  0.00  0.00    -0.083 Cl
ATOM     16  C   LIG    1       23.889 -26.142 -11.711  0.00  0.00    +0.044 A 
ENDBRANCH   3   9
BRANCH   6  17
ATOM     17  C   LIG    1       25.579 -31.549 -10.264  0.00  0.00    +0.022 C 
ATOM     18  C   LIG    1       26.889 -31.382 -10.504  0.00  0.00    +0.008 C 
ENDBRANCH   6  17
TORSDOF 2
ENDMDL
MODEL 5
REMARK VINA RESULT:      -5.7      2.936      5.516
REMARK  Name = 
REMARK                            x       y       z     vdW  Elec       q    Type
REMARK                         _______ _______ _______ _____ _____    ______ ____
ROOT
ATOM      1  O   LIG    1       26.870 -26.560  -9.767  0.00  0.00    -0.225 OA
ATOM      2  C   LIG    1       25.990 -26.278 -10.565  0.00  0.00    +0.415 C 
ATOM      3  N   LIG    1       25.198 -27.121 -11.294  0.00  0.00    -0.172 N 
ATOM      4  C   LIG    1       24.298 -26.375 -12.013  0.00  0.00    +0.276 C 
ATOM      5  O   LIG    1       23.464 -26.750 -12.827  0.00  0.00    -0.270 OA
ATOM      6  C   LIG    1       24.510 -24.923 -11.624  0.00  0.00    +0.206 C 
ATOM      7  C   LIG    1       23.331 -24.445 -10.778  0.00  0.00    +0.071 C 
ATOM      8  O   LIG    1       25.669 -24.973 -10.801  0.00  0.00    -0.430 OA
ENDROOT
BRANCH   3   9
ATOM      9  C   LIG    1       25.297 -28.548 -11.312  0.00  0.00    +0.050 A 
ATOM     10  C   LIG    1       24.289 -29.365 -10.772  0.00  0.00    +0.044 A 
ATOM     11  C   LIG    1       24.396 -30.761 -10.789  0.00  0.00    +0.044 A 
ATOM     12 CL   LIG    1       23.144 -31.720 -10.099  0.00  0.00    -0.083 Cl
ATOM     13  C   LIG    1       25.502 -31.383 -11.349  0.00  0.00    +0.040 A 
ATOM     14  C   LIG    1       26.505 -30.594 -11.891  0.00  0.00    +0.044 A 
ATOM     15 CL   LIG    1       27.882 -31.344 -12.604  0.00  0.00    -0.083 Cl
ATOM     16  C   LIG    1       26.411 -29.197 -11.874  0.00  0.00    +0.044 A 
ENDBRANCH   3   9
BRANCH   6  17
ATOM     17  C   LIG    1       24.770 -24.032 -12.813  0.00  0.00    +0.022 C 
ATOM     18  C   LIG    1       25.303 -22.800 -12.774  0.00  0.00    +0.008 C 
ENDBRANCH   6  17
TORSDOF 2
ENDMDL
MODEL 6
REMARK VINA RESULT:      -5.7      2.935      5.898
REMARK  Name = 
REMARK                            x       y       z     vdW  Elec       q    Type
REMARK                         _______ _______ _______ _____ _____    ______ ____
ROOT
ATOM      1  O   LIG    1       26.853 -26.529  -9.726  0.00  0.00    -0.225 OA
ATOM      2  C   LIG    1       25.988 -26.256 -10.544  0.00  0.00    +0.415 C 
ATOM      3  N   LIG    1       25.213 -27.107 -11.282  0.00  0.00    -0.172 N 
ATOM      4  C   LIG    1       24.325 -26.370 -12.025  0.00  0.00    +0.276 C 
ATOM      5  O   LIG    1       23.509 -26.753 -12.852  0.00  0.00    -0.270 OA
ATOM      6  C   LIG    1       24.525 -24.913 -11.643  0.00  0.00    +0.206 C 
ATOM      7  C   LIG    1       23.328 -24.433 -10.823  0.00  0.00    +0.071 C 
ATOM      8  O   LIG    1       25.667 -24.954 -10.796  0.00  0.00    -0.430 OA
ENDROOT
BRANCH   3   9
ATOM      9  C   LIG    1       25.317 -28.534 -11.288  0.00  0.00    +0.050 A 
ATOM     10  C   LIG    1       26.416 -29.192 -11.864  0.00  0.00    +0.044 A 
ATOM     11  C   LIG    1       26.506 -30.590 -11.871  0.00  0.00    +0.044 A 
ATOM     12 CL   LIG    1       27.864 -31.352 -12.605  0.00  0.00    -0.083 Cl
ATOM     13  C   LIG    1       25.512 -31.370 -11.300  0.00  0.00    +0.040 A 
ATOM     14  C   LIG    1       24.421 -30.738 -10.721  0.00  0.00    +0.044 A 
ATOM     15 CL   LIG    1       23.181 -31.686  -9.994  0.00  0.00    -0.083 Cl
ATOM     16  C   LIG    1       24.319 -29.342 -10.714  0.00  0.00    +0.044 A 
ENDBRANCH   3   9
BRANCH   6  17
ATOM     17  C   LIG    1       24.806 -24.030 -12.833  0.00  0.00    +0.022 C 
ATOM     18  C   LIG    1       25.273 -22.773 -12.789  0.00  0.00    +0.008 C 
ENDBRANCH   6  17
TORSDOF 2
ENDMDL
MODEL 7
REMARK VINA RESULT:      -5.5      2.949      5.763
REMARK  Name = 
REMARK                            x       y       z     vdW  Elec       q    Type
REMARK                         _______ _______ _______ _____ _____    ______ ____
ROOT
ATOM      1  O   LIG    1       26.963 -26.908  -9.477  0.00  0.00    -0.225 OA
ATOM      2  C   LIG    1       26.440 -26.404 -10.458  0.00  0.00    +0.415 C 
ATOM      3  N   LIG    1       25.269 -26.749 -11.073  0.00  0.00    -0.172 N 
ATOM      4  C   LIG    1       25.030 -25.871 -12.100  0.00  0.00    +0.276 C 
ATOM      5  O   LIG    1       24.123 -25.876 -12.922  0.00  0.00    -0.270 OA
ATOM      6  C   LIG    1       26.133 -24.828 -12.062  0.00  0.00    +0.206 C 
ATOM      7  C   LIG    1       25.560 -23.497 -11.578  0.00  0.00    +0.071 C 
ATOM      8  O   LIG    1       27.019 -25.329 -11.068  0.00  0.00    -0.430 OA
ENDROOT
BRANCH   3   9
ATOM      9  C   LIG    1       24.433 -27.853 -10.711  0.00  0.00    +0.050 A 
ATOM     10  C   LIG    1       24.832 -29.183 -10.928  0.00  0.00    +0.044 A 
ATOM     11  C   LIG    1       24.004 -30.257 -10.577  0.00  0.00    +0.044 A 
ATOM     12 CL   LIG    1       24.528 -31.869 -10.877  0.00  0.00    -0.083 Cl
ATOM     13  C   LIG    1       22.764 -30.039  -9.996  0.00  0.00    +0.040 A 
ATOM     14  C   LIG    1       22.355 -28.733  -9.770  0.00  0.00    +0.044 A 
ATOM     15 CL   LIG    1       20.825 -28.439  -9.037  0.00  0.00    -0.083 Cl
ATOM     16  C   LIG    1       23.172 -27.652 -10.122  0.00  0.00    +0.044 A 
ENDBRANCH   3   9
BRANCH   6  17
ATOM     17  C   LIG    1       26.864 -24.702 -13.376  0.00  0.00    +0.022 C 
ATOM     18  C   LIG    1       27.536 -25.681 -14.001  0.00  0.00    +0.008 C 
ENDBRANCH   6  17
TORSDOF 2
ENDMDL
MODEL 8
REMARK VINA RESULT:      -5.5      2.946      5.419
REMARK  Name = 
REMARK                            x       y       z     vdW  Elec       q    Type
REMARK                         _______ _______ _______ _____ _____    ______ ____
ROOT
ATOM      1  O   LIG    1       26.973 -26.898  -9.442  0.00  0.00    -0.225 OA
ATOM      2  C   LIG    1       26.462 -26.396 -10.431  0.00  0.00    +0.415 C 
ATOM      3  N   LIG    1       25.299 -26.743 -11.060  0.00  0.00    -0.172 N 
ATOM      4  C   LIG    1       25.072 -25.868 -12.092  0.00  0.00    +0.276 C 
ATOM      5  O   LIG    1       24.175 -25.875 -12.925  0.00  0.00    -0.270 OA
ATOM      6  C   LIG    1       26.173 -24.824 -12.043  0.00  0.00    +0.206 C 
ATOM      7  C   LIG    1       25.593 -23.492 -11.568  0.00  0.00    +0.071 C 
ATOM      8  O   LIG    1       27.047 -25.322 -11.036  0.00  0.00    -0.430 OA
ENDROOT
BRANCH   3   9
ATOM      9  C   LIG    1       24.459 -27.847 -10.707  0.00  0.00    +0.050 A 
ATOM     10  C   LIG    1       23.189 -27.655 -10.137  0.00  0.00    +0.044 A 
ATOM     11  C   LIG    1       22.376 -28.740  -9.788  0.00  0.00    +0.044 A 
ATOM     12 CL   LIG    1       20.834 -28.456  -9.076  0.00  0.00    -0.083 Cl
ATOM     13  C   LIG    1       22.799 -30.044 -10.004  0.00  0.00    +0.040 A 
ATOM     14  C   LIG    1       24.047 -30.253 -10.571  0.00  0.00    +0.044 A 
ATOM     15 CL   LIG    1       24.587 -31.863 -10.860  0.00  0.00    -0.083 Cl
ATOM     16  C   LIG    1       24.870 -29.175 -10.916  0.00  0.00    +0.044 A 
ENDBRANCH   3   9
BRANCH   6  17
ATOM     17  C   LIG    1       26.920 -24.700 -13.347  0.00  0.00    +0.022 C 
ATOM     18  C   LIG    1       27.525 -25.700 -14.007  0.00  0.00    +0.008 C 
ENDBRANCH   6  17
TORSDOF 2
ENDMDL
MODEL 9
REMARK VINA RESULT:      -5.3      1.393      3.379
REMARK  Name = 
REMARK                            x       y       z     vdW  Elec       q    Type
REMARK                         _______ _______ _______ _____ _____    ______ ____
ROOT
ATOM      1  O   LIG    1       24.355 -29.278 -13.138  0.00  0.00    -0.225 OA
ATOM      2  C   LIG    1       25.014 -29.202 -12.113  0.00  0.00    +0.415 C 
ATOM      3  N   LIG    1       25.298 -28.097 -11.362  0.00  0.00    -0.172 N 
ATOM      4  C   LIG    1       26.015 -28.482 -10.256  0.00  0.00    +0.276 C 
ATOM      5  O   LIG    1       26.507 -27.788  -9.377  0.00  0.00    -0.270 OA
ATOM      6  C   LIG    1       26.115 -29.997 -10.294  0.00  0.00    +0.206 C 
ATOM      7  C   LIG    1       25.233 -30.593  -9.199  0.00  0.00    +0.071 C 
ATOM      8  O   LIG    1       25.553 -30.327 -11.559  0.00  0.00    -0.430 OA
ENDROOT
BRANCH   3   9
ATOM      9  C   LIG    1       24.919 -26.754 -11.679  0.00  0.00    +0.050 A 
ATOM     10  C   LIG    1       25.864 -25.797 -12.085  0.00  0.00    +0.044 A 
ATOM     11  C   LIG    1       25.486 -24.483 -12.387  0.00  0.00    +0.044 A 
ATOM     12 CL   LIG    1       26.682 -23.340 -12.864  0.00  0.00    -0.083 Cl
ATOM     13  C   LIG    1       24.159 -24.087 -12.302  0.00  0.00    +0.040 A 
ATOM     14  C   LIG    1       23.211 -25.019 -11.908  0.00  0.00    +0.044 A 
ATOM     15 CL   LIG    1       21.556 -24.554 -11.808  0.00  0.00    -0.083 Cl
ATOM     16  C   LIG    1       23.580 -26.333 -11.597  0.00  0.00    +0.044 A 
ENDBRANCH   3   9
BRANCH   6  17
ATOM     17  C   LIG    1       27.538 -30.491 -10.228  0.00  0.00    +0.022 C 
ATOM     18  C   LIG    1       28.642 -29.733 -10.331  0.00  0.00    +0.008 C 
ENDBRANCH   6  17
TORSDOF 2
ENDMDL
