MODEL 1
REMARK VINA RESULT:      -7.4      0.000      0.000
REMARK  Name = 
REMARK                            x       y       z     vdW  Elec       q    Type
REMARK                         _______ _______ _______ _____ _____    ______ ____
ROOT
ATOM      1  O   LIG    1       16.827  48.660  14.489  0.00  0.00    -0.225 OA
ATOM      2  C   LIG    1       17.371  48.825  15.570  0.00  0.00    +0.415 C 
ATOM      3  N   LIG    1       18.700  48.990  15.839  0.00  0.00    -0.172 N 
ATOM      4  C   LIG    1       18.858  49.210  17.184  0.00  0.00    +0.276 C 
ATOM      5  O   LIG    1       19.891  49.344  17.827  0.00  0.00    -0.270 OA
ATOM      6  C   LIG    1       17.469  49.262  17.795  0.00  0.00    +0.206 C 
ATOM      7  C   LIG    1       17.143  50.699  18.199  0.00  0.00    +0.071 C 
ATOM      8  O   LIG    1       16.625  48.893  16.710  0.00  0.00    -0.430 OA
ENDROOT
BRANCH   3   9
ATOM      9  C   LIG    1       19.758  48.935  14.877  0.00  0.00    +0.050 A 
ATOM     10  C   LIG    1       20.434  50.092  14.455  0.00  0.00    +0.044 A 
ATOM     11  C   LIG    1       21.465  50.029  13.509  0.00  0.00    +0.044 A 
ATOM     12 CL   LIG    1       22.252  51.477  13.010  0.00  0.00    -0.083 Cl
ATOM     13  C   LIG    1       21.856  48.816  12.963  0.00  0.00    +0.040 A 
ATOM     14  C   LIG    1       21.204  47.662  13.370  0.00  0.00    +0.044 A 
ATOM     15 CL   LIG    1       21.682  46.142  12.716  0.00  0.00    -0.083 Cl
ATOM     16  C   LIG    1       20.169  47.715  14.311  0.00  0.00    +0.044 A 
ENDBRANCH   3   9
BRANCH   6  17
ATOM     17  C   LIG    1       17.292  48.285  18.930  0.00  0.00    +0.022 C 
ATOM     18  C   LIG    1       16.145  47.682  19.281  0.00  0.00    +0.008 C 
ENDBRANCH   6  17
TORSDOF 2
ENDMDL
MODEL 2
REMARK VINA RESULT:      -7.4      0.022      2.116
REMARK  Name = 
REMARK                            x       y       z     vdW  Elec       q    Type
REMARK                         _______ _______ _______ _____ _____    ______ ____
ROOT
ATOM      1  O   LIG    1       16.832  48.630  14.503  0.00  0.00    -0.225 OA
ATOM      2  C   LIG    1       17.378  48.810  15.580  0.00  0.00    +0.415 C 
ATOM      3  N   LIG    1       18.707  48.990  15.843  0.00  0.00    -0.172 N 
ATOM      4  C   LIG    1       18.868  49.223  17.186  0.00  0.00    +0.276 C 
ATOM      5  O   LIG    1       19.902  49.372  17.823  0.00  0.00    -0.270 OA
ATOM      6  C   LIG    1       17.480  49.268  17.801  0.00  0.00    +0.206 C 
ATOM      7  C   LIG    1       17.143  50.705  18.193  0.00  0.00    +0.071 C 
ATOM      8  O   LIG    1       16.636  48.882  16.723  0.00  0.00    -0.430 OA
ENDROOT
BRANCH   3   9
ATOM      9  C   LIG    1       19.762  48.934  14.877  0.00  0.00    +0.050 A 
ATOM     10  C   LIG    1       20.176  47.719  14.305  0.00  0.00    +0.044 A 
ATOM     11  C   LIG    1       21.213  47.674  13.365  0.00  0.00    +0.044 A 
ATOM     12 CL   LIG    1       21.697  46.159  12.704  0.00  0.00    -0.083 Cl
ATOM     13  C   LIG    1       21.861  48.832  12.964  0.00  0.00    +0.040 A 
ATOM     14  C   LIG    1       21.464  50.042  13.514  0.00  0.00    +0.044 A 
ATOM     15 CL   LIG    1       22.245  51.495  13.021  0.00  0.00    -0.083 Cl
ATOM     16  C   LIG    1       20.432  50.098  14.459  0.00  0.00    +0.044 A 
ENDBRANCH   3   9
BRANCH   6  17
ATOM     17  C   LIG    1       17.317  48.299  18.945  0.00  0.00    +0.022 C 
ATOM     18  C   LIG    1       16.185  47.662  19.283  0.00  0.00    +0.008 C 
ENDBRANCH   6  17
TORSDOF 2
ENDMDL
MODEL 3
REMARK VINA RESULT:      -7.4      0.897      3.118
REMARK  Name = 
REMARK                            x       y       z     vdW  Elec       q    Type
REMARK                         _______ _______ _______ _____ _____    ______ ____
ROOT
ATOM      1  O   LIG    1       21.403  49.435  17.819  0.00  0.00    -0.225 OA
ATOM      2  C   LIG    1       20.232  49.405  17.475  0.00  0.00    +0.415 C 
ATOM      3  N   LIG    1       19.714  49.209  16.225  0.00  0.00    -0.172 N 
ATOM      4  C   LIG    1       18.345  49.186  16.309  0.00  0.00    +0.276 C 
ATOM      5  O   LIG    1       17.519  49.094  15.409  0.00  0.00    -0.270 OA
ATOM      6  C   LIG    1       17.985  49.303  17.779  0.00  0.00    +0.206 C 
ATOM      7  C   LIG    1       17.448  47.963  18.281  0.00  0.00    +0.071 C 
ATOM      8  O   LIG    1       19.240  49.550  18.402  0.00  0.00    -0.430 OA
ENDROOT
BRANCH   3   9
ATOM      9  C   LIG    1       20.475  49.062  15.022  0.00  0.00    +0.050 A 
ATOM     10  C   LIG    1       20.617  47.817  14.387  0.00  0.00    +0.044 A 
ATOM     11  C   LIG    1       21.369  47.680  13.213  0.00  0.00    +0.044 A 
ATOM     12 CL   LIG    1       21.529  46.131  12.479  0.00  0.00    -0.083 Cl
ATOM     13  C   LIG    1       21.993  48.777  12.636  0.00  0.00    +0.040 A 
ATOM     14  C   LIG    1       21.860  50.015  13.246  0.00  0.00    +0.044 A 
ATOM     15 CL   LIG    1       22.614  51.393  12.540  0.00  0.00    -0.083 Cl
ATOM     16  C   LIG    1       21.116  50.161  14.423  0.00  0.00    +0.044 A 
ENDBRANCH   3   9
BRANCH   6  17
ATOM     17  C   LIG    1       17.045  50.448  18.062  0.00  0.00    +0.022 C 
ATOM     18  C   LIG    1       16.697  50.901  19.276  0.00  0.00    +0.008 C 
ENDBRANCH   6  17
TORSDOF 2
ENDMDL
MODEL 4
REMARK VINA RESULT:      -7.4      0.893      2.286
REMARK  Name = 
REMARK                            x       y       z     vdW  Elec       q    Type
REMARK                         _______ _______ _______ _____ _____    ______ ____
ROOT
ATOM      1  O   LIG    1       21.374  49.344  17.841  0.00  0.00    -0.225 OA
ATOM      2  C   LIG    1       20.205  49.346  17.487  0.00  0.00    +0.415 C 
ATOM      3  N   LIG    1       19.695  49.190  16.229  0.00  0.00    -0.172 N 
ATOM      4  C   LIG    1       18.325  49.192  16.301  0.00  0.00    +0.276 C 
ATOM      5  O   LIG    1       17.505  49.138  15.393  0.00  0.00    -0.270 OA
ATOM      6  C   LIG    1       17.955  49.283  17.771  0.00  0.00    +0.206 C 
ATOM      7  C   LIG    1       17.386  47.943  18.237  0.00  0.00    +0.071 C 
ATOM      8  O   LIG    1       19.209  49.490  18.409  0.00  0.00    -0.430 OA
ENDROOT
BRANCH   3   9
ATOM      9  C   LIG    1       20.463  49.054  15.030  0.00  0.00    +0.050 A 
ATOM     10  C   LIG    1       21.104  50.155  14.436  0.00  0.00    +0.044 A 
ATOM     11  C   LIG    1       21.849  50.014  13.258  0.00  0.00    +0.044 A 
ATOM     12 CL   LIG    1       22.603  51.395  12.557  0.00  0.00    -0.083 Cl
ATOM     13  C   LIG    1       21.984  48.778  12.644  0.00  0.00    +0.040 A 
ATOM     14  C   LIG    1       21.363  47.679  13.219  0.00  0.00    +0.044 A 
ATOM     15 CL   LIG    1       21.527  46.132  12.481  0.00  0.00    -0.083 Cl
ATOM     16  C   LIG    1       20.611  47.810  14.392  0.00  0.00    +0.044 A 
ENDBRANCH   3   9
BRANCH   6  17
ATOM     17  C   LIG    1       17.035  50.440  18.072  0.00  0.00    +0.022 C 
ATOM     18  C   LIG    1       16.697  50.881  19.294  0.00  0.00    +0.008 C 
ENDBRANCH   6  17
TORSDOF 2
ENDMDL
MODEL 5
REMARK VINA RESULT:      -7.0      3.341      5.841
REMARK  Name = 
REMARK                            x       y       z     vdW  Elec       q    Type
REMARK                         _______ _______ _______ _____ _____    ______ ____
ROOT
ATOM      1  O   LIG    1       20.785  46.076  13.841  0.00  0.00    -0.225 OA
ATOM      2  C   LIG    1       20.882  47.293  13.843  0.00  0.00    +0.415 C 
ATOM      3  N   LIG    1       20.075  48.211  14.455  0.00  0.00    -0.172 N 
ATOM      4  C   LIG    1       20.593  49.466  14.250  0.00  0.00    +0.276 C 
ATOM      5  O   LIG    1       20.136  50.552  14.583  0.00  0.00    -0.270 OA
ATOM      6  C   LIG    1       21.901  49.292  13.498  0.00  0.00    +0.206 C 
ATOM      7  C   LIG    1       23.070  49.605  14.430  0.00  0.00    +0.071 C 
ATOM      8  O   LIG    1       21.920  47.901  13.198  0.00  0.00    -0.430 OA
ENDROOT
BRANCH   3   9
ATOM      9  C   LIG    1       18.878  47.916  15.182  0.00  0.00    +0.050 A 
ATOM     10  C   LIG    1       18.787  48.124  16.568  0.00  0.00    +0.044 A 
ATOM     11  C   LIG    1       17.614  47.826  17.273  0.00  0.00    +0.044 A 
ATOM     12 CL   LIG    1       17.554  48.082  18.975  0.00  0.00    -0.083 Cl
ATOM     13  C   LIG    1       16.500  47.321  16.620  0.00  0.00    +0.040 A 
ATOM     14  C   LIG    1       16.569  47.114  15.250  0.00  0.00    +0.044 A 
ATOM     15 CL   LIG    1       15.194  46.500  14.415  0.00  0.00    -0.083 Cl
ATOM     16  C   LIG    1       17.739  47.402  14.537  0.00  0.00    +0.044 A 
ENDBRANCH   3   9
BRANCH   6  17
ATOM     17  C   LIG    1       21.949  50.088  12.218  0.00  0.00    +0.022 C 
ATOM     18  C   LIG    1       22.742  51.143  11.975  0.00  0.00    +0.008 C 
ENDBRANCH   6  17
TORSDOF 2
ENDMDL
MODEL 6
REMARK VINA RESULT:      -7.0      3.341      5.989
REMARK  Name = 
REMARK                            x       y       z     vdW  Elec       q    Type
REMARK                         _______ _______ _______ _____ _____    ______ ____
ROOT
ATOM      1  O   LIG    1       20.792  46.079  13.838  0.00  0.00    -0.225 OA
ATOM      2  C   LIG    1       20.888  47.296  13.841  0.00  0.00    +0.415 C 
ATOM      3  N   LIG    1       20.081  48.214  14.452  0.00  0.00    -0.172 N 
ATOM      4  C   LIG    1       20.599  49.469  14.248  0.00  0.00    +0.276 C 
ATOM      5  O   LIG    1       20.142  50.554  14.580  0.00  0.00    -0.270 OA
ATOM      6  C   LIG    1       21.906  49.295  13.495  0.00  0.00    +0.206 C 
ATOM      7  C   LIG    1       23.076  49.609  14.427  0.00  0.00    +0.071 C 
ATOM      8  O   LIG    1       21.926  47.904  13.196  0.00  0.00    -0.430 OA
ENDROOT
BRANCH   3   9
ATOM      9  C   LIG    1       18.885  47.918  15.180  0.00  0.00    +0.050 A 
ATOM     10  C   LIG    1       17.742  47.404  14.544  0.00  0.00    +0.044 A 
ATOM     11  C   LIG    1       16.574  47.123  15.262  0.00  0.00    +0.044 A 
ATOM     12 CL   LIG    1       15.192  46.511  14.437  0.00  0.00    -0.083 Cl
ATOM     13  C   LIG    1       16.511  47.337  16.631  0.00  0.00    +0.040 A 
ATOM     14  C   LIG    1       17.631  47.838  17.278  0.00  0.00    +0.044 A 
ATOM     15 CL   LIG    1       17.581  48.099  18.979  0.00  0.00    -0.083 Cl
ATOM     16  C   LIG    1       18.802  48.129  16.568  0.00  0.00    +0.044 A 
ENDBRANCH   3   9
BRANCH   6  17
ATOM     17  C   LIG    1       21.954  50.091  12.215  0.00  0.00    +0.022 C 
ATOM     18  C   LIG    1       22.748  51.145  11.970  0.00  0.00    +0.008 C 
ENDBRANCH   6  17
TORSDOF 2
ENDMDL
MODEL 7
REMARK VINA RESULT:      -6.9      3.073      6.128
REMARK  Name = 
REMARK                            x       y       z     vdW  Elec       q    Type
REMARK                         _______ _______ _______ _____ _____    ______ ____
ROOT
ATOM      1  O   LIG    1       21.629  49.203  17.538  0.00  0.00    -0.225 OA
ATOM      2  C   LIG    1       21.124  49.123  16.429  0.00  0.00    +0.415 C 
ATOM      3  N   LIG    1       19.803  49.002  16.101  0.00  0.00    -0.172 N 
ATOM      4  C   LIG    1       19.681  49.013  14.734  0.00  0.00    +0.276 C 
ATOM      5  O   LIG    1       18.677  48.869  14.048  0.00  0.00    -0.270 OA
ATOM      6  C   LIG    1       21.070  49.243  14.164  0.00  0.00    +0.206 C 
ATOM      7  C   LIG    1       21.153  50.651  13.576  0.00  0.00    +0.071 C 
ATOM      8  O   LIG    1       21.906  49.181  15.313  0.00  0.00    -0.430 OA
ENDROOT
BRANCH   3   9
ATOM      9  C   LIG    1       18.721  48.875  17.029  0.00  0.00    +0.050 A 
ATOM     10  C   LIG    1       17.959  47.698  17.118  0.00  0.00    +0.044 A 
ATOM     11  C   LIG    1       16.898  47.585  18.025  0.00  0.00    +0.044 A 
ATOM     12 CL   LIG    1       15.981  46.129  18.086  0.00  0.00    -0.083 Cl
ATOM     13  C   LIG    1       16.572  48.633  18.873  0.00  0.00    +0.040 A 
ATOM     14  C   LIG    1       17.317  49.800  18.804  0.00  0.00    +0.044 A 
ATOM     15 CL   LIG    1       16.939  51.110  19.857  0.00  0.00    -0.083 Cl
ATOM     16  C   LIG    1       18.375  49.927  17.896  0.00  0.00    +0.044 A 
ENDBRANCH   3   9
BRANCH   6  17
ATOM     17  C   LIG    1       21.481  48.177  13.179  0.00  0.00    +0.022 C 
ATOM     18  C   LIG    1       21.417  46.852  13.378  0.00  0.00    +0.008 C 
ENDBRANCH   6  17
TORSDOF 2
ENDMDL
MODEL 8
REMARK VINA RESULT:      -6.9      3.067      5.766
REMARK  Name = 
REMARK                            x       y       z     vdW  Elec       q    Type
REMARK                         _______ _______ _______ _____ _____    ______ ____
ROOT
ATOM      1  O   LIG    1       21.669  49.225  17.497  0.00  0.00    -0.225 OA
ATOM      2  C   LIG    1       21.154  49.137  16.393  0.00  0.00    +0.415 C 
ATOM      3  N   LIG    1       19.830  49.011  16.078  0.00  0.00    -0.172 N 
ATOM      4  C   LIG    1       19.696  49.015  14.712  0.00  0.00    +0.276 C 
ATOM      5  O   LIG    1       18.687  48.863  14.036  0.00  0.00    -0.270 OA
ATOM      6  C   LIG    1       21.079  49.246  14.127  0.00  0.00    +0.206 C 
ATOM      7  C   LIG    1       21.152  50.650  13.532  0.00  0.00    +0.071 C 
ATOM      8  O   LIG    1       21.926  49.192  15.269  0.00  0.00    -0.430 OA
ENDROOT
BRANCH   3   9
ATOM      9  C   LIG    1       18.758  48.886  17.017  0.00  0.00    +0.050 A 
ATOM     10  C   LIG    1       18.417  49.932  17.891  0.00  0.00    +0.044 A 
ATOM     11  C   LIG    1       17.370  49.799  18.812  0.00  0.00    +0.044 A 
ATOM     12 CL   LIG    1       17.000  51.102  19.875  0.00  0.00    -0.083 Cl
ATOM     13  C   LIG    1       16.630  48.628  18.883  0.00  0.00    +0.040 A 
ATOM     14  C   LIG    1       16.949  47.587  18.025  0.00  0.00    +0.044 A 
ATOM     15 CL   LIG    1       16.035  46.128  18.087  0.00  0.00    -0.083 Cl
ATOM     16  C   LIG    1       17.997  47.707  17.105  0.00  0.00    +0.044 A 
ENDBRANCH   3   9
BRANCH   6  17
ATOM     17  C   LIG    1       21.484  48.176  13.144  0.00  0.00    +0.022 C 
ATOM     18  C   LIG    1       21.461  46.852  13.365  0.00  0.00    +0.008 C 
ENDBRANCH   6  17
TORSDOF 2
ENDMDL
MODEL 9
REMARK VINA RESULT:      -6.3      3.064      6.039
REMARK  Name = 
REMARK                            x       y       z     vdW  Elec       q    Type
REMARK                         _______ _______ _______ _____ _____    ______ ____
ROOT
ATOM      1  O   LIG    1       18.395  49.971  14.078  0.00  0.00    -0.225 OA
ATOM      2  C   LIG    1       19.552  49.688  14.347  0.00  0.00    +0.415 C 
ATOM      3  N   LIG    1       20.060  49.201  15.518  0.00  0.00    -0.172 N 
ATOM      4  C   LIG    1       21.402  48.963  15.356  0.00  0.00    +0.276 C 
ATOM      5  O   LIG    1       22.223  48.584  16.181  0.00  0.00    -0.270 OA
ATOM      6  C   LIG    1       21.737  49.264  13.905  0.00  0.00    +0.206 C 
ATOM      7  C   LIG    1       22.018  47.957  13.166  0.00  0.00    +0.071 C 
ATOM      8  O   LIG    1       20.528  49.819  13.402  0.00  0.00    -0.430 OA
ENDROOT
BRANCH   3   9
ATOM      9  C   LIG    1       19.318  48.983  16.722  0.00  0.00    +0.050 A 
ATOM     10  C   LIG    1       19.248  47.716  17.326  0.00  0.00    +0.044 A 
ATOM     11  C   LIG    1       18.514  47.510  18.501  0.00  0.00    +0.044 A 
ATOM     12 CL   LIG    1       18.442  45.936  19.196  0.00  0.00    -0.083 Cl
ATOM     13  C   LIG    1       17.838  48.557  19.111  0.00  0.00    +0.040 A 
ATOM     14  C   LIG    1       17.900  49.816  18.532  0.00  0.00    +0.044 A 
ATOM     15 CL   LIG    1       17.080  51.133  19.278  0.00  0.00    -0.083 Cl
ATOM     16  C   LIG    1       18.626  50.031  17.354  0.00  0.00    +0.044 A 
ENDBRANCH   3   9
BRANCH   6  17
ATOM     17  C   LIG    1       22.855  50.266  13.759  0.00  0.00    +0.022 C 
ATOM     18  C   LIG    1       22.978  51.171  12.776  0.00  0.00    +0.008 C 
ENDBRANCH   6  17
TORSDOF 2
ENDMDL
