REMARK  Name = 
REMARK                            x       y       z     vdW  Elec       q    Type
REMARK                         _______ _______ _______ _____ _____    ______ ____
ROOT
ATOM      1  O   LIG    1        1.579   0.059   0.918  0.00  0.00    -0.225 OA
ATOM      2  C   LIG    1        2.637   0.026   0.309  0.00  0.00    +0.415 C 
ATOM      3  N   LIG    1        3.379  -1.063  -0.053  0.00  0.00    -0.172 N 
ATOM      4  C   LIG    1        4.462  -0.641  -0.783  0.00  0.00    +0.276 C 
ATOM      5  O   LIG    1        5.390  -1.299  -1.235  0.00  0.00    -0.270 OA
ATOM      6  C   LIG    1        4.328   0.862  -0.953  0.00  0.00    +0.206 C 
ATOM      7  C   LIG    1        3.972   1.181  -2.404  0.00  0.00    +0.071 C 
ATOM      8  O   LIG    1        3.212   1.183  -0.131  0.00  0.00    -0.430 OA
ENDROOT
BRANCH   3   9
ATOM      9  C   LIG    1        3.082  -2.422   0.282  0.00  0.00    +0.050 A 
ATOM     10  C   LIG    1        2.142  -2.749   1.274  0.00  0.00    +0.044 A 
ATOM     11  C   LIG    1        1.862  -4.082   1.600  0.00  0.00    +0.044 A 
ATOM     12 CL   LIG    1        0.715  -4.434   2.835  0.00  0.00    -0.083 Cl
ATOM     13  C   LIG    1        2.501  -5.124   0.945  0.00  0.00    +0.040 A 
ATOM     14  C   LIG    1        3.428  -4.821  -0.041  0.00  0.00    +0.044 A 
ATOM     15 CL   LIG    1        4.224  -6.099  -0.877  0.00  0.00    -0.083 Cl
ATOM     16  C   LIG    1        3.720  -3.492  -0.370  0.00  0.00    +0.044 A 
ENDBRANCH   3   9
BRANCH   6  17
ATOM     17  C   LIG    1        5.544   1.615  -0.474  0.00  0.00    +0.022 C 
ATOM     18  C   LIG    1        6.017   1.632   0.782  0.00  0.00    +0.008 C 
ENDBRANCH   6  17
TORSDOF 2
