MODEL 1
REMARK VINA RESULT:      -8.4      0.000      0.000
REMARK  Name = 
REMARK                            x       y       z     vdW  Elec       q    Type
REMARK                         _______ _______ _______ _____ _____    ______ ____
ROOT
ATOM      1  C   LIG    1       -7.125  -4.966  12.607  0.00  0.00    +0.015 C 
ATOM      2  C   LIG    1       -7.891  -6.317  12.539  0.00  0.00    +0.021 C 
ATOM      3  C   LIG    1       -6.185  -4.994  11.369  0.00  0.00    +0.021 C 
ENDROOT
BRANCH   1   7
ATOM      4  C   LIG    1       -4.560  -4.432  16.098  0.00  0.00    +0.117 A 
ATOM      5  C   LIG    1       -5.937  -4.365  16.251  0.00  0.00    +0.046 A 
ATOM      6  C   LIG    1       -6.777  -4.554  15.148  0.00  0.00    +0.008 A 
ATOM      7  C   LIG    1       -6.246  -4.811  13.872  0.00  0.00    -0.037 A 
ATOM      8  C   LIG    1       -4.841  -4.882  13.755  0.00  0.00    +0.008 A 
ATOM      9  C   LIG    1       -4.001  -4.695  14.856  0.00  0.00    +0.046 A 
BRANCH   4  10
ATOM     10  O   LIG    1       -3.781  -4.221  17.197  0.00  0.00    -0.507 OA
ATOM     11  H   LIG    1       -4.045  -4.854  17.884  0.00  0.00    +0.292 HD
ENDBRANCH   4  10
ENDBRANCH   1   7
BRANCH   1  12
ATOM     12  C   LIG    1       -8.156  -3.809  12.571  0.00  0.00    -0.037 A 
ATOM     13  C   LIG    1       -9.511  -4.063  12.872  0.00  0.00    +0.008 A 
ATOM     14  C   LIG    1      -10.452  -3.033  12.928  0.00  0.00    +0.046 A 
ATOM     15  C   LIG    1      -10.050  -1.726  12.706  0.00  0.00    +0.117 A 
ATOM     16  C   LIG    1       -8.726  -1.435  12.407  0.00  0.00    +0.046 A 
ATOM     17  C   LIG    1       -7.788  -2.471  12.335  0.00  0.00    +0.008 A 
BRANCH  15  18
ATOM     18  O   LIG    1      -10.991  -0.744  12.808  0.00  0.00    -0.507 OA
ATOM     19  H   LIG    1      -11.488  -0.877  13.630  0.00  0.00    +0.292 HD
ENDBRANCH  15  18
ENDBRANCH   1  12
TORSDOF 4
ENDMDL
MODEL 2
REMARK VINA RESULT:      -8.4      0.072      5.539
REMARK  Name = 
REMARK                            x       y       z     vdW  Elec       q    Type
REMARK                         _______ _______ _______ _____ _____    ______ ____
ROOT
ATOM      1  C   LIG    1       -7.137  -4.972  12.621  0.00  0.00    +0.015 C 
ATOM      2  C   LIG    1       -6.226  -5.054  11.364  0.00  0.00    +0.021 C 
ATOM      3  C   LIG    1       -7.955  -6.293  12.590  0.00  0.00    +0.021 C 
ENDROOT
BRANCH   1   7
ATOM      4  C   LIG    1      -10.011  -1.688  12.667  0.00  0.00    +0.117 A 
ATOM      5  C   LIG    1       -8.677  -1.418  12.400  0.00  0.00    +0.046 A 
ATOM      6  C   LIG    1       -7.744  -2.460  12.361  0.00  0.00    +0.008 A 
ATOM      7  C   LIG    1       -8.136  -3.790  12.591  0.00  0.00    -0.037 A 
ATOM      8  C   LIG    1       -9.503  -4.029  12.850  0.00  0.00    +0.008 A 
ATOM      9  C   LIG    1      -10.437  -2.989  12.888  0.00  0.00    +0.046 A 
BRANCH   4  10
ATOM     10  O   LIG    1      -10.880  -0.639  12.715  0.00  0.00    -0.507 OA
ATOM     11  H   LIG    1      -11.433  -0.663  11.917  0.00  0.00    +0.292 HD
ENDBRANCH   4  10
ENDBRANCH   1   7
BRANCH   1  12
ATOM     12  C   LIG    1       -6.238  -4.834  13.877  0.00  0.00    -0.037 A 
ATOM     13  C   LIG    1       -4.833  -4.844  13.742  0.00  0.00    +0.008 A 
ATOM     14  C   LIG    1       -3.993  -4.642  14.838  0.00  0.00    +0.046 A 
ATOM     15  C   LIG    1       -4.543  -4.404  16.088  0.00  0.00    +0.117 A 
ATOM     16  C   LIG    1       -5.920  -4.385  16.262  0.00  0.00    +0.046 A 
ATOM     17  C   LIG    1       -6.760  -4.606  15.164  0.00  0.00    +0.008 A 
BRANCH  15  18
ATOM     18  O   LIG    1       -3.690  -4.172  17.126  0.00  0.00    -0.507 OA
ATOM     19  H   LIG    1       -4.075  -4.553  17.931  0.00  0.00    +0.292 HD
ENDBRANCH  15  18
ENDBRANCH   1  12
TORSDOF 4
ENDMDL
MODEL 3
REMARK VINA RESULT:      -8.1      2.512      4.320
REMARK  Name = 
REMARK                            x       y       z     vdW  Elec       q    Type
REMARK                         _______ _______ _______ _____ _____    ______ ____
ROOT
ATOM      1  C   LIG    1       -7.576  -4.166  13.050  0.00  0.00    +0.015 C 
ATOM      2  C   LIG    1       -7.207  -2.867  12.278  0.00  0.00    +0.021 C 
ATOM      3  C   LIG    1       -9.074  -3.979  13.423  0.00  0.00    +0.021 C 
ENDROOT
BRANCH   1   7
ATOM      4  C   LIG    1       -5.416  -4.826  16.784  0.00  0.00    +0.117 A 
ATOM      5  C   LIG    1       -4.702  -4.688  15.604  0.00  0.00    +0.046 A 
ATOM      6  C   LIG    1       -5.375  -4.455  14.399  0.00  0.00    +0.008 A 
ATOM      7  C   LIG    1       -6.778  -4.359  14.362  0.00  0.00    -0.037 A 
ATOM      8  C   LIG    1       -7.471  -4.495  15.584  0.00  0.00    +0.008 A 
ATOM      9  C   LIG    1       -6.799  -4.726  16.788  0.00  0.00    +0.046 A 
BRANCH   4  10
ATOM     10  O   LIG    1       -4.719  -5.071  17.930  0.00  0.00    -0.507 OA
ATOM     11  H   LIG    1       -4.870  -5.995  18.188  0.00  0.00    +0.292 HD
ENDBRANCH   4  10
ENDBRANCH   1   7
BRANCH   1  12
ATOM     12  C   LIG    1       -7.320  -5.382  12.124  0.00  0.00    -0.037 A 
ATOM     13  C   LIG    1       -6.397  -5.276  11.062  0.00  0.00    +0.008 A 
ATOM     14  C   LIG    1       -6.081  -6.373  10.258  0.00  0.00    +0.046 A 
ATOM     15  C   LIG    1       -6.664  -7.603  10.517  0.00  0.00    +0.117 A 
ATOM     16  C   LIG    1       -7.576  -7.748  11.554  0.00  0.00    +0.046 A 
ATOM     17  C   LIG    1       -7.904  -6.643  12.347  0.00  0.00    +0.008 A 
BRANCH  15  18
ATOM     18  O   LIG    1       -6.300  -8.659   9.735  0.00  0.00    -0.507 OA
ATOM     19  H   LIG    1       -6.921  -9.388   9.892  0.00  0.00    +0.292 HD
ENDBRANCH  15  18
ENDBRANCH   1  12
TORSDOF 4
ENDMDL
MODEL 4
REMARK VINA RESULT:      -8.1      2.500      5.225
REMARK  Name = 
REMARK                            x       y       z     vdW  Elec       q    Type
REMARK                         _______ _______ _______ _____ _____    ______ ____
ROOT
ATOM      1  C   LIG    1       -7.601  -4.103  13.070  0.00  0.00    +0.015 C 
ATOM      2  C   LIG    1       -9.101  -3.907  13.426  0.00  0.00    +0.021 C 
ATOM      3  C   LIG    1       -7.221  -2.818  12.281  0.00  0.00    +0.021 C 
ENDROOT
BRANCH   1   7
ATOM      4  C   LIG    1       -6.694  -7.512  10.500  0.00  0.00    +0.117 A 
ATOM      5  C   LIG    1       -7.583  -7.673  11.552  0.00  0.00    +0.046 A 
ATOM      6  C   LIG    1       -7.903  -6.587  12.375  0.00  0.00    +0.008 A 
ATOM      7  C   LIG    1       -7.332  -5.322  12.154  0.00  0.00    -0.037 A 
ATOM      8  C   LIG    1       -6.439  -5.192  11.068  0.00  0.00    +0.008 A 
ATOM      9  C   LIG    1       -6.120  -6.276  10.245  0.00  0.00    +0.046 A 
BRANCH   4  10
ATOM     10  O   LIG    1       -6.398  -8.603   9.738  0.00  0.00    -0.507 OA
ATOM     11  H   LIG    1       -5.506  -8.906   9.971  0.00  0.00    +0.292 HD
ENDBRANCH   4  10
ENDBRANCH   1   7
BRANCH   1  12
ATOM     12  C   LIG    1       -6.797  -4.278  14.384  0.00  0.00    -0.037 A 
ATOM     13  C   LIG    1       -7.479  -4.478  15.604  0.00  0.00    +0.008 A 
ATOM     14  C   LIG    1       -6.789  -4.720  16.793  0.00  0.00    +0.046 A 
ATOM     15  C   LIG    1       -5.405  -4.789  16.781  0.00  0.00    +0.117 A 
ATOM     16  C   LIG    1       -4.699  -4.599  15.601  0.00  0.00    +0.046 A 
ATOM     17  C   LIG    1       -5.392  -4.339  14.413  0.00  0.00    +0.008 A 
BRANCH  15  18
ATOM     18  O   LIG    1       -4.770  -5.066  17.955  0.00  0.00    -0.507 OA
ATOM     19  H   LIG    1       -5.439  -5.259  18.630  0.00  0.00    +0.292 HD
ENDBRANCH  15  18
ENDBRANCH   1  12
TORSDOF 4
ENDMDL
MODEL 5
REMARK VINA RESULT:      -8.0      1.837      5.542
REMARK  Name = 
REMARK                            x       y       z     vdW  Elec       q    Type
REMARK                         _______ _______ _______ _____ _____    ______ ____
ROOT
ATOM      1  C   LIG    1       -6.940  -5.611  12.265  0.00  0.00    +0.015 C 
ATOM      2  C   LIG    1       -6.155  -6.786  11.616  0.00  0.00    +0.021 C 
ATOM      3  C   LIG    1       -8.292  -6.244  12.699  0.00  0.00    +0.021 C 
ENDROOT
BRANCH   1   7
ATOM      4  C   LIG    1       -7.873  -2.443   9.411  0.00  0.00    +0.117 A 
ATOM      5  C   LIG    1       -8.185  -2.263  10.751  0.00  0.00    +0.046 A 
ATOM      6  C   LIG    1       -7.875  -3.258  11.684  0.00  0.00    +0.008 A 
ATOM      7  C   LIG    1       -7.248  -4.452  11.286  0.00  0.00    -0.037 A 
ATOM      8  C   LIG    1       -6.936  -4.596   9.917  0.00  0.00    +0.008 A 
ATOM      9  C   LIG    1       -7.243  -3.602   8.984  0.00  0.00    +0.046 A 
BRANCH   4  10
ATOM     10  O   LIG    1       -8.211  -1.454   8.536  0.00  0.00    -0.507 OA
ATOM     11  H   LIG    1       -7.553  -0.744   8.606  0.00  0.00    +0.292 HD
ENDBRANCH   4  10
ENDBRANCH   1   7
BRANCH   1  12
ATOM     12  C   LIG    1       -6.111  -5.056  13.452  0.00  0.00    -0.037 A 
ATOM     13  C   LIG    1       -6.759  -4.674  14.645  0.00  0.00    +0.008 A 
ATOM     14  C   LIG    1       -6.039  -4.246  15.762  0.00  0.00    +0.046 A 
ATOM     15  C   LIG    1       -4.655  -4.215  15.714  0.00  0.00    +0.117 A 
ATOM     16  C   LIG    1       -3.980  -4.584  14.558  0.00  0.00    +0.046 A 
ATOM     17  C   LIG    1       -4.705  -4.995  13.434  0.00  0.00    +0.008 A 
BRANCH  15  18
ATOM     18  O   LIG    1       -3.985  -3.829  16.837  0.00  0.00    -0.507 OA
ATOM     19  H   LIG    1       -4.491  -4.120  17.612  0.00  0.00    +0.292 HD
ENDBRANCH  15  18
ENDBRANCH   1  12
TORSDOF 4
ENDMDL
MODEL 6
REMARK VINA RESULT:      -8.0      2.763      5.580
REMARK  Name = 
REMARK                            x       y       z     vdW  Elec       q    Type
REMARK                         _______ _______ _______ _____ _____    ______ ____
ROOT
ATOM      1  C   LIG    1       -5.862  -6.158  11.530  0.00  0.00    +0.015 C 
ATOM      2  C   LIG    1       -4.339  -5.895  11.357  0.00  0.00    +0.021 C 
ATOM      3  C   LIG    1       -5.989  -7.708  11.509  0.00  0.00    +0.021 C 
ENDROOT
BRANCH   1   7
ATOM      4  C   LIG    1       -8.414  -4.650   8.327  0.00  0.00    +0.117 A 
ATOM      5  C   LIG    1       -7.692  -3.752   9.098  0.00  0.00    +0.046 A 
ATOM      6  C   LIG    1       -6.852  -4.217  10.117  0.00  0.00    +0.008 A 
ATOM      7  C   LIG    1       -6.726  -5.593  10.377  0.00  0.00    -0.037 A 
ATOM      8  C   LIG    1       -7.468  -6.478   9.565  0.00  0.00    +0.008 A 
ATOM      9  C   LIG    1       -8.306  -6.015   8.547  0.00  0.00    +0.046 A 
BRANCH   4  10
ATOM     10  O   LIG    1       -9.234  -4.149   7.359  0.00  0.00    -0.507 OA
ATOM     11  H   LIG    1      -10.008  -3.753   7.790  0.00  0.00    +0.292 HD
ENDBRANCH   4  10
ENDBRANCH   1   7
BRANCH   1  12
ATOM     12  C   LIG    1       -6.327  -5.520  12.863  0.00  0.00    -0.037 A 
ATOM     13  C   LIG    1       -7.684  -5.599  13.246  0.00  0.00    +0.008 A 
ATOM     14  C   LIG    1       -8.124  -5.107  14.476  0.00  0.00    +0.046 A 
ATOM     15  C   LIG    1       -7.213  -4.548  15.356  0.00  0.00    +0.117 A 
ATOM     16  C   LIG    1       -5.870  -4.453  15.017  0.00  0.00    +0.046 A 
ATOM     17  C   LIG    1       -5.433  -4.931  13.777  0.00  0.00    +0.008 A 
BRANCH  15  18
ATOM     18  O   LIG    1       -7.676  -4.115  16.564  0.00  0.00    -0.507 OA
ATOM     19  H   LIG    1       -7.594  -3.149  16.596  0.00  0.00    +0.292 HD
ENDBRANCH  15  18
ENDBRANCH   1  12
TORSDOF 4
ENDMDL
MODEL 7
REMARK VINA RESULT:      -7.9      2.441      3.738
REMARK  Name = 
REMARK                            x       y       z     vdW  Elec       q    Type
REMARK                         _______ _______ _______ _____ _____    ______ ____
ROOT
ATOM      1  C   LIG    1       -7.643  -3.873  13.164  0.00  0.00    +0.015 C 
ATOM      2  C   LIG    1       -7.289  -2.475  12.584  0.00  0.00    +0.021 C 
ATOM      3  C   LIG    1       -9.144  -3.759  13.554  0.00  0.00    +0.021 C 
ENDROOT
BRANCH   1   7
ATOM      4  C   LIG    1       -5.298  -4.790  16.730  0.00  0.00    +0.117 A 
ATOM      5  C   LIG    1       -6.679  -4.711  16.828  0.00  0.00    +0.046 A 
ATOM      6  C   LIG    1       -7.450  -4.439  15.692  0.00  0.00    +0.008 A 
ATOM      7  C   LIG    1       -6.844  -4.239  14.439  0.00  0.00    -0.037 A 
ATOM      8  C   LIG    1       -5.438  -4.337  14.375  0.00  0.00    +0.008 A 
ATOM      9  C   LIG    1       -4.667  -4.610  15.508  0.00  0.00    +0.046 A 
BRANCH   4  10
ATOM     10  O   LIG    1       -4.588  -5.038  17.866  0.00  0.00    -0.507 OA
ATOM     11  H   LIG    1       -3.684  -4.707  17.740  0.00  0.00    +0.292 HD
ENDBRANCH   4  10
ENDBRANCH   1   7
BRANCH   1  12
ATOM     12  C   LIG    1       -7.369  -4.945  12.078  0.00  0.00    -0.037 A 
ATOM     13  C   LIG    1       -7.820  -6.269  12.266  0.00  0.00    +0.008 A 
ATOM     14  C   LIG    1       -7.662  -7.240  11.276  0.00  0.00    +0.046 A 
ATOM     15  C   LIG    1       -7.071  -6.900  10.070  0.00  0.00    +0.117 A 
ATOM     16  C   LIG    1       -6.616  -5.608   9.846  0.00  0.00    +0.046 A 
ATOM     17  C   LIG    1       -6.759  -4.640  10.847  0.00  0.00    +0.008 A 
BRANCH  15  18
ATOM     18  O   LIG    1       -6.971  -7.866   9.113  0.00  0.00    -0.507 OA
ATOM     19  H   LIG    1       -6.389  -7.543   8.408  0.00  0.00    +0.292 HD
ENDBRANCH  15  18
ENDBRANCH   1  12
TORSDOF 4
ENDMDL
MODEL 8
REMARK VINA RESULT:      -7.7      2.652      3.585
REMARK  Name = 
REMARK                            x       y       z     vdW  Elec       q    Type
REMARK                         _______ _______ _______ _____ _____    ______ ____
ROOT
ATOM      1  C   LIG    1       -8.553  -3.158  12.411  0.00  0.00    +0.015 C 
ATOM      2  C   LIG    1       -8.313  -1.672  12.022  0.00  0.00    +0.021 C 
ATOM      3  C   LIG    1       -9.950  -3.155  13.095  0.00  0.00    +0.021 C 
ENDROOT
BRANCH   1   7
ATOM      4  C   LIG    1       -5.577  -4.586  15.267  0.00  0.00    +0.117 A 
ATOM      5  C   LIG    1       -6.924  -4.720  15.567  0.00  0.00    +0.046 A 
ATOM      6  C   LIG    1       -7.894  -4.287  14.656  0.00  0.00    +0.008 A 
ATOM      7  C   LIG    1       -7.525  -3.710  13.428  0.00  0.00    -0.037 A 
ATOM      8  C   LIG    1       -6.145  -3.599  13.151  0.00  0.00    +0.008 A 
ATOM      9  C   LIG    1       -5.176  -4.033  14.060  0.00  0.00    +0.046 A 
BRANCH   4  10
ATOM     10  O   LIG    1       -4.669  -5.003  16.193  0.00  0.00    -0.507 OA
ATOM     11  H   LIG    1       -3.834  -4.533  16.037  0.00  0.00    +0.292 HD
ENDBRANCH   4  10
ENDBRANCH   1   7
BRANCH   1  12
ATOM     12  C   LIG    1       -8.500  -4.022  11.126  0.00  0.00    -0.037 A 
ATOM     13  C   LIG    1       -8.737  -5.411  11.201  0.00  0.00    +0.008 A 
ATOM     14  C   LIG    1       -8.777  -6.208  10.055  0.00  0.00    +0.046 A 
ATOM     15  C   LIG    1       -8.603  -5.626   8.810  0.00  0.00    +0.117 A 
ATOM     16  C   LIG    1       -8.368  -4.263   8.694  0.00  0.00    +0.046 A 
ATOM     17  C   LIG    1       -8.311  -3.469   9.845  0.00  0.00    +0.008 A 
BRANCH  15  18
ATOM     18  O   LIG    1       -8.687  -6.431   7.712  0.00  0.00    -0.507 OA
ATOM     19  H   LIG    1       -7.796  -6.552   7.349  0.00  0.00    +0.292 HD
ENDBRANCH  15  18
ENDBRANCH   1  12
TORSDOF 4
ENDMDL
MODEL 9
REMARK VINA RESULT:      -7.6      2.694      5.831
REMARK  Name = 
REMARK                            x       y       z     vdW  Elec       q    Type
REMARK                         _______ _______ _______ _____ _____    ______ ____
ROOT
ATOM      1  C   LIG    1       -8.637  -3.117  12.349  0.00  0.00    +0.015 C 
ATOM      2  C   LIG    1       -9.999  -2.951  13.081  0.00  0.00    +0.021 C 
ATOM      3  C   LIG    1       -8.280  -1.681  11.871  0.00  0.00    +0.021 C 
ENDROOT
BRANCH   1   7
ATOM      4  C   LIG    1       -8.698  -5.646   8.792  0.00  0.00    +0.117 A 
ATOM      5  C   LIG    1       -9.013  -6.200  10.024  0.00  0.00    +0.046 A 
ATOM      6  C   LIG    1       -9.018  -5.402  11.173  0.00  0.00    +0.008 A 
ATOM      7  C   LIG    1       -8.707  -4.032  11.102  0.00  0.00    -0.037 A 
ATOM      8  C   LIG    1       -8.402  -3.500   9.831  0.00  0.00    +0.008 A 
ATOM      9  C   LIG    1       -8.397  -4.297   8.682  0.00  0.00    +0.046 A 
BRANCH   4  10
ATOM     10  O   LIG    1       -8.686  -6.467   7.704  0.00  0.00    -0.507 OA
ATOM     11  H   LIG    1       -8.145  -7.245   7.914  0.00  0.00    +0.292 HD
ENDBRANCH   4  10
ENDBRANCH   1   7
BRANCH   1  12
ATOM     12  C   LIG    1       -7.607  -3.707  13.346  0.00  0.00    -0.037 A 
ATOM     13  C   LIG    1       -6.225  -3.576  13.091  0.00  0.00    +0.008 A 
ATOM     14  C   LIG    1       -5.269  -4.023  14.005  0.00  0.00    +0.046 A 
ATOM     15  C   LIG    1       -5.678  -4.590  15.201  0.00  0.00    +0.117 A 
ATOM     16  C   LIG    1       -7.028  -4.736  15.489  0.00  0.00    +0.046 A 
ATOM     17  C   LIG    1       -7.984  -4.303  14.564  0.00  0.00    +0.008 A 
BRANCH  15  18
ATOM     18  O   LIG    1       -4.715  -4.979  16.085  0.00  0.00    -0.507 OA
ATOM     19  H   LIG    1       -4.430  -5.878  15.855  0.00  0.00    +0.292 HD
ENDBRANCH  15  18
ENDBRANCH   1  12
TORSDOF 4
ENDMDL
