MODEL 1
REMARK VINA RESULT:      -8.5      0.000      0.000
REMARK  Name = 
REMARK                            x       y       z     vdW  Elec       q    Type
REMARK                         _______ _______ _______ _____ _____    ______ ____
ROOT
ATOM      1  C   LIG    1       67.590  46.571  95.836  0.00  0.00    +0.015 C 
ATOM      2  C   LIG    1       66.044  46.408  95.863  0.00  0.00    +0.021 C 
ATOM      3  C   LIG    1       68.132  45.116  95.919  0.00  0.00    +0.021 C 
ENDROOT
BRANCH   1   7
ATOM      4  C   LIG    1       69.322  48.752  99.196  0.00  0.00    +0.117 A 
ATOM      5  C   LIG    1       68.405  49.390  98.374  0.00  0.00    +0.046 A 
ATOM      6  C   LIG    1       67.822  48.701  97.304  0.00  0.00    +0.008 A 
ATOM      7  C   LIG    1       68.155  47.360  97.041  0.00  0.00    -0.037 A 
ATOM      8  C   LIG    1       69.085  46.741  97.905  0.00  0.00    +0.008 A 
ATOM      9  C   LIG    1       69.665  47.427  98.975  0.00  0.00    +0.046 A 
BRANCH   4  10
ATOM     10  O   LIG    1       69.878  49.469 100.214  0.00  0.00    -0.507 OA
ATOM     11  H   LIG    1       69.208  50.083 100.556  0.00  0.00    +0.292 HD
ENDBRANCH   4  10
ENDBRANCH   1   7
BRANCH   1  12
ATOM     12  C   LIG    1       67.988  47.302  94.528  0.00  0.00    -0.037 A 
ATOM     13  C   LIG    1       66.991  47.701  93.613  0.00  0.00    +0.008 A 
ATOM     14  C   LIG    1       67.305  48.432  92.465  0.00  0.00    +0.046 A 
ATOM     15  C   LIG    1       68.619  48.797  92.223  0.00  0.00    +0.117 A 
ATOM     16  C   LIG    1       69.629  48.425  93.101  0.00  0.00    +0.046 A 
ATOM     17  C   LIG    1       69.314  47.677  94.241  0.00  0.00    +0.008 A 
BRANCH  15  18
ATOM     18  O   LIG    1       68.880  49.544  91.113  0.00  0.00    -0.507 OA
ATOM     19  H   LIG    1       68.493  49.097  90.343  0.00  0.00    +0.292 HD
ENDBRANCH  15  18
ENDBRANCH   1  12
TORSDOF 4
ENDMDL
MODEL 2
REMARK VINA RESULT:      -8.5      0.039      5.539
REMARK  Name = 
REMARK                            x       y       z     vdW  Elec       q    Type
REMARK                         _______ _______ _______ _____ _____    ______ ____
ROOT
ATOM      1  C   LIG    1       67.596  46.552  95.846  0.00  0.00    +0.015 C 
ATOM      2  C   LIG    1       68.146  45.099  95.910  0.00  0.00    +0.021 C 
ATOM      3  C   LIG    1       66.051  46.379  95.859  0.00  0.00    +0.021 C 
ENDROOT
BRANCH   1   7
ATOM      4  C   LIG    1       68.572  48.780  92.222  0.00  0.00    +0.117 A 
ATOM      5  C   LIG    1       69.589  48.429  93.097  0.00  0.00    +0.046 A 
ATOM      6  C   LIG    1       69.299  47.697  94.254  0.00  0.00    +0.008 A 
ATOM      7  C   LIG    1       67.982  47.307  94.551  0.00  0.00    -0.037 A 
ATOM      8  C   LIG    1       66.973  47.673  93.633  0.00  0.00    +0.008 A 
ATOM      9  C   LIG    1       67.262  48.403  92.476  0.00  0.00    +0.046 A 
BRANCH   4  10
ATOM     10  O   LIG    1       68.899  49.511  91.119  0.00  0.00    -0.507 OA
ATOM     11  H   LIG    1       69.602  50.134  91.362  0.00  0.00    +0.292 HD
ENDBRANCH   4  10
ENDBRANCH   1   7
BRANCH   1  12
ATOM     12  C   LIG    1       68.137  47.341  97.065  0.00  0.00    -0.037 A 
ATOM     13  C   LIG    1       69.106  46.756  97.909  0.00  0.00    +0.008 A 
ATOM     14  C   LIG    1       69.675  47.466  98.968  0.00  0.00    +0.046 A 
ATOM     15  C   LIG    1       69.303  48.782  99.189  0.00  0.00    +0.117 A 
ATOM     16  C   LIG    1       68.354  49.393  98.380  0.00  0.00    +0.046 A 
ATOM     17  C   LIG    1       67.772  48.674  97.330  0.00  0.00    +0.008 A 
BRANCH  15  18
ATOM     18  O   LIG    1       69.909  49.454 100.209  0.00  0.00    -0.507 OA
ATOM     19  H   LIG    1       69.332  49.419 100.987  0.00  0.00    +0.292 HD
ENDBRANCH  15  18
ENDBRANCH   1  12
TORSDOF 4
ENDMDL
MODEL 3
REMARK VINA RESULT:      -8.0      1.822      5.559
REMARK  Name = 
REMARK                            x       y       z     vdW  Elec       q    Type
REMARK                         _______ _______ _______ _____ _____    ______ ____
ROOT
ATOM      1  C   LIG    1       67.543  46.236  96.195  0.00  0.00    +0.015 C 
ATOM      2  C   LIG    1       67.894  44.789  95.748  0.00  0.00    +0.021 C 
ATOM      3  C   LIG    1       66.054  46.415  95.788  0.00  0.00    +0.021 C 
ENDROOT
BRANCH   1   7
ATOM      4  C   LIG    1       69.779  49.421  94.219  0.00  0.00    +0.117 A 
ATOM      5  C   LIG    1       70.464  48.475  94.967  0.00  0.00    +0.046 A 
ATOM      6  C   LIG    1       69.767  47.434  95.591  0.00  0.00    +0.008 A 
ATOM      7  C   LIG    1       68.370  47.329  95.475  0.00  0.00    -0.037 A 
ATOM      8  C   LIG    1       67.707  48.304  94.698  0.00  0.00    +0.008 A 
ATOM      9  C   LIG    1       68.402  49.343  94.073  0.00  0.00    +0.046 A 
BRANCH   4  10
ATOM     10  O   LIG    1       70.497  50.428  93.646  0.00  0.00    -0.507 OA
ATOM     11  H   LIG    1       71.157  50.034  93.053  0.00  0.00    +0.292 HD
ENDBRANCH   4  10
ENDBRANCH   1   7
BRANCH   1  12
ATOM     12  C   LIG    1       67.782  46.354  97.723  0.00  0.00    -0.037 A 
ATOM     13  C   LIG    1       68.396  45.294  98.423  0.00  0.00    +0.008 A 
ATOM     14  C   LIG    1       68.699  45.397  99.782  0.00  0.00    +0.046 A 
ATOM     15  C   LIG    1       68.415  46.570 100.461  0.00  0.00    +0.117 A 
ATOM     16  C   LIG    1       67.812  47.636  99.807  0.00  0.00    +0.046 A 
ATOM     17  C   LIG    1       67.493  47.525  98.449  0.00  0.00    +0.008 A 
BRANCH  15  18
ATOM     18  O   LIG    1       68.762  46.646 101.777  0.00  0.00    -0.507 OA
ATOM     19  H   LIG    1       68.518  47.524 102.110  0.00  0.00    +0.292 HD
ENDBRANCH  15  18
ENDBRANCH   1  12
TORSDOF 4
ENDMDL
MODEL 4
REMARK VINA RESULT:      -7.8      1.764      2.259
REMARK  Name = 
REMARK                            x       y       z     vdW  Elec       q    Type
REMARK                         _______ _______ _______ _____ _____    ______ ____
ROOT
ATOM      1  C   LIG    1       67.474  46.308  96.170  0.00  0.00    +0.015 C 
ATOM      2  C   LIG    1       65.976  46.624  95.894  0.00  0.00    +0.021 C 
ATOM      3  C   LIG    1       67.653  44.841  95.687  0.00  0.00    +0.021 C 
ENDROOT
BRANCH   1   7
ATOM      4  C   LIG    1       68.419  46.534 100.425  0.00  0.00    +0.117 A 
ATOM      5  C   LIG    1       68.701  45.368  99.728  0.00  0.00    +0.046 A 
ATOM      6  C   LIG    1       68.424  45.283  98.359  0.00  0.00    +0.008 A 
ATOM      7  C   LIG    1       67.858  46.369  97.668  0.00  0.00    -0.037 A 
ATOM      8  C   LIG    1       67.594  47.543  98.407  0.00  0.00    +0.008 A 
ATOM      9  C   LIG    1       67.872  47.629  99.774  0.00  0.00    +0.046 A 
BRANCH   4  10
ATOM     10  O   LIG    1       68.688  46.563 101.761  0.00  0.00    -0.507 OA
ATOM     11  H   LIG    1       67.845  46.543 102.242  0.00  0.00    +0.292 HD
ENDBRANCH   4  10
ENDBRANCH   1   7
BRANCH   1  12
ATOM     12  C   LIG    1       68.346  47.324  95.388  0.00  0.00    -0.037 A 
ATOM     13  C   LIG    1       67.733  48.294  94.568  0.00  0.00    +0.008 A 
ATOM     14  C   LIG    1       68.481  49.275  93.913  0.00  0.00    +0.046 A 
ATOM     15  C   LIG    1       69.855  49.317  94.086  0.00  0.00    +0.117 A 
ATOM     16  C   LIG    1       70.496  48.380  94.886  0.00  0.00    +0.046 A 
ATOM     17  C   LIG    1       69.746  47.388  95.527  0.00  0.00    +0.008 A 
BRANCH  15  18
ATOM     18  O   LIG    1       70.546  50.313  93.462  0.00  0.00    -0.507 OA
ATOM     19  H   LIG    1       70.710  51.023  94.102  0.00  0.00    +0.292 HD
ENDBRANCH  15  18
ENDBRANCH   1  12
TORSDOF 4
ENDMDL
MODEL 5
REMARK VINA RESULT:      -7.3      1.962      5.750
REMARK  Name = 
REMARK                            x       y       z     vdW  Elec       q    Type
REMARK                         _______ _______ _______ _____ _____    ______ ____
ROOT
ATOM      1  C   LIG    1       67.743  49.310  96.153  0.00  0.00    +0.015 C 
ATOM      2  C   LIG    1       66.288  49.847  96.044  0.00  0.00    +0.021 C 
ATOM      3  C   LIG    1       68.507  50.422  96.925  0.00  0.00    +0.021 C 
ENDROOT
BRANCH   1   7
ATOM      4  C   LIG    1       69.581  48.804  92.227  0.00  0.00    +0.117 A 
ATOM      5  C   LIG    1       70.275  49.483  93.218  0.00  0.00    +0.046 A 
ATOM      6  C   LIG    1       69.711  49.638  94.489  0.00  0.00    +0.008 A 
ATOM      7  C   LIG    1       68.440  49.114  94.784  0.00  0.00    -0.037 A 
ATOM      8  C   LIG    1       67.768  48.420  93.755  0.00  0.00    +0.008 A 
ATOM      9  C   LIG    1       68.330  48.264  92.485  0.00  0.00    +0.046 A 
BRANCH   4  10
ATOM     10  O   LIG    1       70.161  48.696  90.998  0.00  0.00    -0.507 OA
ATOM     11  H   LIG    1       71.014  48.243  91.101  0.00  0.00    +0.292 HD
ENDBRANCH   4  10
ENDBRANCH   1   7
BRANCH   1  12
ATOM     12  C   LIG    1       67.715  47.951  96.899  0.00  0.00    -0.037 A 
ATOM     13  C   LIG    1       68.869  47.492  97.570  0.00  0.00    +0.008 A 
ATOM     14  C   LIG    1       68.857  46.314  98.318  0.00  0.00    +0.046 A 
ATOM     15  C   LIG    1       67.685  45.584  98.429  0.00  0.00    +0.117 A 
ATOM     16  C   LIG    1       66.529  46.003  97.784  0.00  0.00    +0.046 A 
ATOM     17  C   LIG    1       66.548  47.175  97.020  0.00  0.00    +0.008 A 
BRANCH  15  18
ATOM     18  O   LIG    1       67.704  44.460  99.201  0.00  0.00    -0.507 OA
ATOM     19  H   LIG    1       67.233  43.755  98.730  0.00  0.00    +0.292 HD
ENDBRANCH  15  18
ENDBRANCH   1  12
TORSDOF 4
ENDMDL
MODEL 6
REMARK VINA RESULT:      -7.2      1.968      2.864
REMARK  Name = 
REMARK                            x       y       z     vdW  Elec       q    Type
REMARK                         _______ _______ _______ _____ _____    ______ ____
ROOT
ATOM      1  C   LIG    1       67.835  49.335  96.262  0.00  0.00    +0.015 C 
ATOM      2  C   LIG    1       68.603  50.451  97.026  0.00  0.00    +0.021 C 
ATOM      3  C   LIG    1       66.384  49.881  96.142  0.00  0.00    +0.021 C 
ENDROOT
BRANCH   1   7
ATOM      4  C   LIG    1       67.735  45.600  98.518  0.00  0.00    +0.117 A 
ATOM      5  C   LIG    1       66.592  46.024  97.857  0.00  0.00    +0.046 A 
ATOM      6  C   LIG    1       66.610  47.208  97.111  0.00  0.00    +0.008 A 
ATOM      7  C   LIG    1       67.777  47.987  97.020  0.00  0.00    -0.037 A 
ATOM      8  C   LIG    1       68.924  47.520  97.697  0.00  0.00    +0.008 A 
ATOM      9  C   LIG    1       68.908  46.336  98.441  0.00  0.00    +0.046 A 
BRANCH   4  10
ATOM     10  O   LIG    1       67.665  44.451  99.248  0.00  0.00    -0.507 OA
ATOM     11  H   LIG    1       67.122  43.812  98.760  0.00  0.00    +0.292 HD
ENDBRANCH   4  10
ENDBRANCH   1   7
BRANCH   1  12
ATOM     12  C   LIG    1       68.523  49.109  94.891  0.00  0.00    -0.037 A 
ATOM     13  C   LIG    1       67.867  48.364  93.889  0.00  0.00    +0.008 A 
ATOM     14  C   LIG    1       68.420  48.208  92.616  0.00  0.00    +0.046 A 
ATOM     15  C   LIG    1       69.628  48.814  92.315  0.00  0.00    +0.117 A 
ATOM     16  C   LIG    1       70.304  49.556  93.274  0.00  0.00    +0.046 A 
ATOM     17  C   LIG    1       69.757  49.697  94.554  0.00  0.00    +0.008 A 
BRANCH  15  18
ATOM     18  O   LIG    1       70.116  48.671  91.050  0.00  0.00    -0.507 OA
ATOM     19  H   LIG    1       70.822  49.323  90.916  0.00  0.00    +0.292 HD
ENDBRANCH  15  18
ENDBRANCH   1  12
TORSDOF 4
ENDMDL
MODEL 7
REMARK VINA RESULT:      -7.0      1.288      5.602
REMARK  Name = 
REMARK                            x       y       z     vdW  Elec       q    Type
REMARK                         _______ _______ _______ _____ _____    ______ ____
ROOT
ATOM      1  C   LIG    1       66.899  48.687  95.556  0.00  0.00    +0.015 C 
ATOM      2  C   LIG    1       66.109  47.354  95.687  0.00  0.00    +0.021 C 
ATOM      3  C   LIG    1       65.799  49.767  95.356  0.00  0.00    +0.021 C 
ENDROOT
BRANCH   1   7
ATOM      4  C   LIG    1       69.658  48.731  92.175  0.00  0.00    +0.117 A 
ATOM      5  C   LIG    1       68.314  48.478  91.950  0.00  0.00    +0.046 A 
ATOM      6  C   LIG    1       67.410  48.479  93.018  0.00  0.00    +0.008 A 
ATOM      7  C   LIG    1       67.844  48.734  94.331  0.00  0.00    -0.037 A 
ATOM      8  C   LIG    1       69.217  48.998  94.521  0.00  0.00    +0.008 A 
ATOM      9  C   LIG    1       70.121  48.998  93.455  0.00  0.00    +0.046 A 
BRANCH   4  10
ATOM     10  O   LIG    1       70.505  48.699  91.107  0.00  0.00    -0.507 OA
ATOM     11  H   LIG    1       70.004  48.943  90.312  0.00  0.00    +0.292 HD
ENDBRANCH   4  10
ENDBRANCH   1   7
BRANCH   1  12
ATOM     12  C   LIG    1       67.738  48.894  96.843  0.00  0.00    -0.037 A 
ATOM     13  C   LIG    1       68.134  47.779  97.613  0.00  0.00    +0.008 A 
ATOM     14  C   LIG    1       68.957  47.921  98.731  0.00  0.00    +0.046 A 
ATOM     15  C   LIG    1       69.419  49.177  99.088  0.00  0.00    +0.117 A 
ATOM     16  C   LIG    1       69.053  50.298  98.356  0.00  0.00    +0.046 A 
ATOM     17  C   LIG    1       68.213  50.157  97.245  0.00  0.00    +0.008 A 
BRANCH  15  18
ATOM     18  O   LIG    1       70.252  49.269 100.163  0.00  0.00    -0.507 OA
ATOM     19  H   LIG    1       69.891  49.927 100.778  0.00  0.00    +0.292 HD
ENDBRANCH  15  18
ENDBRANCH   1  12
TORSDOF 4
ENDMDL
MODEL 8
REMARK VINA RESULT:      -7.0      1.504      2.352
REMARK  Name = 
REMARK                            x       y       z     vdW  Elec       q    Type
REMARK                         _______ _______ _______ _____ _____    ______ ____
ROOT
ATOM      1  C   LIG    1       66.996  48.841  95.589  0.00  0.00    +0.015 C 
ATOM      2  C   LIG    1       66.519  50.283  95.921  0.00  0.00    +0.021 C 
ATOM      3  C   LIG    1       65.681  48.043  95.365  0.00  0.00    +0.021 C 
ENDROOT
BRANCH   1   7
ATOM      4  C   LIG    1       69.267  46.841  98.735  0.00  0.00    +0.117 A 
ATOM      5  C   LIG    1       69.189  48.226  98.730  0.00  0.00    +0.046 A 
ATOM      6  C   LIG    1       68.449  48.885  97.742  0.00  0.00    +0.008 A 
ATOM      7  C   LIG    1       67.776  48.162  96.741  0.00  0.00    -0.037 A 
ATOM      8  C   LIG    1       67.869  46.754  96.783  0.00  0.00    +0.008 A 
ATOM      9  C   LIG    1       68.607  46.095  97.771  0.00  0.00    +0.046 A 
BRANCH   4  10
ATOM     10  O   LIG    1       70.016  46.244  99.705  0.00  0.00    -0.507 OA
ATOM     11  H   LIG    1       70.173  45.322  99.446  0.00  0.00    +0.292 HD
ENDBRANCH   4  10
ENDBRANCH   1   7
BRANCH   1  12
ATOM     12  C   LIG    1       67.905  48.896  94.334  0.00  0.00    -0.037 A 
ATOM     13  C   LIG    1       69.248  49.311  94.456  0.00  0.00    +0.008 A 
ATOM     14  C   LIG    1       70.117  49.297  93.363  0.00  0.00    +0.046 A 
ATOM     15  C   LIG    1       69.665  48.844  92.134  0.00  0.00    +0.117 A 
ATOM     16  C   LIG    1       68.351  48.426  91.975  0.00  0.00    +0.046 A 
ATOM     17  C   LIG    1       67.477  48.458  93.067  0.00  0.00    +0.008 A 
BRANCH  15  18
ATOM     18  O   LIG    1       70.555  48.808  91.101  0.00  0.00    -0.507 OA
ATOM     19  H   LIG    1       70.654  49.706  90.749  0.00  0.00    +0.292 HD
ENDBRANCH  15  18
ENDBRANCH   1  12
TORSDOF 4
ENDMDL
MODEL 9
REMARK VINA RESULT:      -6.8      2.601      3.796
REMARK  Name = 
REMARK                            x       y       z     vdW  Elec       q    Type
REMARK                         _______ _______ _______ _____ _____    ______ ____
ROOT
ATOM      1  C   LIG    1       68.096  49.163  96.213  0.00  0.00    +0.015 C 
ATOM      2  C   LIG    1       69.258  49.571  95.264  0.00  0.00    +0.021 C 
ATOM      3  C   LIG    1       66.963  50.179  95.893  0.00  0.00    +0.021 C 
ENDROOT
BRANCH   1   7
ATOM      4  C   LIG    1       69.014  49.394 100.474  0.00  0.00    +0.117 A 
ATOM      5  C   LIG    1       70.006  49.687  99.549  0.00  0.00    +0.046 A 
ATOM      6  C   LIG    1       69.726  49.639  98.179  0.00  0.00    +0.008 A 
ATOM      7  C   LIG    1       68.444  49.293  97.716  0.00  0.00    -0.037 A 
ATOM      8  C   LIG    1       67.457  49.011  98.685  0.00  0.00    +0.008 A 
ATOM      9  C   LIG    1       67.735  49.061 100.054  0.00  0.00    +0.046 A 
BRANCH   4  10
ATOM     10  O   LIG    1       69.339  49.435 101.797  0.00  0.00    -0.507 OA
ATOM     11  H   LIG    1       70.246  49.771 101.879  0.00  0.00    +0.292 HD
ENDBRANCH   4  10
ENDBRANCH   1   7
BRANCH   1  12
ATOM     12  C   LIG    1       67.705  47.693  95.916  0.00  0.00    -0.037 A 
ATOM     13  C   LIG    1       68.653  46.663  96.096  0.00  0.00    +0.008 A 
ATOM     14  C   LIG    1       68.314  45.320  95.916  0.00  0.00    +0.046 A 
ATOM     15  C   LIG    1       67.015  44.981  95.574  0.00  0.00    +0.117 A 
ATOM     16  C   LIG    1       66.054  45.966  95.389  0.00  0.00    +0.046 A 
ATOM     17  C   LIG    1       66.400  47.312  95.553  0.00  0.00    +0.008 A 
BRANCH  15  18
ATOM     18  O   LIG    1       66.714  43.658  95.446  0.00  0.00    -0.507 OA
ATOM     19  H   LIG    1       67.515  43.141  95.622  0.00  0.00    +0.292 HD
ENDBRANCH  15  18
ENDBRANCH   1  12
TORSDOF 4
ENDMDL
