MODEL 1
REMARK VINA RESULT:      -8.2      0.000      0.000
REMARK  Name = 
REMARK                            x       y       z     vdW  Elec       q    Type
REMARK                         _______ _______ _______ _____ _____    ______ ____
ROOT
ATOM      1  C   LIG    1        2.858  32.024   4.165  0.00  0.00    +0.015 C 
ATOM      2  C   LIG    1        4.076  32.812   4.723  0.00  0.00    +0.021 C 
ATOM      3  C   LIG    1        2.952  32.210   2.624  0.00  0.00    +0.021 C 
ENDROOT
BRANCH   1   7
ATOM      4  C   LIG    1       -0.927  33.675   5.579  0.00  0.00    +0.117 A 
ATOM      5  C   LIG    1       -0.666  33.648   4.217  0.00  0.00    +0.046 A 
ATOM      6  C   LIG    1        0.533  33.104   3.743  0.00  0.00    +0.008 A 
ATOM      7  C   LIG    1        1.490  32.580   4.630  0.00  0.00    -0.037 A 
ATOM      8  C   LIG    1        1.186  32.615   6.008  0.00  0.00    +0.008 A 
ATOM      9  C   LIG    1       -0.012  33.157   6.483  0.00  0.00    +0.046 A 
BRANCH   4  10
ATOM     10  O   LIG    1       -2.099  34.233   5.996  0.00  0.00    -0.507 OA
ATOM     11  H   LIG    1       -2.279  33.926   6.899  0.00  0.00    +0.292 HD
ENDBRANCH   4  10
ENDBRANCH   1   7
BRANCH   1  12
ATOM     12  C   LIG    1        2.976  30.545   4.615  0.00  0.00    -0.037 A 
ATOM     13  C   LIG    1        2.030  29.597   4.170  0.00  0.00    +0.008 A 
ATOM     14  C   LIG    1        2.150  28.243   4.489  0.00  0.00    +0.046 A 
ATOM     15  C   LIG    1        3.230  27.808   5.238  0.00  0.00    +0.117 A 
ATOM     16  C   LIG    1        4.183  28.710   5.694  0.00  0.00    +0.046 A 
ATOM     17  C   LIG    1        4.051  30.069   5.388  0.00  0.00    +0.008 A 
BRANCH  15  18
ATOM     18  O   LIG    1        3.333  26.473   5.496  0.00  0.00    -0.507 OA
ATOM     19  H   LIG    1        3.339  26.344   6.457  0.00  0.00    +0.292 HD
ENDBRANCH  15  18
ENDBRANCH   1  12
TORSDOF 4
ENDMDL
MODEL 2
REMARK VINA RESULT:      -8.2      0.091      5.590
REMARK  Name = 
REMARK                            x       y       z     vdW  Elec       q    Type
REMARK                         _______ _______ _______ _____ _____    ______ ____
ROOT
ATOM      1  C   LIG    1        2.857  32.032   4.170  0.00  0.00    +0.015 C 
ATOM      2  C   LIG    1        3.007  32.326   2.651  0.00  0.00    +0.021 C 
ATOM      3  C   LIG    1        4.051  32.779   4.827  0.00  0.00    +0.021 C 
ENDROOT
BRANCH   1   7
ATOM      4  C   LIG    1        3.226  27.839   5.324  0.00  0.00    +0.117 A 
ATOM      5  C   LIG    1        2.123  28.245   4.589  0.00  0.00    +0.046 A 
ATOM      6  C   LIG    1        1.996  29.581   4.191  0.00  0.00    +0.008 A 
ATOM      7  C   LIG    1        2.977  30.531   4.529  0.00  0.00    -0.037 A 
ATOM      8  C   LIG    1        4.091  30.080   5.269  0.00  0.00    +0.008 A 
ATOM      9  C   LIG    1        4.219  28.745   5.665  0.00  0.00    +0.046 A 
BRANCH   4  10
ATOM     10  O   LIG    1        3.297  26.532   5.706  0.00  0.00    -0.507 OA
ATOM     11  H   LIG    1        2.446  26.110   5.508  0.00  0.00    +0.292 HD
ENDBRANCH   4  10
ENDBRANCH   1   7
BRANCH   1  12
ATOM     12  C   LIG    1        1.473  32.550   4.641  0.00  0.00    -0.037 A 
ATOM     13  C   LIG    1        1.180  32.619   6.019  0.00  0.00    +0.008 A 
ATOM     14  C   LIG    1       -0.024  33.154   6.483  0.00  0.00    +0.046 A 
ATOM     15  C   LIG    1       -0.946  33.652   5.577  0.00  0.00    +0.117 A 
ATOM     16  C   LIG    1       -0.694  33.603   4.212  0.00  0.00    +0.046 A 
ATOM     17  C   LIG    1        0.506  33.050   3.750  0.00  0.00    +0.008 A 
BRANCH  15  18
ATOM     18  O   LIG    1       -2.092  34.202   6.070  0.00  0.00    -0.507 OA
ATOM     19  H   LIG    1       -2.771  34.172   5.378  0.00  0.00    +0.292 HD
ENDBRANCH  15  18
ENDBRANCH   1  12
TORSDOF 4
ENDMDL
MODEL 3
REMARK VINA RESULT:      -8.1      0.142      5.564
REMARK  Name = 
REMARK                            x       y       z     vdW  Elec       q    Type
REMARK                         _______ _______ _______ _____ _____    ______ ____
ROOT
ATOM      1  C   LIG    1        2.867  32.088   4.088  0.00  0.00    +0.015 C 
ATOM      2  C   LIG    1        2.870  32.246   2.541  0.00  0.00    +0.021 C 
ATOM      3  C   LIG    1        4.158  32.820   4.552  0.00  0.00    +0.021 C 
ENDROOT
BRANCH   1   7
ATOM      4  C   LIG    1        3.093  27.898   5.289  0.00  0.00    +0.117 A 
ATOM      5  C   LIG    1        4.050  28.789   5.752  0.00  0.00    +0.046 A 
ATOM      6  C   LIG    1        3.984  30.140   5.394  0.00  0.00    +0.008 A 
ATOM      7  C   LIG    1        2.954  30.618   4.565  0.00  0.00    -0.037 A 
ATOM      8  C   LIG    1        1.991  29.685   4.121  0.00  0.00    +0.008 A 
ATOM      9  C   LIG    1        2.057  28.335   4.479  0.00  0.00    +0.046 A 
BRANCH   4  10
ATOM     10  O   LIG    1        3.211  26.588   5.647  0.00  0.00    -0.507 OA
ATOM     11  H   LIG    1        2.322  26.198   5.676  0.00  0.00    +0.292 HD
ENDBRANCH   4  10
ENDBRANCH   1   7
BRANCH   1  12
ATOM     12  C   LIG    1        1.567  32.719   4.648  0.00  0.00    -0.037 A 
ATOM     13  C   LIG    1        0.639  33.318   3.769  0.00  0.00    +0.008 A 
ATOM     14  C   LIG    1       -0.579  33.824   4.227  0.00  0.00    +0.046 A 
ATOM     15  C   LIG    1       -0.901  33.721   5.571  0.00  0.00    +0.117 A 
ATOM     16  C   LIG    1       -0.016  33.138   6.467  0.00  0.00    +0.046 A 
ATOM     17  C   LIG    1        1.212  32.647   6.008  0.00  0.00    +0.008 A 
BRANCH  15  18
ATOM     18  O   LIG    1       -2.116  34.192   5.973  0.00  0.00    -0.507 OA
ATOM     19  H   LIG    1       -2.479  33.582   6.635  0.00  0.00    +0.292 HD
ENDBRANCH  15  18
ENDBRANCH   1  12
TORSDOF 4
ENDMDL
MODEL 4
REMARK VINA RESULT:      -7.9      1.329      5.463
REMARK  Name = 
REMARK                            x       y       z     vdW  Elec       q    Type
REMARK                         _______ _______ _______ _____ _____    ______ ____
ROOT
ATOM      1  C   LIG    1        2.535  31.987   4.388  0.00  0.00    +0.015 C 
ATOM      2  C   LIG    1        3.157  32.116   2.968  0.00  0.00    +0.021 C 
ATOM      3  C   LIG    1        3.715  32.291   5.353  0.00  0.00    +0.021 C 
ENDROOT
BRANCH   1   7
ATOM      4  C   LIG    1        1.045  28.024   5.445  0.00  0.00    +0.117 A 
ATOM      5  C   LIG    1        0.432  28.727   4.418  0.00  0.00    +0.046 A 
ATOM      6  C   LIG    1        0.908  29.991   4.051  0.00  0.00    +0.008 A 
ATOM      7  C   LIG    1        2.007  30.568   4.711  0.00  0.00    -0.037 A 
ATOM      8  C   LIG    1        2.612  29.820   5.744  0.00  0.00    +0.008 A 
ATOM      9  C   LIG    1        2.138  28.557   6.111  0.00  0.00    +0.046 A 
BRANCH   4  10
ATOM     10  O   LIG    1        0.534  26.805   5.781  0.00  0.00    -0.507 OA
ATOM     11  H   LIG    1       -0.431  26.839   5.677  0.00  0.00    +0.292 HD
ENDBRANCH   4  10
ENDBRANCH   1   7
BRANCH   1  12
ATOM     12  C   LIG    1        1.365  32.996   4.510  0.00  0.00    -0.037 A 
ATOM     13  C   LIG    1        0.958  33.742   3.383  0.00  0.00    +0.008 A 
ATOM     14  C   LIG    1       -0.143  34.599   3.434  0.00  0.00    +0.046 A 
ATOM     15  C   LIG    1       -0.871  34.710   4.608  0.00  0.00    +0.117 A 
ATOM     16  C   LIG    1       -0.503  33.992   5.738  0.00  0.00    +0.046 A 
ATOM     17  C   LIG    1        0.611  33.146   5.689  0.00  0.00    +0.008 A 
BRANCH  15  18
ATOM     18  O   LIG    1       -1.962  35.527   4.607  0.00  0.00    -0.507 OA
ATOM     19  H   LIG    1       -2.706  35.050   5.008  0.00  0.00    +0.292 HD
ENDBRANCH  15  18
ENDBRANCH   1  12
TORSDOF 4
ENDMDL
MODEL 5
REMARK VINA RESULT:      -7.8      1.912      2.095
REMARK  Name = 
REMARK                            x       y       z     vdW  Elec       q    Type
REMARK                         _______ _______ _______ _____ _____    ______ ____
ROOT
ATOM      1  C   LIG    1        2.534  32.371   4.262  0.00  0.00    +0.015 C 
ATOM      2  C   LIG    1        3.732  32.657   5.211  0.00  0.00    +0.021 C 
ATOM      3  C   LIG    1        3.172  32.315   2.845  0.00  0.00    +0.021 C 
ENDROOT
BRANCH   1   7
ATOM      4  C   LIG    1       -0.390  35.610   4.191  0.00  0.00    +0.117 A 
ATOM      5  C   LIG    1       -0.751  34.360   3.711  0.00  0.00    +0.046 A 
ATOM      6  C   LIG    1        0.166  33.303   3.743  0.00  0.00    +0.008 A 
ATOM      7  C   LIG    1        1.461  33.487   4.259  0.00  0.00    -0.037 A 
ATOM      8  C   LIG    1        1.790  34.769   4.749  0.00  0.00    +0.008 A 
ATOM      9  C   LIG    1        0.875  35.825   4.718  0.00  0.00    +0.046 A 
BRANCH   4  10
ATOM     10  O   LIG    1       -1.310  36.614   4.121  0.00  0.00    -0.507 OA
ATOM     11  H   LIG    1       -2.187  36.217   3.999  0.00  0.00    +0.292 HD
ENDBRANCH   4  10
ENDBRANCH   1   7
BRANCH   1  12
ATOM     12  C   LIG    1        1.869  31.038   4.691  0.00  0.00    -0.037 A 
ATOM     13  C   LIG    1        1.799  29.962   3.781  0.00  0.00    +0.008 A 
ATOM     14  C   LIG    1        1.280  28.722   4.157  0.00  0.00    +0.046 A 
ATOM     15  C   LIG    1        0.842  28.528   5.457  0.00  0.00    +0.117 A 
ATOM     16  C   LIG    1        0.896  29.562   6.382  0.00  0.00    +0.046 A 
ATOM     17  C   LIG    1        1.400  30.810   5.998  0.00  0.00    +0.008 A 
BRANCH  15  18
ATOM     18  O   LIG    1        0.379  27.291   5.797  0.00  0.00    -0.507 OA
ATOM     19  H   LIG    1        0.167  27.291   6.743  0.00  0.00    +0.292 HD
ENDBRANCH  15  18
ENDBRANCH   1  12
TORSDOF 4
ENDMDL
MODEL 6
REMARK VINA RESULT:      -7.1      1.449      5.833
REMARK  Name = 
REMARK                            x       y       z     vdW  Elec       q    Type
REMARK                         _______ _______ _______ _____ _____    ______ ____
ROOT
ATOM      1  C   LIG    1        2.367  30.941   6.193  0.00  0.00    +0.015 C 
ATOM      2  C   LIG    1        3.631  31.833   6.348  0.00  0.00    +0.021 C 
ATOM      3  C   LIG    1        1.900  30.678   7.652  0.00  0.00    +0.021 C 
ENDROOT
BRANCH   1   7
ATOM      4  C   LIG    1        3.232  27.039   4.439  0.00  0.00    +0.117 A 
ATOM      5  C   LIG    1        1.937  27.531   4.393  0.00  0.00    +0.046 A 
ATOM      6  C   LIG    1        1.643  28.789   4.932  0.00  0.00    +0.008 A 
ATOM      7  C   LIG    1        2.647  29.572   5.527  0.00  0.00    -0.037 A 
ATOM      8  C   LIG    1        3.956  29.044   5.547  0.00  0.00    +0.008 A 
ATOM      9  C   LIG    1        4.251  27.788   5.008  0.00  0.00    +0.046 A 
BRANCH   4  10
ATOM     10  O   LIG    1        3.467  25.800   3.920  0.00  0.00    -0.507 OA
ATOM     11  H   LIG    1        4.241  25.423   4.369  0.00  0.00    +0.292 HD
ENDBRANCH   4  10
ENDBRANCH   1   7
BRANCH   1  12
ATOM     12  C   LIG    1        1.322  31.706   5.341  0.00  0.00    -0.037 A 
ATOM     13  C   LIG    1       -0.018  31.789   5.778  0.00  0.00    +0.008 A 
ATOM     14  C   LIG    1       -0.968  32.536   5.079  0.00  0.00    +0.046 A 
ATOM     15  C   LIG    1       -0.591  33.235   3.944  0.00  0.00    +0.117 A 
ATOM     16  C   LIG    1        0.718  33.180   3.483  0.00  0.00    +0.046 A 
ATOM     17  C   LIG    1        1.664  32.415   4.175  0.00  0.00    +0.008 A 
BRANCH  15  18
ATOM     18  O   LIG    1       -1.538  33.985   3.312  0.00  0.00    -0.507 OA
ATOM     19  H   LIG    1       -1.194  34.884   3.199  0.00  0.00    +0.292 HD
ENDBRANCH  15  18
ENDBRANCH   1  12
TORSDOF 4
ENDMDL
MODEL 7
REMARK VINA RESULT:      -6.8      2.001      3.188
REMARK  Name = 
REMARK                            x       y       z     vdW  Elec       q    Type
REMARK                         _______ _______ _______ _____ _____    ______ ____
ROOT
ATOM      1  C   LIG    1        1.594  30.397   6.816  0.00  0.00    +0.015 C 
ATOM      2  C   LIG    1        0.126  30.049   7.193  0.00  0.00    +0.021 C 
ATOM      3  C   LIG    1        2.328  30.501   8.183  0.00  0.00    +0.021 C 
ENDROOT
BRANCH   1   7
ATOM      4  C   LIG    1        1.970  34.296   4.890  0.00  0.00    +0.117 A 
ATOM      5  C   LIG    1        3.023  33.397   4.813  0.00  0.00    +0.046 A 
ATOM      6  C   LIG    1        2.914  32.134   5.407  0.00  0.00    +0.008 A 
ATOM      7  C   LIG    1        1.744  31.756   6.089  0.00  0.00    -0.037 A 
ATOM      8  C   LIG    1        0.689  32.692   6.138  0.00  0.00    +0.008 A 
ATOM      9  C   LIG    1        0.796  33.953   5.544  0.00  0.00    +0.046 A 
BRANCH   4  10
ATOM     10  O   LIG    1        2.129  35.521   4.314  0.00  0.00    -0.507 OA
ATOM     11  H   LIG    1        2.036  36.198   5.004  0.00  0.00    +0.292 HD
ENDBRANCH   4  10
ENDBRANCH   1   7
BRANCH   1  12
ATOM     12  C   LIG    1        2.151  29.276   5.902  0.00  0.00    -0.037 A 
ATOM     13  C   LIG    1        3.382  28.660   6.213  0.00  0.00    +0.008 A 
ATOM     14  C   LIG    1        3.875  27.594   5.460  0.00  0.00    +0.046 A 
ATOM     15  C   LIG    1        3.135  27.107   4.394  0.00  0.00    +0.117 A 
ATOM     16  C   LIG    1        1.919  27.685   4.057  0.00  0.00    +0.046 A 
ATOM     17  C   LIG    1        1.435  28.766   4.803  0.00  0.00    +0.008 A 
BRANCH  15  18
ATOM     18  O   LIG    1        3.631  26.039   3.707  0.00  0.00    -0.507 OA
ATOM     19  H   LIG    1        3.099  25.258   3.925  0.00  0.00    +0.292 HD
ENDBRANCH  15  18
ENDBRANCH   1  12
TORSDOF 4
ENDMDL
MODEL 8
REMARK VINA RESULT:      -6.6      1.785      5.960
REMARK  Name = 
REMARK                            x       y       z     vdW  Elec       q    Type
REMARK                         _______ _______ _______ _____ _____    ______ ____
ROOT
ATOM      1  C   LIG    1        0.727  30.435   5.664  0.00  0.00    +0.015 C 
ATOM      2  C   LIG    1        0.157  30.075   7.065  0.00  0.00    +0.021 C 
ATOM      3  C   LIG    1        0.014  29.451   4.694  0.00  0.00    +0.021 C 
ENDROOT
BRANCH   1   7
ATOM      4  C   LIG    1        5.002  29.674   5.221  0.00  0.00    +0.117 A 
ATOM      5  C   LIG    1        4.508  30.943   4.956  0.00  0.00    +0.046 A 
ATOM      6  C   LIG    1        3.144  31.212   5.111  0.00  0.00    +0.008 A 
ATOM      7  C   LIG    1        2.253  30.209   5.535  0.00  0.00    -0.037 A 
ATOM      8  C   LIG    1        2.793  28.933   5.806  0.00  0.00    +0.008 A 
ATOM      9  C   LIG    1        4.156  28.664   5.652  0.00  0.00    +0.046 A 
BRANCH   4  10
ATOM     10  O   LIG    1        6.335  29.454   5.036  0.00  0.00    -0.507 OA
ATOM     11  H   LIG    1        6.470  28.503   4.890  0.00  0.00    +0.292 HD
ENDBRANCH   4  10
ENDBRANCH   1   7
BRANCH   1  12
ATOM     12  C   LIG    1        0.415  31.925   5.369  0.00  0.00    -0.037 A 
ATOM     13  C   LIG    1        0.111  32.333   4.053  0.00  0.00    +0.008 A 
ATOM     14  C   LIG    1       -0.253  33.649   3.763  0.00  0.00    +0.046 A 
ATOM     15  C   LIG    1       -0.342  34.577   4.789  0.00  0.00    +0.117 A 
ATOM     16  C   LIG    1       -0.052  34.214   6.097  0.00  0.00    +0.046 A 
ATOM     17  C   LIG    1        0.330  32.898   6.382  0.00  0.00    +0.008 A 
BRANCH  15  18
ATOM     18  O   LIG    1       -0.739  35.842   4.472  0.00  0.00    -0.507 OA
ATOM     19  H   LIG    1       -0.540  36.003   3.536  0.00  0.00    +0.292 HD
ENDBRANCH  15  18
ENDBRANCH   1  12
TORSDOF 4
ENDMDL
MODEL 9
REMARK VINA RESULT:      -6.5      1.792      2.956
REMARK  Name = 
REMARK                            x       y       z     vdW  Elec       q    Type
REMARK                         _______ _______ _______ _____ _____    ______ ____
ROOT
ATOM      1  C   LIG    1        0.726  30.441   5.670  0.00  0.00    +0.015 C 
ATOM      2  C   LIG    1        0.024  29.443   4.707  0.00  0.00    +0.021 C 
ATOM      3  C   LIG    1        0.151  30.092   7.072  0.00  0.00    +0.021 C 
ENDROOT
BRANCH   1   7
ATOM      4  C   LIG    1       -0.312  34.581   4.760  0.00  0.00    +0.117 A 
ATOM      5  C   LIG    1       -0.043  34.222   6.072  0.00  0.00    +0.046 A 
ATOM      6  C   LIG    1        0.312  32.904   6.382  0.00  0.00    +0.008 A 
ATOM      7  C   LIG    1        0.400  31.925   5.376  0.00  0.00    -0.037 A 
ATOM      8  C   LIG    1        0.128  32.328   4.051  0.00  0.00    +0.008 A 
ATOM      9  C   LIG    1       -0.224  33.645   3.741  0.00  0.00    +0.046 A 
BRANCH   4  10
ATOM     10  O   LIG    1       -0.673  35.872   4.509  0.00  0.00    -0.507 OA
ATOM     11  H   LIG    1       -0.636  36.019   3.550  0.00  0.00    +0.292 HD
ENDBRANCH   4  10
ENDBRANCH   1   7
BRANCH   1  12
ATOM     12  C   LIG    1        2.259  30.235   5.566  0.00  0.00    -0.037 A 
ATOM     13  C   LIG    1        2.821  28.972   5.846  0.00  0.00    +0.008 A 
ATOM     14  C   LIG    1        4.186  28.728   5.685  0.00  0.00    +0.046 A 
ATOM     15  C   LIG    1        5.012  29.738   5.218  0.00  0.00    +0.117 A 
ATOM     16  C   LIG    1        4.497  30.995   4.929  0.00  0.00    +0.046 A 
ATOM     17  C   LIG    1        3.131  31.241   5.109  0.00  0.00    +0.008 A 
BRANCH  15  18
ATOM     18  O   LIG    1        6.332  29.450   5.036  0.00  0.00    -0.507 OA
ATOM     19  H   LIG    1        6.788  29.544   5.887  0.00  0.00    +0.292 HD
ENDBRANCH  15  18
ENDBRANCH   1  12
TORSDOF 4
ENDMDL
