REMARK  Name = 
REMARK                            x       y       z     vdW  Elec       q    Type
REMARK                         _______ _______ _______ _____ _____    ______ ____
ROOT
ATOM      1  C   LIG    1        6.491   0.150  -0.722  0.00  0.00    +0.015 C 
ATOM      2  C   LIG    1        7.220  -1.223  -0.754  0.00  0.00    +0.021 C 
ATOM      3  C   LIG    1        7.183   0.926   0.434  0.00  0.00    +0.021 C 
ENDROOT
BRANCH   1   7
ATOM      4  C   LIG    1        2.208  -0.045   0.095  0.00  0.00    +0.117 A 
ATOM      5  C   LIG    1        2.936  -1.222   0.008  0.00  0.00    +0.046 A 
ATOM      6  C   LIG    1        4.314  -1.180  -0.233  0.00  0.00    +0.008 A 
ATOM      7  C   LIG    1        4.982   0.047  -0.392  0.00  0.00    -0.037 A 
ATOM      8  C   LIG    1        4.211   1.225  -0.287  0.00  0.00    +0.008 A 
ATOM      9  C   LIG    1        2.835   1.184  -0.045  0.00  0.00    +0.046 A 
BRANCH   4  10
ATOM     10  O   LIG    1        0.865  -0.136   0.311  0.00  0.00    -0.507 OA
ATOM     11  H   LIG    1        0.490   0.759   0.286  0.00  0.00    +0.292 HD
ENDBRANCH   4  10
ENDBRANCH   1   7
BRANCH   1  12
ATOM     12  C   LIG    1        6.655   0.831  -2.105  0.00  0.00    -0.037 A 
ATOM     13  C   LIG    1        6.294   0.136  -3.279  0.00  0.00    +0.008 A 
ATOM     14  C   LIG    1        6.352   0.745  -4.534  0.00  0.00    +0.046 A 
ATOM     15  C   LIG    1        6.750   2.068  -4.636  0.00  0.00    +0.117 A 
ATOM     16  C   LIG    1        7.112   2.786  -3.504  0.00  0.00    +0.046 A 
ATOM     17  C   LIG    1        7.070   2.168  -2.249  0.00  0.00    +0.008 A 
BRANCH  15  18
ATOM     18  O   LIG    1        6.756   2.639  -5.874  0.00  0.00    -0.507 OA
ATOM     19  H   LIG    1        6.976   3.579  -5.779  0.00  0.00    +0.292 HD
ENDBRANCH  15  18
ENDBRANCH   1  12
TORSDOF 4
