MODEL 1
REMARK VINA RESULT:      -8.3      0.000      0.000
REMARK  Name = 
REMARK                            x       y       z     vdW  Elec       q    Type
REMARK                         _______ _______ _______ _____ _____    ______ ____
ROOT
ATOM      1  C   LIG    1       -7.104  -4.802  12.638  0.00  0.00    +0.015 C 
ATOM      2  C   LIG    1       -6.281  -4.772  11.313  0.00  0.00    +0.021 C 
ATOM      3  C   LIG    1       -7.786  -6.203  12.598  0.00  0.00    +0.021 C 
ENDROOT
BRANCH   1   7
ATOM      4  C   LIG    1      -10.148  -1.652  12.713  0.00  0.00    +0.117 A 
ATOM      5  C   LIG    1      -10.518  -2.966  12.944  0.00  0.00    +0.046 A 
ATOM      6  C   LIG    1       -9.554  -3.981  12.916  0.00  0.00    +0.008 A 
ATOM      7  C   LIG    1       -8.197  -3.699  12.668  0.00  0.00    -0.037 A 
ATOM      8  C   LIG    1       -7.861  -2.348  12.438  0.00  0.00    +0.008 A 
ATOM      9  C   LIG    1       -8.824  -1.331  12.458  0.00  0.00    +0.046 A 
BRANCH   4  10
ATOM     10  O   LIG    1      -11.121  -0.697  12.741  0.00  0.00    -0.507 OA
ATOM     11  H   LIG    1      -11.794  -0.963  13.388  0.00  0.00    +0.292 HD
ENDBRANCH   4  10
ENDBRANCH   1   7
BRANCH   1  12
ATOM     12  C   LIG    1       -6.167  -4.683  13.872  0.00  0.00    -0.037 A 
ATOM     13  C   LIG    1       -4.763  -4.712  13.731  0.00  0.00    +0.008 A 
ATOM     14  C   LIG    1       -3.906  -4.608  14.834  0.00  0.00    +0.046 A 
ATOM     15  C   LIG    1       -4.442  -4.464  16.104  0.00  0.00    +0.117 A 
ATOM     16  C   LIG    1       -5.815  -4.440  16.285  0.00  0.00    +0.046 A 
ATOM     17  C   LIG    1       -6.668  -4.563  15.182  0.00  0.00    +0.008 A 
BRANCH  15  18
ATOM     18  O   LIG    1       -3.648  -4.345  17.204  0.00  0.00    -0.507 OA
ATOM     19  H   LIG    1       -2.898  -3.769  16.983  0.00  0.00    +0.292 HD
ENDBRANCH  15  18
ENDBRANCH   1  12
TORSDOF 4
ENDMDL
MODEL 2
REMARK VINA RESULT:      -8.2      0.066      5.619
REMARK  Name = 
REMARK                            x       y       z     vdW  Elec       q    Type
REMARK                         _______ _______ _______ _____ _____    ______ ____
ROOT
ATOM      1  C   LIG    1       -7.140  -4.804  12.684  0.00  0.00    +0.015 C 
ATOM      2  C   LIG    1       -7.825  -6.202  12.594  0.00  0.00    +0.021 C 
ATOM      3  C   LIG    1       -6.275  -4.750  11.387  0.00  0.00    +0.021 C 
ENDROOT
BRANCH   1   7
ATOM      4  C   LIG    1       -4.484  -4.481  16.153  0.00  0.00    +0.117 A 
ATOM      5  C   LIG    1       -5.855  -4.418  16.333  0.00  0.00    +0.046 A 
ATOM      6  C   LIG    1       -6.713  -4.514  15.230  0.00  0.00    +0.008 A 
ATOM      7  C   LIG    1       -6.214  -4.688  13.924  0.00  0.00    -0.037 A 
ATOM      8  C   LIG    1       -4.811  -4.746  13.784  0.00  0.00    +0.008 A 
ATOM      9  C   LIG    1       -3.951  -4.643  14.883  0.00  0.00    +0.046 A 
BRANCH   4  10
ATOM     10  O   LIG    1       -3.687  -4.375  17.253  0.00  0.00    -0.507 OA
ATOM     11  H   LIG    1       -2.815  -4.052  16.971  0.00  0.00    +0.292 HD
ENDBRANCH   4  10
ENDBRANCH   1   7
BRANCH   1  12
ATOM     12  C   LIG    1       -8.202  -3.669  12.681  0.00  0.00    -0.037 A 
ATOM     13  C   LIG    1       -9.564  -3.940  12.932  0.00  0.00    +0.008 A 
ATOM     14  C   LIG    1      -10.532  -2.928  12.931  0.00  0.00    +0.046 A 
ATOM     15  C   LIG    1      -10.152  -1.618  12.685  0.00  0.00    +0.117 A 
ATOM     16  C   LIG    1       -8.826  -1.312  12.425  0.00  0.00    +0.046 A 
ATOM     17  C   LIG    1       -7.863  -2.329  12.409  0.00  0.00    +0.008 A 
BRANCH  15  18
ATOM     18  O   LIG    1      -11.056  -0.599  12.687  0.00  0.00    -0.507 OA
ATOM     19  H   LIG    1      -10.802   0.037  13.376  0.00  0.00    +0.292 HD
ENDBRANCH  15  18
ENDBRANCH   1  12
TORSDOF 4
ENDMDL
MODEL 3
REMARK VINA RESULT:      -8.0      2.651      5.541
REMARK  Name = 
REMARK                            x       y       z     vdW  Elec       q    Type
REMARK                         _______ _______ _______ _____ _____    ______ ____
ROOT
ATOM      1  C   LIG    1       -7.426  -4.394  13.084  0.00  0.00    +0.015 C 
ATOM      2  C   LIG    1       -7.058  -3.038  12.406  0.00  0.00    +0.021 C 
ATOM      3  C   LIG    1       -8.960  -4.263  13.326  0.00  0.00    +0.021 C 
ENDROOT
BRANCH   1   7
ATOM      4  C   LIG    1       -5.438  -4.906  16.954  0.00  0.00    +0.117 A 
ATOM      5  C   LIG    1       -4.687  -4.924  15.792  0.00  0.00    +0.046 A 
ATOM      6  C   LIG    1       -5.313  -4.767  14.549  0.00  0.00    +0.008 A 
ATOM      7  C   LIG    1       -6.704  -4.577  14.446  0.00  0.00    -0.037 A 
ATOM      8  C   LIG    1       -7.434  -4.565  15.654  0.00  0.00    +0.008 A 
ATOM      9  C   LIG    1       -6.812  -4.728  16.898  0.00  0.00    +0.046 A 
BRANCH   4  10
ATOM     10  O   LIG    1       -4.789  -5.070  18.141  0.00  0.00    -0.507 OA
ATOM     11  H   LIG    1       -4.310  -5.915  18.116  0.00  0.00    +0.292 HD
ENDBRANCH   4  10
ENDBRANCH   1   7
BRANCH   1  12
ATOM     12  C   LIG    1       -7.120  -5.586  12.134  0.00  0.00    -0.037 A 
ATOM     13  C   LIG    1       -7.797  -6.817  12.262  0.00  0.00    +0.008 A 
ATOM     14  C   LIG    1       -7.531  -7.900  11.415  0.00  0.00    +0.046 A 
ATOM     15  C   LIG    1       -6.582  -7.766  10.414  0.00  0.00    +0.117 A 
ATOM     16  C   LIG    1       -5.889  -6.577  10.261  0.00  0.00    +0.046 A 
ATOM     17  C   LIG    1       -6.145  -5.503  11.121  0.00  0.00    +0.008 A 
BRANCH  15  18
ATOM     18  O   LIG    1       -6.300  -8.788   9.557  0.00  0.00    -0.507 OA
ATOM     19  H   LIG    1       -6.813  -8.658   8.743  0.00  0.00    +0.292 HD
ENDBRANCH  15  18
ENDBRANCH   1  12
TORSDOF 4
ENDMDL
MODEL 4
REMARK VINA RESULT:      -8.0      2.647      5.456
REMARK  Name = 
REMARK                            x       y       z     vdW  Elec       q    Type
REMARK                         _______ _______ _______ _____ _____    ______ ____
ROOT
ATOM      1  C   LIG    1       -7.452  -4.326  13.147  0.00  0.00    +0.015 C 
ATOM      2  C   LIG    1       -7.091  -2.963  12.480  0.00  0.00    +0.021 C 
ATOM      3  C   LIG    1       -8.981  -4.191  13.420  0.00  0.00    +0.021 C 
ENDROOT
BRANCH   1   7
ATOM      4  C   LIG    1       -5.392  -4.902  16.970  0.00  0.00    +0.117 A 
ATOM      5  C   LIG    1       -4.658  -4.861  15.797  0.00  0.00    +0.046 A 
ATOM      6  C   LIG    1       -5.308  -4.684  14.569  0.00  0.00    +0.008 A 
ATOM      7  C   LIG    1       -6.705  -4.531  14.492  0.00  0.00    -0.037 A 
ATOM      8  C   LIG    1       -7.417  -4.578  15.710  0.00  0.00    +0.008 A 
ATOM      9  C   LIG    1       -6.771  -4.763  16.939  0.00  0.00    +0.046 A 
BRANCH   4  10
ATOM     10  O   LIG    1       -4.720  -5.085  18.142  0.00  0.00    -0.507 OA
ATOM     11  H   LIG    1       -4.442  -4.217  18.476  0.00  0.00    +0.292 HD
ENDBRANCH   4  10
ENDBRANCH   1   7
BRANCH   1  12
ATOM     12  C   LIG    1       -7.171  -5.506  12.175  0.00  0.00    -0.037 A 
ATOM     13  C   LIG    1       -6.262  -5.373  11.105  0.00  0.00    +0.008 A 
ATOM     14  C   LIG    1       -6.000  -6.427  10.221  0.00  0.00    +0.046 A 
ATOM     15  C   LIG    1       -6.641  -7.643  10.399  0.00  0.00    +0.117 A 
ATOM     16  C   LIG    1       -7.547  -7.811  11.432  0.00  0.00    +0.046 A 
ATOM     17  C   LIG    1       -7.820  -6.750  12.303  0.00  0.00    +0.008 A 
BRANCH  15  18
ATOM     18  O   LIG    1       -6.408  -8.701   9.572  0.00  0.00    -0.507 OA
ATOM     19  H   LIG    1       -5.900  -9.369  10.062  0.00  0.00    +0.292 HD
ENDBRANCH  15  18
ENDBRANCH   1  12
TORSDOF 4
ENDMDL
MODEL 5
REMARK VINA RESULT:      -7.9      2.497      3.975
REMARK  Name = 
REMARK                            x       y       z     vdW  Elec       q    Type
REMARK                         _______ _______ _______ _____ _____    ______ ____
ROOT
ATOM      1  C   LIG    1       -7.624  -3.890  13.170  0.00  0.00    +0.015 C 
ATOM      2  C   LIG    1       -9.133  -3.683  13.503  0.00  0.00    +0.021 C 
ATOM      3  C   LIG    1       -7.199  -2.510  12.582  0.00  0.00    +0.021 C 
ENDROOT
BRANCH   1   7
ATOM      4  C   LIG    1       -7.046  -7.040  10.181  0.00  0.00    +0.117 A 
ATOM      5  C   LIG    1       -6.595  -5.757   9.919  0.00  0.00    +0.046 A 
ATOM      6  C   LIG    1       -6.780  -4.742  10.865  0.00  0.00    +0.008 A 
ATOM      7  C   LIG    1       -7.410  -4.993  12.100  0.00  0.00    -0.037 A 
ATOM      8  C   LIG    1       -7.855  -6.313  12.328  0.00  0.00    +0.008 A 
ATOM      9  C   LIG    1       -7.678  -7.329  11.381  0.00  0.00    +0.046 A 
BRANCH   4  10
ATOM     10  O   LIG    1       -6.852  -7.995   9.229  0.00  0.00    -0.507 OA
ATOM     11  H   LIG    1       -6.996  -8.867   9.633  0.00  0.00    +0.292 HD
ENDBRANCH   4  10
ENDBRANCH   1   7
BRANCH   1  12
ATOM     12  C   LIG    1       -6.814  -4.208  14.459  0.00  0.00    -0.037 A 
ATOM     13  C   LIG    1       -5.406  -4.286  14.439  0.00  0.00    +0.008 A 
ATOM     14  C   LIG    1       -4.664  -4.573  15.591  0.00  0.00    +0.046 A 
ATOM     15  C   LIG    1       -5.322  -4.783  16.793  0.00  0.00    +0.117 A 
ATOM     16  C   LIG    1       -6.705  -4.724  16.852  0.00  0.00    +0.046 A 
ATOM     17  C   LIG    1       -7.444  -4.454  15.695  0.00  0.00    +0.008 A 
BRANCH  15  18
ATOM     18  O   LIG    1       -4.642  -5.051  17.942  0.00  0.00    -0.507 OA
ATOM     19  H   LIG    1       -4.428  -5.999  17.960  0.00  0.00    +0.292 HD
ENDBRANCH  15  18
ENDBRANCH   1  12
TORSDOF 4
ENDMDL
MODEL 6
REMARK VINA RESULT:      -7.8      2.836      3.787
REMARK  Name = 
REMARK                            x       y       z     vdW  Elec       q    Type
REMARK                         _______ _______ _______ _____ _____    ______ ____
ROOT
ATOM      1  C   LIG    1       -5.867  -6.086  11.582  0.00  0.00    +0.015 C 
ATOM      2  C   LIG    1       -4.361  -5.762  11.332  0.00  0.00    +0.021 C 
ATOM      3  C   LIG    1       -5.897  -7.645  11.580  0.00  0.00    +0.021 C 
ENDROOT
BRANCH   1   7
ATOM      4  C   LIG    1       -8.440  -4.634   8.348  0.00  0.00    +0.117 A 
ATOM      5  C   LIG    1       -7.738  -3.727   9.124  0.00  0.00    +0.046 A 
ATOM      6  C   LIG    1       -6.918  -4.180  10.163  0.00  0.00    +0.008 A 
ATOM      7  C   LIG    1       -6.774  -5.553  10.440  0.00  0.00    -0.037 A 
ATOM      8  C   LIG    1       -7.506  -6.445   9.627  0.00  0.00    +0.008 A 
ATOM      9  C   LIG    1       -8.333  -5.994   8.592  0.00  0.00    +0.046 A 
BRANCH   4  10
ATOM     10  O   LIG    1       -9.234  -4.148   7.352  0.00  0.00    -0.507 OA
ATOM     11  H   LIG    1      -10.121  -4.530   7.451  0.00  0.00    +0.292 HD
ENDBRANCH   4  10
ENDBRANCH   1   7
BRANCH   1  12
ATOM     12  C   LIG    1       -6.329  -5.530  12.958  0.00  0.00    -0.037 A 
ATOM     13  C   LIG    1       -5.406  -4.984  13.875  0.00  0.00    +0.008 A 
ATOM     14  C   LIG    1       -5.807  -4.481  15.118  0.00  0.00    +0.046 A 
ATOM     15  C   LIG    1       -7.149  -4.509  15.466  0.00  0.00    +0.117 A 
ATOM     16  C   LIG    1       -8.085  -5.045  14.597  0.00  0.00    +0.046 A 
ATOM     17  C   LIG    1       -7.678  -5.563  13.362  0.00  0.00    +0.008 A 
BRANCH  15  18
ATOM     18  O   LIG    1       -7.588  -4.019  16.659  0.00  0.00    -0.507 OA
ATOM     19  H   LIG    1       -8.152  -4.689  17.079  0.00  0.00    +0.292 HD
ENDBRANCH  15  18
ENDBRANCH   1  12
TORSDOF 4
ENDMDL
MODEL 7
REMARK VINA RESULT:      -7.8      1.869      2.702
REMARK  Name = 
REMARK                            x       y       z     vdW  Elec       q    Type
REMARK                         _______ _______ _______ _____ _____    ______ ____
ROOT
ATOM      1  C   LIG    1       -7.072  -5.611  12.256  0.00  0.00    +0.015 C 
ATOM      2  C   LIG    1       -6.338  -6.800  11.564  0.00  0.00    +0.021 C 
ATOM      3  C   LIG    1       -8.418  -6.248  12.717  0.00  0.00    +0.021 C 
ENDROOT
BRANCH   1   7
ATOM      4  C   LIG    1       -7.875  -2.370   9.420  0.00  0.00    +0.117 A 
ATOM      5  C   LIG    1       -8.197  -2.205  10.757  0.00  0.00    +0.046 A 
ATOM      6  C   LIG    1       -7.950  -3.237  11.670  0.00  0.00    +0.008 A 
ATOM      7  C   LIG    1       -7.363  -4.452  11.266  0.00  0.00    -0.037 A 
ATOM      8  C   LIG    1       -7.050  -4.580   9.896  0.00  0.00    +0.008 A 
ATOM      9  C   LIG    1       -7.303  -3.553   8.978  0.00  0.00    +0.046 A 
BRANCH   4  10
ATOM     10  O   LIG    1       -8.140  -1.343   8.564  0.00  0.00    -0.507 OA
ATOM     11  H   LIG    1       -8.976  -0.927   8.832  0.00  0.00    +0.292 HD
ENDBRANCH   4  10
ENDBRANCH   1   7
BRANCH   1  12
ATOM     12  C   LIG    1       -6.260  -5.100  13.480  0.00  0.00    -0.037 A 
ATOM     13  C   LIG    1       -6.905  -4.677  14.662  0.00  0.00    +0.008 A 
ATOM     14  C   LIG    1       -6.187  -4.213  15.771  0.00  0.00    +0.046 A 
ATOM     15  C   LIG    1       -4.802  -4.170  15.719  0.00  0.00    +0.117 A 
ATOM     16  C   LIG    1       -4.133  -4.567  14.573  0.00  0.00    +0.046 A 
ATOM     17  C   LIG    1       -4.855  -5.014  13.460  0.00  0.00    +0.008 A 
BRANCH  15  18
ATOM     18  O   LIG    1       -4.061  -3.739  16.778  0.00  0.00    -0.507 OA
ATOM     19  H   LIG    1       -3.508  -2.996  16.485  0.00  0.00    +0.292 HD
ENDBRANCH  15  18
ENDBRANCH   1  12
TORSDOF 4
ENDMDL
MODEL 8
REMARK VINA RESULT:      -7.6      2.647      5.828
REMARK  Name = 
REMARK                            x       y       z     vdW  Elec       q    Type
REMARK                         _______ _______ _______ _____ _____    ______ ____
ROOT
ATOM      1  C   LIG    1       -8.484  -3.184  12.443  0.00  0.00    +0.015 C 
ATOM      2  C   LIG    1       -8.239  -1.693  12.055  0.00  0.00    +0.021 C 
ATOM      3  C   LIG    1       -9.875  -3.141  13.147  0.00  0.00    +0.021 C 
ENDROOT
BRANCH   1   7
ATOM      4  C   LIG    1       -5.435  -4.649  15.227  0.00  0.00    +0.117 A 
ATOM      5  C   LIG    1       -6.772  -4.706  15.584  0.00  0.00    +0.046 A 
ATOM      6  C   LIG    1       -7.753  -4.235  14.704  0.00  0.00    +0.008 A 
ATOM      7  C   LIG    1       -7.418  -3.708  13.442  0.00  0.00    -0.037 A 
ATOM      8  C   LIG    1       -6.045  -3.667  13.117  0.00  0.00    +0.008 A 
ATOM      9  C   LIG    1       -5.060  -4.130  13.997  0.00  0.00    +0.046 A 
BRANCH   4  10
ATOM     10  O   LIG    1       -4.513  -5.111  16.118  0.00  0.00    -0.507 OA
ATOM     11  H   LIG    1       -4.398  -6.064  15.975  0.00  0.00    +0.292 HD
ENDBRANCH   4  10
ENDBRANCH   1   7
BRANCH   1  12
ATOM     12  C   LIG    1       -8.539  -4.082  11.175  0.00  0.00    -0.037 A 
ATOM     13  C   LIG    1       -8.744  -5.474  11.272  0.00  0.00    +0.008 A 
ATOM     14  C   LIG    1       -8.794  -6.296  10.139  0.00  0.00    +0.046 A 
ATOM     15  C   LIG    1       -8.647  -5.733   8.880  0.00  0.00    +0.117 A 
ATOM     16  C   LIG    1       -8.435  -4.371   8.744  0.00  0.00    +0.046 A 
ATOM     17  C   LIG    1       -8.368  -3.556   9.880  0.00  0.00    +0.008 A 
BRANCH  15  18
ATOM     18  O   LIG    1       -8.703  -6.490   7.749  0.00  0.00    -0.507 OA
ATOM     19  H   LIG    1       -8.687  -7.427   8.004  0.00  0.00    +0.292 HD
ENDBRANCH  15  18
ENDBRANCH   1  12
TORSDOF 4
ENDMDL
MODEL 9
REMARK VINA RESULT:      -7.6      2.692      3.811
REMARK  Name = 
REMARK                            x       y       z     vdW  Elec       q    Type
REMARK                         _______ _______ _______ _____ _____    ______ ____
ROOT
ATOM      1  C   LIG    1       -8.620  -3.175  12.375  0.00  0.00    +0.015 C 
ATOM      2  C   LIG    1      -10.025  -3.064  13.042  0.00  0.00    +0.021 C 
ATOM      3  C   LIG    1       -8.314  -1.707  11.948  0.00  0.00    +0.021 C 
ENDROOT
BRANCH   1   7
ATOM      4  C   LIG    1       -8.675  -5.691   8.789  0.00  0.00    +0.117 A 
ATOM      5  C   LIG    1       -8.965  -6.251  10.021  0.00  0.00    +0.046 A 
ATOM      6  C   LIG    1       -8.944  -5.457  11.174  0.00  0.00    +0.008 A 
ATOM      7  C   LIG    1       -8.644  -4.082  11.115  0.00  0.00    -0.037 A 
ATOM      8  C   LIG    1       -8.355  -3.551   9.840  0.00  0.00    +0.008 A 
ATOM      9  C   LIG    1       -8.368  -4.343   8.686  0.00  0.00    +0.046 A 
BRANCH   4  10
ATOM     10  O   LIG    1       -8.699  -6.503   7.694  0.00  0.00    -0.507 OA
ATOM     11  H   LIG    1       -8.238  -7.328   7.913  0.00  0.00    +0.292 HD
ENDBRANCH   4  10
ENDBRANCH   1   7
BRANCH   1  12
ATOM     12  C   LIG    1       -7.563  -3.681  13.397  0.00  0.00    -0.037 A 
ATOM     13  C   LIG    1       -7.949  -4.272  14.618  0.00  0.00    +0.008 A 
ATOM     14  C   LIG    1       -7.008  -4.731  15.548  0.00  0.00    +0.046 A 
ATOM     15  C   LIG    1       -5.656  -4.611  15.268  0.00  0.00    +0.117 A 
ATOM     16  C   LIG    1       -5.236  -4.029  14.084  0.00  0.00    +0.046 A 
ATOM     17  C   LIG    1       -6.179  -3.556  13.164  0.00  0.00    +0.008 A 
BRANCH  15  18
ATOM     18  O   LIG    1       -4.705  -5.056  16.137  0.00  0.00    -0.507 OA
ATOM     19  H   LIG    1       -4.999  -5.903  16.509  0.00  0.00    +0.292 HD
ENDBRANCH  15  18
ENDBRANCH   1  12
TORSDOF 4
ENDMDL
