MODEL 1
REMARK VINA RESULT:      -8.0      0.000      0.000
REMARK  Name = 
REMARK                            x       y       z     vdW  Elec       q    Type
REMARK                         _______ _______ _______ _____ _____    ______ ____
ROOT
ATOM      1  C   LIG    1       39.897  -1.347  16.306  0.00  0.00    +0.015 C 
ATOM      2  C   LIG    1       39.787  -2.064  14.925  0.00  0.00    +0.021 C 
ATOM      3  C   LIG    1       38.766  -2.018  17.144  0.00  0.00    +0.021 C 
ENDROOT
BRANCH   1   7
ATOM      4  C   LIG    1       39.084   2.949  16.036  0.00  0.00    +0.117 A 
ATOM      5  C   LIG    1       39.900   2.346  15.093  0.00  0.00    +0.046 A 
ATOM      6  C   LIG    1       40.171   0.975  15.174  0.00  0.00    +0.008 A 
ATOM      7  C   LIG    1       39.620   0.176  16.195  0.00  0.00    -0.037 A 
ATOM      8  C   LIG    1       38.795   0.828  17.135  0.00  0.00    +0.008 A 
ATOM      9  C   LIG    1       38.528   2.200  17.062  0.00  0.00    +0.046 A 
BRANCH   4  10
ATOM     10  O   LIG    1       38.854   4.287  15.924  0.00  0.00    -0.507 OA
ATOM     11  H   LIG    1       39.581   4.762  16.359  0.00  0.00    +0.292 HD
ENDBRANCH   4  10
ENDBRANCH   1   7
BRANCH   1  12
ATOM     12  C   LIG    1       41.286  -1.609  16.953  0.00  0.00    -0.037 A 
ATOM     13  C   LIG    1       42.115  -2.661  16.509  0.00  0.00    +0.008 A 
ATOM     14  C   LIG    1       43.368  -2.909  17.083  0.00  0.00    +0.046 A 
ATOM     15  C   LIG    1       43.820  -2.099  18.114  0.00  0.00    +0.117 A 
ATOM     16  C   LIG    1       43.032  -1.062  18.584  0.00  0.00    +0.046 A 
ATOM     17  C   LIG    1       41.772  -0.828  18.020  0.00  0.00    +0.008 A 
BRANCH  15  18
ATOM     18  O   LIG    1       45.037  -2.294  18.693  0.00  0.00    -0.507 OA
ATOM     19  H   LIG    1       45.123  -3.234  18.922  0.00  0.00    +0.292 HD
ENDBRANCH  15  18
ENDBRANCH   1  12
TORSDOF 4
ENDMDL
MODEL 2
REMARK VINA RESULT:      -7.9      0.037      1.648
REMARK  Name = 
REMARK                            x       y       z     vdW  Elec       q    Type
REMARK                         _______ _______ _______ _____ _____    ______ ____
ROOT
ATOM      1  C   LIG    1       39.879  -1.361  16.313  0.00  0.00    +0.015 C 
ATOM      2  C   LIG    1       39.759  -2.067  14.927  0.00  0.00    +0.021 C 
ATOM      3  C   LIG    1       38.755  -2.040  17.154  0.00  0.00    +0.021 C 
ENDROOT
BRANCH   1   7
ATOM      4  C   LIG    1       39.122   2.942  15.994  0.00  0.00    +0.117 A 
ATOM      5  C   LIG    1       38.549   2.221  17.028  0.00  0.00    +0.046 A 
ATOM      6  C   LIG    1       38.779   0.845  17.135  0.00  0.00    +0.008 A 
ATOM      7  C   LIG    1       39.600   0.163  16.216  0.00  0.00    -0.037 A 
ATOM      8  C   LIG    1       40.165   0.933  15.177  0.00  0.00    +0.008 A 
ATOM      9  C   LIG    1       39.931   2.308  15.063  0.00  0.00    +0.046 A 
BRANCH   4  10
ATOM     10  O   LIG    1       38.864   4.278  15.923  0.00  0.00    -0.507 OA
ATOM     11  H   LIG    1       38.272   4.517  16.655  0.00  0.00    +0.292 HD
ENDBRANCH   4  10
ENDBRANCH   1   7
BRANCH   1  12
ATOM     12  C   LIG    1       41.274  -1.627  16.947  0.00  0.00    -0.037 A 
ATOM     13  C   LIG    1       41.757  -0.836  18.011  0.00  0.00    +0.008 A 
ATOM     14  C   LIG    1       43.011  -1.063  18.591  0.00  0.00    +0.046 A 
ATOM     15  C   LIG    1       43.806  -2.095  18.118  0.00  0.00    +0.117 A 
ATOM     16  C   LIG    1       43.371  -2.888  17.069  0.00  0.00    +0.046 A 
ATOM     17  C   LIG    1       42.124  -2.648  16.480  0.00  0.00    +0.008 A 
BRANCH  15  18
ATOM     18  O   LIG    1       45.027  -2.362  18.660  0.00  0.00    -0.507 OA
ATOM     19  H   LIG    1       45.237  -3.297  18.503  0.00  0.00    +0.292 HD
ENDBRANCH  15  18
ENDBRANCH   1  12
TORSDOF 4
ENDMDL
MODEL 3
REMARK VINA RESULT:      -7.9      0.045      5.621
REMARK  Name = 
REMARK                            x       y       z     vdW  Elec       q    Type
REMARK                         _______ _______ _______ _____ _____    ______ ____
ROOT
ATOM      1  C   LIG    1       39.889  -1.347  16.364  0.00  0.00    +0.015 C 
ATOM      2  C   LIG    1       38.752  -2.051  17.167  0.00  0.00    +0.021 C 
ATOM      3  C   LIG    1       39.813  -2.035  14.967  0.00  0.00    +0.021 C 
ENDROOT
BRANCH   1   7
ATOM      4  C   LIG    1       43.842  -2.109  18.091  0.00  0.00    +0.117 A 
ATOM      5  C   LIG    1       43.065  -1.077  18.589  0.00  0.00    +0.046 A 
ATOM      6  C   LIG    1       41.803  -0.821  18.040  0.00  0.00    +0.008 A 
ATOM      7  C   LIG    1       41.287  -1.602  16.988  0.00  0.00    -0.037 A 
ATOM      8  C   LIG    1       42.109  -2.644  16.509  0.00  0.00    +0.008 A 
ATOM      9  C   LIG    1       43.375  -2.898  17.050  0.00  0.00    +0.046 A 
BRANCH   4  10
ATOM     10  O   LIG    1       45.068  -2.317  18.649  0.00  0.00    -0.507 OA
ATOM     11  H   LIG    1       45.429  -3.148  18.298  0.00  0.00    +0.292 HD
ENDBRANCH   4  10
ENDBRANCH   1   7
BRANCH   1  12
ATOM     12  C   LIG    1       39.611   0.178  16.239  0.00  0.00    -0.037 A 
ATOM     13  C   LIG    1       40.175   0.942  15.196  0.00  0.00    +0.008 A 
ATOM     14  C   LIG    1       39.935   2.316  15.072  0.00  0.00    +0.046 A 
ATOM     15  C   LIG    1       39.116   2.952  15.991  0.00  0.00    +0.117 A 
ATOM     16  C   LIG    1       38.550   2.239  17.035  0.00  0.00    +0.046 A 
ATOM     17  C   LIG    1       38.807   0.869  17.166  0.00  0.00    +0.008 A 
BRANCH  15  18
ATOM     18  O   LIG    1       38.843   4.284  15.902  0.00  0.00    -0.507 OA
ATOM     19  H   LIG    1       39.391   4.665  15.197  0.00  0.00    +0.292 HD
ENDBRANCH  15  18
ENDBRANCH   1  12
TORSDOF 4
ENDMDL
MODEL 4
REMARK VINA RESULT:      -7.7      1.800      2.389
REMARK  Name = 
REMARK                            x       y       z     vdW  Elec       q    Type
REMARK                         _______ _______ _______ _____ _____    ______ ____
ROOT
ATOM      1  C   LIG    1       38.656   0.056  15.749  0.00  0.00    +0.015 C 
ATOM      2  C   LIG    1       38.839  -0.245  14.229  0.00  0.00    +0.021 C 
ATOM      3  C   LIG    1       37.616  -1.014  16.198  0.00  0.00    +0.021 C 
ENDROOT
BRANCH   1   7
ATOM      4  C   LIG    1       36.984   4.038  16.483  0.00  0.00    +0.117 A 
ATOM      5  C   LIG    1       37.921   3.864  15.479  0.00  0.00    +0.046 A 
ATOM      6  C   LIG    1       38.466   2.597  15.240  0.00  0.00    +0.008 A 
ATOM      7  C   LIG    1       38.075   1.474  15.994  0.00  0.00    -0.037 A 
ATOM      8  C   LIG    1       37.118   1.694  17.008  0.00  0.00    +0.008 A 
ATOM      9  C   LIG    1       36.576   2.961  17.255  0.00  0.00    +0.046 A 
BRANCH   4  10
ATOM     10  O   LIG    1       36.486   5.290  16.687  0.00  0.00    -0.507 OA
ATOM     11  H   LIG    1       35.711   5.410  16.114  0.00  0.00    +0.292 HD
ENDBRANCH   4  10
ENDBRANCH   1   7
BRANCH   1  12
ATOM     12  C   LIG    1       39.998  -0.129  16.512  0.00  0.00    -0.037 A 
ATOM     13  C   LIG    1       40.023  -0.367  17.902  0.00  0.00    +0.008 A 
ATOM     14  C   LIG    1       41.224  -0.534  18.603  0.00  0.00    +0.046 A 
ATOM     15  C   LIG    1       42.428  -0.473  17.919  0.00  0.00    +0.117 A 
ATOM     16  C   LIG    1       42.446  -0.232  16.556  0.00  0.00    +0.046 A 
ATOM     17  C   LIG    1       41.245  -0.048  15.861  0.00  0.00    +0.008 A 
BRANCH  15  18
ATOM     18  O   LIG    1       43.620  -0.643  18.557  0.00  0.00    -0.507 OA
ATOM     19  H   LIG    1       44.060  -1.426  18.185  0.00  0.00    +0.292 HD
ENDBRANCH  15  18
ENDBRANCH   1  12
TORSDOF 4
ENDMDL
MODEL 5
REMARK VINA RESULT:      -7.7      3.286      4.294
REMARK  Name = 
REMARK                            x       y       z     vdW  Elec       q    Type
REMARK                         _______ _______ _______ _____ _____    ______ ____
ROOT
ATOM      1  C   LIG    1       42.906  -1.369  17.206  0.00  0.00    +0.015 C 
ATOM      2  C   LIG    1       42.265  -1.070  18.596  0.00  0.00    +0.021 C 
ATOM      3  C   LIG    1       43.605  -0.024  16.843  0.00  0.00    +0.021 C 
ENDROOT
BRANCH   1   7
ATOM      4  C   LIG    1       39.912  -2.266  14.136  0.00  0.00    +0.117 A 
ATOM      5  C   LIG    1       39.777  -2.808  15.402  0.00  0.00    +0.046 A 
ATOM      6  C   LIG    1       40.731  -2.533  16.388  0.00  0.00    +0.008 A 
ATOM      7  C   LIG    1       41.835  -1.697  16.131  0.00  0.00    -0.037 A 
ATOM      8  C   LIG    1       41.936  -1.164  14.828  0.00  0.00    +0.008 A 
ATOM      9  C   LIG    1       40.988  -1.443  13.837  0.00  0.00    +0.046 A 
BRANCH   4  10
ATOM     10  O   LIG    1       38.964  -2.567  13.204  0.00  0.00    -0.507 OA
ATOM     11  H   LIG    1       38.545  -3.408  13.451  0.00  0.00    +0.292 HD
ENDBRANCH   4  10
ENDBRANCH   1   7
BRANCH   1  12
ATOM     12  C   LIG    1       43.948  -2.517  17.314  0.00  0.00    -0.037 A 
ATOM     13  C   LIG    1       43.812  -3.703  16.562  0.00  0.00    +0.008 A 
ATOM     14  C   LIG    1       44.742  -4.746  16.651  0.00  0.00    +0.046 A 
ATOM     15  C   LIG    1       45.836  -4.617  17.493  0.00  0.00    +0.117 A 
ATOM     16  C   LIG    1       46.000  -3.472  18.254  0.00  0.00    +0.046 A 
ATOM     17  C   LIG    1       45.059  -2.438  18.176  0.00  0.00    +0.008 A 
BRANCH  15  18
ATOM     18  O   LIG    1       46.773  -5.599  17.602  0.00  0.00    -0.507 OA
ATOM     19  H   LIG    1       47.496  -5.275  18.163  0.00  0.00    +0.292 HD
ENDBRANCH  15  18
ENDBRANCH   1  12
TORSDOF 4
ENDMDL
MODEL 6
REMARK VINA RESULT:      -7.7      2.214      6.181
REMARK  Name = 
REMARK                            x       y       z     vdW  Elec       q    Type
REMARK                         _______ _______ _______ _____ _____    ______ ____
ROOT
ATOM      1  C   LIG    1       38.434  -0.724  13.743  0.00  0.00    +0.015 C 
ATOM      2  C   LIG    1       37.227  -1.685  13.515  0.00  0.00    +0.021 C 
ATOM      3  C   LIG    1       38.897  -0.389  12.292  0.00  0.00    +0.021 C 
ENDROOT
BRANCH   1   7
ATOM      4  C   LIG    1       41.739  -2.635  15.891  0.00  0.00    +0.117 A 
ATOM      5  C   LIG    1       40.551  -3.324  15.710  0.00  0.00    +0.046 A 
ATOM      6  C   LIG    1       39.487  -2.720  15.030  0.00  0.00    +0.008 A 
ATOM      7  C   LIG    1       39.594  -1.417  14.506  0.00  0.00    -0.037 A 
ATOM      8  C   LIG    1       40.820  -0.749  14.712  0.00  0.00    +0.008 A 
ATOM      9  C   LIG    1       41.884  -1.347  15.398  0.00  0.00    +0.046 A 
BRANCH   4  10
ATOM     10  O   LIG    1       42.746  -3.258  16.566  0.00  0.00    -0.507 OA
ATOM     11  H   LIG    1       43.354  -3.650  15.918  0.00  0.00    +0.292 HD
ENDBRANCH   4  10
ENDBRANCH   1   7
BRANCH   1  12
ATOM     12  C   LIG    1       37.979   0.565  14.484  0.00  0.00    -0.037 A 
ATOM     13  C   LIG    1       37.512   0.519  15.814  0.00  0.00    +0.008 A 
ATOM     14  C   LIG    1       37.098   1.671  16.494  0.00  0.00    +0.046 A 
ATOM     15  C   LIG    1       37.151   2.899  15.852  0.00  0.00    +0.117 A 
ATOM     16  C   LIG    1       37.595   2.985  14.543  0.00  0.00    +0.046 A 
ATOM     17  C   LIG    1       37.992   1.829  13.861  0.00  0.00    +0.008 A 
BRANCH  15  18
ATOM     18  O   LIG    1       36.771   4.048  16.478  0.00  0.00    -0.507 OA
ATOM     19  H   LIG    1       37.354   4.767  16.182  0.00  0.00    +0.292 HD
ENDBRANCH  15  18
ENDBRANCH   1  12
TORSDOF 4
ENDMDL
MODEL 7
REMARK VINA RESULT:      -7.7      2.764      6.174
REMARK  Name = 
REMARK                            x       y       z     vdW  Elec       q    Type
REMARK                         _______ _______ _______ _____ _____    ______ ____
ROOT
ATOM      1  C   LIG    1       43.604  -3.338  15.820  0.00  0.00    +0.015 C 
ATOM      2  C   LIG    1       43.521  -4.893  15.737  0.00  0.00    +0.021 C 
ATOM      3  C   LIG    1       44.696  -2.985  14.764  0.00  0.00    +0.021 C 
ENDROOT
BRANCH   1   7
ATOM      4  C   LIG    1       44.957  -2.008  19.769  0.00  0.00    +0.117 A 
ATOM      5  C   LIG    1       43.809  -1.462  19.219  0.00  0.00    +0.046 A 
ATOM      6  C   LIG    1       43.372  -1.876  17.955  0.00  0.00    +0.008 A 
ATOM      7  C   LIG    1       44.068  -2.854  17.220  0.00  0.00    -0.037 A 
ATOM      8  C   LIG    1       45.233  -3.385  17.815  0.00  0.00    +0.008 A 
ATOM      9  C   LIG    1       45.677  -2.969  19.076  0.00  0.00    +0.046 A 
BRANCH   4  10
ATOM     10  O   LIG    1       45.351  -1.570  20.998  0.00  0.00    -0.507 OA
ATOM     11  H   LIG    1       46.262  -1.242  20.930  0.00  0.00    +0.292 HD
ENDBRANCH   4  10
ENDBRANCH   1   7
BRANCH   1  12
ATOM     12  C   LIG    1       42.243  -2.692  15.438  0.00  0.00    -0.037 A 
ATOM     13  C   LIG    1       41.019  -3.286  15.812  0.00  0.00    +0.008 A 
ATOM     14  C   LIG    1       39.786  -2.717  15.474  0.00  0.00    +0.046 A 
ATOM     15  C   LIG    1       39.754  -1.531  14.756  0.00  0.00    +0.117 A 
ATOM     16  C   LIG    1       40.934  -0.922  14.361  0.00  0.00    +0.046 A 
ATOM     17  C   LIG    1       42.165  -1.503  14.686  0.00  0.00    +0.008 A 
BRANCH  15  18
ATOM     18  O   LIG    1       38.578  -0.933  14.415  0.00  0.00    -0.507 OA
ATOM     19  H   LIG    1       38.536  -0.066  14.850  0.00  0.00    +0.292 HD
ENDBRANCH  15  18
ENDBRANCH   1  12
TORSDOF 4
ENDMDL
MODEL 8
REMARK VINA RESULT:      -7.7      2.266      3.035
REMARK  Name = 
REMARK                            x       y       z     vdW  Elec       q    Type
REMARK                         _______ _______ _______ _____ _____    ______ ____
ROOT
ATOM      1  C   LIG    1       38.522  -0.742  13.480  0.00  0.00    +0.015 C 
ATOM      2  C   LIG    1       38.934  -0.627  11.980  0.00  0.00    +0.021 C 
ATOM      3  C   LIG    1       37.255  -1.648  13.429  0.00  0.00    +0.021 C 
ENDROOT
BRANCH   1   7
ATOM      4  C   LIG    1       37.439   3.123  15.235  0.00  0.00    +0.117 A 
ATOM      5  C   LIG    1       37.999   3.080  13.970  0.00  0.00    +0.046 A 
ATOM      6  C   LIG    1       38.355   1.850  13.402  0.00  0.00    +0.008 A 
ATOM      7  C   LIG    1       38.144   0.637  14.085  0.00  0.00    -0.037 A 
ATOM      8  C   LIG    1       37.571   0.725  15.372  0.00  0.00    +0.008 A 
ATOM      9  C   LIG    1       37.221   1.953  15.945  0.00  0.00    +0.046 A 
BRANCH   4  10
ATOM     10  O   LIG    1       37.116   4.342  15.752  0.00  0.00    -0.507 OA
ATOM     11  H   LIG    1       37.724   5.004  15.383  0.00  0.00    +0.292 HD
ENDBRANCH   4  10
ENDBRANCH   1   7
BRANCH   1  12
ATOM     12  C   LIG    1       39.648  -1.419  14.311  0.00  0.00    -0.037 A 
ATOM     13  C   LIG    1       40.926  -0.833  14.426  0.00  0.00    +0.008 A 
ATOM     14  C   LIG    1       41.950  -1.432  15.170  0.00  0.00    +0.046 A 
ATOM     15  C   LIG    1       41.710  -2.632  15.821  0.00  0.00    +0.117 A 
ATOM     16  C   LIG    1       40.471  -3.243  15.725  0.00  0.00    +0.046 A 
ATOM     17  C   LIG    1       39.455  -2.650  14.966  0.00  0.00    +0.008 A 
BRANCH  15  18
ATOM     18  O   LIG    1       42.671  -3.244  16.567  0.00  0.00    -0.507 OA
ATOM     19  H   LIG    1       43.459  -2.677  16.582  0.00  0.00    +0.292 HD
ENDBRANCH  15  18
ENDBRANCH   1  12
TORSDOF 4
ENDMDL
MODEL 9
REMARK VINA RESULT:      -7.6      1.639      5.973
REMARK  Name = 
REMARK                            x       y       z     vdW  Elec       q    Type
REMARK                         _______ _______ _______ _____ _____    ______ ____
ROOT
ATOM      1  C   LIG    1       38.854  -0.054  15.943  0.00  0.00    +0.015 C 
ATOM      2  C   LIG    1       37.791  -1.114  16.369  0.00  0.00    +0.021 C 
ATOM      3  C   LIG    1       39.067  -0.357  14.429  0.00  0.00    +0.021 C 
ENDROOT
BRANCH   1   7
ATOM      4  C   LIG    1       42.669  -0.577  18.031  0.00  0.00    +0.117 A 
ATOM      5  C   LIG    1       41.490  -0.561  18.755  0.00  0.00    +0.046 A 
ATOM      6  C   LIG    1       40.265  -0.389  18.098  0.00  0.00    +0.008 A 
ATOM      7  C   LIG    1       40.196  -0.241  16.700  0.00  0.00    -0.037 A 
ATOM      8  C   LIG    1       41.420  -0.262  15.998  0.00  0.00    +0.008 A 
ATOM      9  C   LIG    1       42.647  -0.427  16.652  0.00  0.00    +0.046 A 
BRANCH   4  10
ATOM     10  O   LIG    1       43.839  -0.739  18.712  0.00  0.00    -0.507 OA
ATOM     11  H   LIG    1       43.710  -0.428  19.623  0.00  0.00    +0.292 HD
ENDBRANCH   4  10
ENDBRANCH   1   7
BRANCH   1  12
ATOM     12  C   LIG    1       38.305   1.387  16.141  0.00  0.00    -0.037 A 
ATOM     13  C   LIG    1       37.152   1.631  16.917  0.00  0.00    +0.008 A 
ATOM     14  C   LIG    1       36.646   2.924  17.103  0.00  0.00    +0.046 A 
ATOM     15  C   LIG    1       37.292   4.002  16.519  0.00  0.00    +0.117 A 
ATOM     16  C   LIG    1       38.422   3.802  15.742  0.00  0.00    +0.046 A 
ATOM     17  C   LIG    1       38.915   2.507  15.544  0.00  0.00    +0.008 A 
BRANCH  15  18
ATOM     18  O   LIG    1       36.844   5.278  16.683  0.00  0.00    -0.507 OA
ATOM     19  H   LIG    1       37.589   5.886  16.548  0.00  0.00    +0.292 HD
ENDBRANCH  15  18
ENDBRANCH   1  12
TORSDOF 4
ENDMDL
