MODEL 1
REMARK VINA RESULT:      -8.1      0.000      0.000
REMARK  Name = 
REMARK                            x       y       z     vdW  Elec       q    Type
REMARK                         _______ _______ _______ _____ _____    ______ ____
ROOT
ATOM      1  C   LIG    1       18.659  29.227  10.734  0.00  0.00    +0.015 C 
ATOM      2  C   LIG    1       19.194  29.910  12.030  0.00  0.00    +0.021 C 
ATOM      3  C   LIG    1       18.191  27.828  11.240  0.00  0.00    +0.021 C 
ENDROOT
BRANCH   1   7
ATOM      4  C   LIG    1       21.801  28.652   7.736  0.00  0.00    +0.117 A 
ATOM      5  C   LIG    1       21.462  29.934   8.135  0.00  0.00    +0.046 A 
ATOM      6  C   LIG    1       20.455  30.129   9.088  0.00  0.00    +0.008 A 
ATOM      7  C   LIG    1       19.775  29.043   9.671  0.00  0.00    -0.037 A 
ATOM      8  C   LIG    1       20.149  27.753   9.237  0.00  0.00    +0.008 A 
ATOM      9  C   LIG    1       21.150  27.555   8.279  0.00  0.00    +0.046 A 
BRANCH   4  10
ATOM     10  O   LIG    1       22.780  28.509   6.799  0.00  0.00    -0.507 OA
ATOM     11  H   LIG    1       23.212  29.370   6.671  0.00  0.00    +0.292 HD
ENDBRANCH   4  10
ENDBRANCH   1   7
BRANCH   1  12
ATOM     12  C   LIG    1       17.462  30.025  10.145  0.00  0.00    -0.037 A 
ATOM     13  C   LIG    1       16.909  31.128  10.829  0.00  0.00    +0.008 A 
ATOM     14  C   LIG    1       15.830  31.855  10.311  0.00  0.00    +0.046 A 
ATOM     15  C   LIG    1       15.287  31.494   9.088  0.00  0.00    +0.117 A 
ATOM     16  C   LIG    1       15.796  30.412   8.389  0.00  0.00    +0.046 A 
ATOM     17  C   LIG    1       16.863  29.676   8.918  0.00  0.00    +0.008 A 
BRANCH  15  18
ATOM     18  O   LIG    1       14.247  32.180   8.538  0.00  0.00    -0.507 OA
ATOM     19  H   LIG    1       13.659  31.547   8.094  0.00  0.00    +0.292 HD
ENDBRANCH  15  18
ENDBRANCH   1  12
TORSDOF 4
ENDMDL
MODEL 2
REMARK VINA RESULT:      -8.1      0.056      5.620
REMARK  Name = 
REMARK                            x       y       z     vdW  Elec       q    Type
REMARK                         _______ _______ _______ _____ _____    ______ ____
ROOT
ATOM      1  C   LIG    1       18.646  29.200  10.688  0.00  0.00    +0.015 C 
ATOM      2  C   LIG    1       18.198  27.820  11.261  0.00  0.00    +0.021 C 
ATOM      3  C   LIG    1       19.194  29.942  11.945  0.00  0.00    +0.021 C 
ENDROOT
BRANCH   1   7
ATOM      4  C   LIG    1       15.282  31.488   9.065  0.00  0.00    +0.117 A 
ATOM      5  C   LIG    1       15.796  30.423   8.345  0.00  0.00    +0.046 A 
ATOM      6  C   LIG    1       16.875  29.689   8.852  0.00  0.00    +0.008 A 
ATOM      7  C   LIG    1       17.454  29.999  10.097  0.00  0.00    -0.037 A 
ATOM      8  C   LIG    1       16.901  31.091  10.800  0.00  0.00    +0.008 A 
ATOM      9  C   LIG    1       15.827  31.832  10.292  0.00  0.00    +0.046 A 
BRANCH   4  10
ATOM     10  O   LIG    1       14.237  32.180   8.529  0.00  0.00    -0.507 OA
ATOM     11  H   LIG    1       14.407  33.129   8.641  0.00  0.00    +0.292 HD
ENDBRANCH   4  10
ENDBRANCH   1   7
BRANCH   1  12
ATOM     12  C   LIG    1       19.767  29.017   9.627  0.00  0.00    -0.037 A 
ATOM     13  C   LIG    1       20.452  30.127   9.087  0.00  0.00    +0.008 A 
ATOM     14  C   LIG    1       21.463  29.978   8.130  0.00  0.00    +0.046 A 
ATOM     15  C   LIG    1       21.814  28.708   7.698  0.00  0.00    +0.117 A 
ATOM     16  C   LIG    1       21.160  27.594   8.198  0.00  0.00    +0.046 A 
ATOM     17  C   LIG    1       20.138  27.748   9.142  0.00  0.00    +0.008 A 
BRANCH  15  18
ATOM     18  O   LIG    1       22.801  28.514   6.779  0.00  0.00    -0.507 OA
ATOM     19  H   LIG    1       22.927  27.558   6.659  0.00  0.00    +0.292 HD
ENDBRANCH  15  18
ENDBRANCH   1  12
TORSDOF 4
ENDMDL
MODEL 3
REMARK VINA RESULT:      -7.9      2.640      5.669
REMARK  Name = 
REMARK                            x       y       z     vdW  Elec       q    Type
REMARK                         _______ _______ _______ _____ _____    ______ ____
ROOT
ATOM      1  C   LIG    1       18.770  29.477  10.105  0.00  0.00    +0.015 C 
ATOM      2  C   LIG    1       20.020  30.166   9.474  0.00  0.00    +0.021 C 
ATOM      3  C   LIG    1       18.735  28.091   9.392  0.00  0.00    +0.021 C 
ENDROOT
BRANCH   1   7
ATOM      4  C   LIG    1       15.070  31.630   9.176  0.00  0.00    +0.117 A 
ATOM      5  C   LIG    1       15.750  31.913  10.347  0.00  0.00    +0.046 A 
ATOM      6  C   LIG    1       16.930  31.227  10.657  0.00  0.00    +0.008 A 
ATOM      7  C   LIG    1       17.461  30.250   9.792  0.00  0.00    -0.037 A 
ATOM      8  C   LIG    1       16.737  29.990   8.608  0.00  0.00    +0.008 A 
ATOM      9  C   LIG    1       15.553  30.670   8.300  0.00  0.00    +0.046 A 
BRANCH   4  10
ATOM     10  O   LIG    1       13.921  32.316   8.919  0.00  0.00    -0.507 OA
ATOM     11  H   LIG    1       14.094  32.949   8.203  0.00  0.00    +0.292 HD
ENDBRANCH   4  10
ENDBRANCH   1   7
BRANCH   1  12
ATOM     12  C   LIG    1       18.953  29.300  11.638  0.00  0.00    -0.037 A 
ATOM     13  C   LIG    1       18.293  28.270  12.341  0.00  0.00    +0.008 A 
ATOM     14  C   LIG    1       18.448  28.100  13.722  0.00  0.00    +0.046 A 
ATOM     15  C   LIG    1       19.276  28.959  14.428  0.00  0.00    +0.117 A 
ATOM     16  C   LIG    1       19.934  29.988  13.776  0.00  0.00    +0.046 A 
ATOM     17  C   LIG    1       19.764  30.166  12.398  0.00  0.00    +0.008 A 
BRANCH  15  18
ATOM     18  O   LIG    1       19.467  28.823  15.770  0.00  0.00    -0.507 OA
ATOM     19  H   LIG    1       20.421  28.756  15.941  0.00  0.00    +0.292 HD
ENDBRANCH  15  18
ENDBRANCH   1  12
TORSDOF 4
ENDMDL
MODEL 4
REMARK VINA RESULT:      -7.9      2.622      4.246
REMARK  Name = 
REMARK                            x       y       z     vdW  Elec       q    Type
REMARK                         _______ _______ _______ _____ _____    ______ ____
ROOT
ATOM      1  C   LIG    1       18.794  29.403  10.087  0.00  0.00    +0.015 C 
ATOM      2  C   LIG    1       18.824  28.029   9.350  0.00  0.00    +0.021 C 
ATOM      3  C   LIG    1       20.020  30.154   9.484  0.00  0.00    +0.021 C 
ENDROOT
BRANCH   1   7
ATOM      4  C   LIG    1       19.382  29.001  14.409  0.00  0.00    +0.117 A 
ATOM      5  C   LIG    1       18.497  28.159  13.758  0.00  0.00    +0.046 A 
ATOM      6  C   LIG    1       18.297  28.283  12.378  0.00  0.00    +0.008 A 
ATOM      7  C   LIG    1       18.989  29.246  11.619  0.00  0.00    -0.037 A 
ATOM      8  C   LIG    1       19.882  30.085  12.320  0.00  0.00    +0.008 A 
ATOM      9  C   LIG    1       20.078  29.969  13.701  0.00  0.00    +0.046 A 
BRANCH   4  10
ATOM     10  O   LIG    1       19.539  28.851  15.755  0.00  0.00    -0.507 OA
ATOM     11  H   LIG    1       20.042  29.610  16.093  0.00  0.00    +0.292 HD
ENDBRANCH   4  10
ENDBRANCH   1   7
BRANCH   1  12
ATOM     12  C   LIG    1       17.476  30.167   9.775  0.00  0.00    -0.037 A 
ATOM     13  C   LIG    1       16.686  29.837   8.653  0.00  0.00    +0.008 A 
ATOM     14  C   LIG    1       15.497  30.517   8.360  0.00  0.00    +0.046 A 
ATOM     15  C   LIG    1       15.072  31.540   9.192  0.00  0.00    +0.117 A 
ATOM     16  C   LIG    1       15.824  31.900  10.298  0.00  0.00    +0.046 A 
ATOM     17  C   LIG    1       17.020  31.230  10.579  0.00  0.00    +0.008 A 
BRANCH  15  18
ATOM     18  O   LIG    1       13.916  32.220   8.954  0.00  0.00    -0.507 OA
ATOM     19  H   LIG    1       13.657  32.074   8.029  0.00  0.00    +0.292 HD
ENDBRANCH  15  18
ENDBRANCH   1  12
TORSDOF 4
ENDMDL
MODEL 5
REMARK VINA RESULT:      -7.4      3.132      5.863
REMARK  Name = 
REMARK                            x       y       z     vdW  Elec       q    Type
REMARK                         _______ _______ _______ _____ _____    ______ ____
ROOT
ATOM      1  C   LIG    1       17.995  30.124  13.236  0.00  0.00    +0.015 C 
ATOM      2  C   LIG    1       17.029  29.383  14.212  0.00  0.00    +0.021 C 
ATOM      3  C   LIG    1       17.580  31.618  13.395  0.00  0.00    +0.021 C 
ENDROOT
BRANCH   1   7
ATOM      4  C   LIG    1       17.376  28.936   9.065  0.00  0.00    +0.117 A 
ATOM      5  C   LIG    1       17.902  28.025   9.965  0.00  0.00    +0.046 A 
ATOM      6  C   LIG    1       18.109  28.396  11.299  0.00  0.00    +0.008 A 
ATOM      7  C   LIG    1       17.782  29.685  11.762  0.00  0.00    -0.037 A 
ATOM      8  C   LIG    1       17.249  30.584  10.814  0.00  0.00    +0.008 A 
ATOM      9  C   LIG    1       17.047  30.218   9.478  0.00  0.00    +0.046 A 
BRANCH   4  10
ATOM     10  O   LIG    1       17.198  28.534   7.775  0.00  0.00    -0.507 OA
ATOM     11  H   LIG    1       18.030  28.150   7.455  0.00  0.00    +0.292 HD
ENDBRANCH   4  10
ENDBRANCH   1   7
BRANCH   1  12
ATOM     12  C   LIG    1       19.475  29.918  13.664  0.00  0.00    -0.037 A 
ATOM     13  C   LIG    1       19.805  29.263  14.870  0.00  0.00    +0.008 A 
ATOM     14  C   LIG    1       21.134  29.072  15.268  0.00  0.00    +0.046 A 
ATOM     15  C   LIG    1       22.163  29.529  14.460  0.00  0.00    +0.117 A 
ATOM     16  C   LIG    1       21.880  30.185  13.273  0.00  0.00    +0.046 A 
ATOM     17  C   LIG    1       20.551  30.390  12.886  0.00  0.00    +0.008 A 
BRANCH  15  18
ATOM     18  O   LIG    1       23.470  29.353  14.800  0.00  0.00    -0.507 OA
ATOM     19  H   LIG    1       23.511  28.781  15.583  0.00  0.00    +0.292 HD
ENDBRANCH  15  18
ENDBRANCH   1  12
TORSDOF 4
ENDMDL
MODEL 6
REMARK VINA RESULT:      -7.4      3.049      5.792
REMARK  Name = 
REMARK                            x       y       z     vdW  Elec       q    Type
REMARK                         _______ _______ _______ _____ _____    ______ ____
ROOT
ATOM      1  C   LIG    1       19.319  29.066  11.035  0.00  0.00    +0.015 C 
ATOM      2  C   LIG    1       18.616  30.406  10.653  0.00  0.00    +0.021 C 
ATOM      3  C   LIG    1       18.130  28.064  11.148  0.00  0.00    +0.021 C 
ENDROOT
BRANCH   1   7
ATOM      4  C   LIG    1       21.327  29.304  14.920  0.00  0.00    +0.117 A 
ATOM      5  C   LIG    1       21.934  29.850  13.802  0.00  0.00    +0.046 A 
ATOM      6  C   LIG    1       21.303  29.774  12.555  0.00  0.00    +0.008 A 
ATOM      7  C   LIG    1       20.045  29.160  12.403  0.00  0.00    -0.037 A 
ATOM      8  C   LIG    1       19.461  28.615  13.567  0.00  0.00    +0.008 A 
ATOM      9  C   LIG    1       20.092  28.683  14.814  0.00  0.00    +0.046 A 
BRANCH   4  10
ATOM     10  O   LIG    1       21.981  29.393  16.113  0.00  0.00    -0.507 OA
ATOM     11  H   LIG    1       22.779  28.841  16.069  0.00  0.00    +0.292 HD
ENDBRANCH   4  10
ENDBRANCH   1   7
BRANCH   1  12
ATOM     12  C   LIG    1       20.304  28.624   9.917  0.00  0.00    -0.037 A 
ATOM     13  C   LIG    1       20.797  29.544   8.967  0.00  0.00    +0.008 A 
ATOM     14  C   LIG    1       21.683  29.159   7.954  0.00  0.00    +0.046 A 
ATOM     15  C   LIG    1       22.102  27.840   7.877  0.00  0.00    +0.117 A 
ATOM     16  C   LIG    1       21.634  26.904   8.785  0.00  0.00    +0.046 A 
ATOM     17  C   LIG    1       20.734  27.289   9.785  0.00  0.00    +0.008 A 
BRANCH  15  18
ATOM     18  O   LIG    1       22.974  27.423   6.917  0.00  0.00    -0.507 OA
ATOM     19  H   LIG    1       22.465  27.056   6.176  0.00  0.00    +0.292 HD
ENDBRANCH  15  18
ENDBRANCH   1  12
TORSDOF 4
ENDMDL
MODEL 7
REMARK VINA RESULT:      -7.4      2.476      4.025
REMARK  Name = 
REMARK                            x       y       z     vdW  Elec       q    Type
REMARK                         _______ _______ _______ _____ _____    ______ ____
ROOT
ATOM      1  C   LIG    1       18.171  29.221   9.764  0.00  0.00    +0.015 C 
ATOM      2  C   LIG    1       17.152  28.157   9.251  0.00  0.00    +0.021 C 
ATOM      3  C   LIG    1       17.487  30.572   9.394  0.00  0.00    +0.021 C 
ENDROOT
BRANCH   1   7
ATOM      4  C   LIG    1       22.029  28.984   7.702  0.00  0.00    +0.117 A 
ATOM      5  C   LIG    1       21.331  27.822   7.982  0.00  0.00    +0.046 A 
ATOM      6  C   LIG    1       20.100  27.886   8.646  0.00  0.00    +0.008 A 
ATOM      7  C   LIG    1       19.536  29.117   9.033  0.00  0.00    -0.037 A 
ATOM      8  C   LIG    1       20.280  30.278   8.730  0.00  0.00    +0.008 A 
ATOM      9  C   LIG    1       21.514  30.217   8.073  0.00  0.00    +0.046 A 
BRANCH   4  10
ATOM     10  O   LIG    1       23.227  28.875   7.062  0.00  0.00    -0.507 OA
ATOM     11  H   LIG    1       23.862  29.470   7.493  0.00  0.00    +0.292 HD
ENDBRANCH   4  10
ENDBRANCH   1   7
BRANCH   1  12
ATOM     12  C   LIG    1       18.360  29.105  11.303  0.00  0.00    -0.037 A 
ATOM     13  C   LIG    1       18.478  27.849  11.935  0.00  0.00    +0.008 A 
ATOM     14  C   LIG    1       18.647  27.730  13.320  0.00  0.00    +0.046 A 
ATOM     15  C   LIG    1       18.709  28.873  14.101  0.00  0.00    +0.117 A 
ATOM     16  C   LIG    1       18.589  30.125  13.520  0.00  0.00    +0.046 A 
ATOM     17  C   LIG    1       18.402  30.239  12.137  0.00  0.00    +0.008 A 
BRANCH  15  18
ATOM     18  O   LIG    1       18.887  28.807  15.450  0.00  0.00    -0.507 OA
ATOM     19  H   LIG    1       18.231  28.192  15.818  0.00  0.00    +0.292 HD
ENDBRANCH  15  18
ENDBRANCH   1  12
TORSDOF 4
ENDMDL
MODEL 8
REMARK VINA RESULT:      -7.4      3.041      4.858
REMARK  Name = 
REMARK                            x       y       z     vdW  Elec       q    Type
REMARK                         _______ _______ _______ _____ _____    ______ ____
ROOT
ATOM      1  C   LIG    1       19.279  29.035  11.087  0.00  0.00    +0.015 C 
ATOM      2  C   LIG    1       18.068  28.058  11.197  0.00  0.00    +0.021 C 
ATOM      3  C   LIG    1       18.606  30.389  10.710  0.00  0.00    +0.021 C 
ENDROOT
BRANCH   1   7
ATOM      4  C   LIG    1       22.053  27.805   7.927  0.00  0.00    +0.117 A 
ATOM      5  C   LIG    1       21.644  29.126   8.003  0.00  0.00    +0.046 A 
ATOM      6  C   LIG    1       20.753  29.527   9.005  0.00  0.00    +0.008 A 
ATOM      7  C   LIG    1       20.262  28.617   9.961  0.00  0.00    -0.037 A 
ATOM      8  C   LIG    1       20.703  27.281   9.849  0.00  0.00    +0.008 A 
ATOM      9  C   LIG    1       21.588  26.874   8.843  0.00  0.00    +0.046 A 
BRANCH   4  10
ATOM     10  O   LIG    1       22.914  27.456   6.930  0.00  0.00    -0.507 OA
ATOM     11  H   LIG    1       23.305  26.594   7.149  0.00  0.00    +0.292 HD
ENDBRANCH   4  10
ENDBRANCH   1   7
BRANCH   1  12
ATOM     12  C   LIG    1       20.019  29.151  12.449  0.00  0.00    -0.037 A 
ATOM     13  C   LIG    1       19.437  28.671  13.642  0.00  0.00    +0.008 A 
ATOM     14  C   LIG    1       20.091  28.770  14.876  0.00  0.00    +0.046 A 
ATOM     15  C   LIG    1       21.350  29.348  14.938  0.00  0.00    +0.117 A 
ATOM     16  C   LIG    1       21.951  29.839  13.791  0.00  0.00    +0.046 A 
ATOM     17  C   LIG    1       21.287  29.754  12.562  0.00  0.00    +0.008 A 
BRANCH  15  18
ATOM     18  O   LIG    1       22.030  29.453  16.114  0.00  0.00    -0.507 OA
ATOM     19  H   LIG    1       22.821  29.997  15.965  0.00  0.00    +0.292 HD
ENDBRANCH  15  18
ENDBRANCH   1  12
TORSDOF 4
ENDMDL
MODEL 9
REMARK VINA RESULT:      -6.1      1.944      2.982
REMARK  Name = 
REMARK                            x       y       z     vdW  Elec       q    Type
REMARK                         _______ _______ _______ _____ _____    ______ ____
ROOT
ATOM      1  C   LIG    1       17.834  29.344   9.222  0.00  0.00    +0.015 C 
ATOM      2  C   LIG    1       17.105  27.966   9.265  0.00  0.00    +0.021 C 
ATOM      3  C   LIG    1       17.017  30.143   8.162  0.00  0.00    +0.021 C 
ENDROOT
BRANCH   1   7
ATOM      4  C   LIG    1       21.977  28.909   7.866  0.00  0.00    +0.117 A 
ATOM      5  C   LIG    1       21.480  30.169   8.154  0.00  0.00    +0.046 A 
ATOM      6  C   LIG    1       20.156  30.319   8.582  0.00  0.00    +0.008 A 
ATOM      7  C   LIG    1       19.304  29.209   8.743  0.00  0.00    -0.037 A 
ATOM      8  C   LIG    1       19.849  27.943   8.439  0.00  0.00    +0.008 A 
ATOM      9  C   LIG    1       21.170  27.789   8.004  0.00  0.00    +0.046 A 
BRANCH   4  10
ATOM     10  O   LIG    1       23.269  28.809   7.445  0.00  0.00    -0.507 OA
ATOM     11  H   LIG    1       23.450  29.541   6.832  0.00  0.00    +0.292 HD
ENDBRANCH   4  10
ENDBRANCH   1   7
BRANCH   1  12
ATOM     12  C   LIG    1       17.768  30.046  10.608  0.00  0.00    -0.037 A 
ATOM     13  C   LIG    1       18.309  29.441  11.762  0.00  0.00    +0.008 A 
ATOM     14  C   LIG    1       18.256  30.060  13.016  0.00  0.00    +0.046 A 
ATOM     15  C   LIG    1       17.663  31.307  13.138  0.00  0.00    +0.117 A 
ATOM     16  C   LIG    1       17.112  31.931  12.030  0.00  0.00    +0.046 A 
ATOM     17  C   LIG    1       17.152  31.300  10.781  0.00  0.00    +0.008 A 
BRANCH  15  18
ATOM     18  O   LIG    1       17.600  31.955  14.335  0.00  0.00    -0.507 OA
ATOM     19  H   LIG    1       16.968  32.688  14.256  0.00  0.00    +0.292 HD
ENDBRANCH  15  18
ENDBRANCH   1  12
TORSDOF 4
ENDMDL
