MODEL 1
REMARK VINA RESULT:      -8.5      0.000      0.000
REMARK  Name = 
REMARK                            x       y       z     vdW  Elec       q    Type
REMARK                         _______ _______ _______ _____ _____    ______ ____
ROOT
ATOM      1  C   LIG    1       30.329  -1.019  27.727  0.00  0.00    +0.015 C 
ATOM      2  C   LIG    1       31.231  -1.295  28.970  0.00  0.00    +0.021 C 
ATOM      3  C   LIG    1       30.162   0.531  27.750  0.00  0.00    +0.021 C 
ENDROOT
BRANCH   1   7
ATOM      4  C   LIG    1       26.420  -2.959  28.106  0.00  0.00    +0.117 A 
ATOM      5  C   LIG    1       26.491  -1.582  27.979  0.00  0.00    +0.046 A 
ATOM      6  C   LIG    1       27.736  -0.952  27.864  0.00  0.00    +0.008 A 
ATOM      7  C   LIG    1       28.935  -1.689  27.860  0.00  0.00    -0.037 A 
ATOM      8  C   LIG    1       28.820  -3.089  27.992  0.00  0.00    +0.008 A 
ATOM      9  C   LIG    1       27.577  -3.722  28.115  0.00  0.00    +0.046 A 
BRANCH   4  10
ATOM     10  O   LIG    1       25.188  -3.530  28.224  0.00  0.00    -0.507 OA
ATOM     11  H   LIG    1       25.295  -4.495  28.231  0.00  0.00    +0.292 HD
ENDBRANCH   4  10
ENDBRANCH   1   7
BRANCH   1  12
ATOM     12  C   LIG    1       31.037  -1.475  26.420  0.00  0.00    -0.037 A 
ATOM     13  C   LIG    1       31.912  -2.582  26.409  0.00  0.00    +0.008 A 
ATOM     14  C   LIG    1       32.558  -3.002  25.240  0.00  0.00    +0.046 A 
ATOM     15  C   LIG    1       32.332  -2.323  24.052  0.00  0.00    +0.117 A 
ATOM     16  C   LIG    1       31.488  -1.226  24.024  0.00  0.00    +0.046 A 
ATOM     17  C   LIG    1       30.858  -0.797  25.199  0.00  0.00    +0.008 A 
BRANCH  15  18
ATOM     18  O   LIG    1       32.927  -2.705  22.888  0.00  0.00    -0.507 OA
ATOM     19  H   LIG    1       32.452  -3.475  22.536  0.00  0.00    +0.292 HD
ENDBRANCH  15  18
ENDBRANCH   1  12
TORSDOF 4
ENDMDL
MODEL 2
REMARK VINA RESULT:      -8.5      0.057      5.610
REMARK  Name = 
REMARK                            x       y       z     vdW  Elec       q    Type
REMARK                         _______ _______ _______ _____ _____    ______ ____
ROOT
ATOM      1  C   LIG    1       30.307  -1.007  27.733  0.00  0.00    +0.015 C 
ATOM      2  C   LIG    1       30.180   0.544  27.838  0.00  0.00    +0.021 C 
ATOM      3  C   LIG    1       31.215  -1.370  28.947  0.00  0.00    +0.021 C 
ENDROOT
BRANCH   1   7
ATOM      4  C   LIG    1       32.303  -2.286  24.050  0.00  0.00    +0.117 A 
ATOM      5  C   LIG    1       31.471  -1.180  24.028  0.00  0.00    +0.046 A 
ATOM      6  C   LIG    1       30.824  -0.766  25.198  0.00  0.00    +0.008 A 
ATOM      7  C   LIG    1       31.006  -1.445  26.418  0.00  0.00    -0.037 A 
ATOM      8  C   LIG    1       31.862  -2.567  26.398  0.00  0.00    +0.008 A 
ATOM      9  C   LIG    1       32.505  -2.988  25.228  0.00  0.00    +0.046 A 
BRANCH   4  10
ATOM     10  O   LIG    1       32.907  -2.658  22.885  0.00  0.00    -0.507 OA
ATOM     11  H   LIG    1       33.664  -3.227  23.100  0.00  0.00    +0.292 HD
ENDBRANCH   4  10
ENDBRANCH   1   7
BRANCH   1  12
ATOM     12  C   LIG    1       28.914  -1.684  27.869  0.00  0.00    -0.037 A 
ATOM     13  C   LIG    1       27.727  -0.922  27.875  0.00  0.00    +0.008 A 
ATOM     14  C   LIG    1       26.465  -1.518  27.998  0.00  0.00    +0.046 A 
ATOM     15  C   LIG    1       26.369  -2.897  28.110  0.00  0.00    +0.117 A 
ATOM     16  C   LIG    1       27.512  -3.679  28.117  0.00  0.00    +0.046 A 
ATOM     17  C   LIG    1       28.772  -3.078  28.012  0.00  0.00    +0.008 A 
BRANCH  15  18
ATOM     18  O   LIG    1       25.163  -3.522  28.218  0.00  0.00    -0.507 OA
ATOM     19  H   LIG    1       25.302  -4.478  28.117  0.00  0.00    +0.292 HD
ENDBRANCH  15  18
ENDBRANCH   1  12
TORSDOF 4
ENDMDL
MODEL 3
REMARK VINA RESULT:      -8.5      0.085      5.609
REMARK  Name = 
REMARK                            x       y       z     vdW  Elec       q    Type
REMARK                         _______ _______ _______ _____ _____    ______ ____
ROOT
ATOM      1  C   LIG    1       30.316  -0.981  27.681  0.00  0.00    +0.015 C 
ATOM      2  C   LIG    1       30.164   0.572  27.677  0.00  0.00    +0.021 C 
ATOM      3  C   LIG    1       31.189  -1.247  28.944  0.00  0.00    +0.021 C 
ENDROOT
BRANCH   1   7
ATOM      4  C   LIG    1       32.401  -2.392  24.096  0.00  0.00    +0.117 A 
ATOM      5  C   LIG    1       32.591  -3.048  25.301  0.00  0.00    +0.046 A 
ATOM      6  C   LIG    1       31.934  -2.601  26.453  0.00  0.00    +0.008 A 
ATOM      7  C   LIG    1       31.063  -1.495  26.421  0.00  0.00    -0.037 A 
ATOM      8  C   LIG    1       30.897  -0.854  25.175  0.00  0.00    +0.008 A 
ATOM      9  C   LIG    1       31.559  -1.294  24.022  0.00  0.00    +0.046 A 
BRANCH   4  10
ATOM     10  O   LIG    1       33.068  -2.855  23.001  0.00  0.00    -0.507 OA
ATOM     11  H   LIG    1       33.109  -2.143  22.342  0.00  0.00    +0.292 HD
ENDBRANCH   4  10
ENDBRANCH   1   7
BRANCH   1  12
ATOM     12  C   LIG    1       28.929  -1.670  27.819  0.00  0.00    -0.037 A 
ATOM     13  C   LIG    1       28.816  -3.071  27.938  0.00  0.00    +0.008 A 
ATOM     14  C   LIG    1       27.573  -3.706  28.061  0.00  0.00    +0.046 A 
ATOM     15  C   LIG    1       26.416  -2.944  28.075  0.00  0.00    +0.117 A 
ATOM     16  C   LIG    1       26.484  -1.566  27.951  0.00  0.00    +0.046 A 
ATOM     17  C   LIG    1       27.726  -0.937  27.810  0.00  0.00    +0.008 A 
BRANCH  15  18
ATOM     18  O   LIG    1       25.186  -3.516  28.206  0.00  0.00    -0.507 OA
ATOM     19  H   LIG    1       25.292  -4.481  28.196  0.00  0.00    +0.292 HD
ENDBRANCH  15  18
ENDBRANCH   1  12
TORSDOF 4
ENDMDL
MODEL 4
REMARK VINA RESULT:      -8.4      2.574      4.113
REMARK  Name = 
REMARK                            x       y       z     vdW  Elec       q    Type
REMARK                         _______ _______ _______ _____ _____    ______ ____
ROOT
ATOM      1  C   LIG    1       30.322  -1.355  27.039  0.00  0.00    +0.015 C 
ATOM      2  C   LIG    1       30.287  -0.507  25.731  0.00  0.00    +0.021 C 
ATOM      3  C   LIG    1       31.278  -2.531  26.672  0.00  0.00    +0.021 C 
ENDROOT
BRANCH   1   7
ATOM      4  C   LIG    1       26.399  -3.004  28.079  0.00  0.00    +0.117 A 
ATOM      5  C   LIG    1       26.491  -1.710  27.595  0.00  0.00    +0.046 A 
ATOM      6  C   LIG    1       27.741  -1.172  27.266  0.00  0.00    +0.008 A 
ATOM      7  C   LIG    1       28.924  -1.923  27.402  0.00  0.00    -0.037 A 
ATOM      8  C   LIG    1       28.787  -3.237  27.899  0.00  0.00    +0.008 A 
ATOM      9  C   LIG    1       27.540  -3.776  28.236  0.00  0.00    +0.046 A 
BRANCH   4  10
ATOM     10  O   LIG    1       25.164  -3.485  28.395  0.00  0.00    -0.507 OA
ATOM     11  H   LIG    1       24.506  -3.029  27.845  0.00  0.00    +0.292 HD
ENDBRANCH   4  10
ENDBRANCH   1   7
BRANCH   1  12
ATOM     12  C   LIG    1       30.903  -0.525  28.219  0.00  0.00    -0.037 A 
ATOM     13  C   LIG    1       30.853   0.885  28.216  0.00  0.00    +0.008 A 
ATOM     14  C   LIG    1       31.373   1.646  29.271  0.00  0.00    +0.046 A 
ATOM     15  C   LIG    1       31.950   1.005  30.356  0.00  0.00    +0.117 A 
ATOM     16  C   LIG    1       32.026  -0.378  30.392  0.00  0.00    +0.046 A 
ATOM     17  C   LIG    1       31.521  -1.134  29.328  0.00  0.00    +0.008 A 
BRANCH  15  18
ATOM     18  O   LIG    1       32.457   1.702  31.411  0.00  0.00    -0.507 OA
ATOM     19  H   LIG    1       33.413   1.810  31.279  0.00  0.00    +0.292 HD
ENDBRANCH  15  18
ENDBRANCH   1  12
TORSDOF 4
ENDMDL
MODEL 5
REMARK VINA RESULT:      -8.4      2.587      5.452
REMARK  Name = 
REMARK                            x       y       z     vdW  Elec       q    Type
REMARK                         _______ _______ _______ _____ _____    ______ ____
ROOT
ATOM      1  C   LIG    1       30.280  -1.369  27.039  0.00  0.00    +0.015 C 
ATOM      2  C   LIG    1       31.252  -2.511  26.609  0.00  0.00    +0.021 C 
ATOM      3  C   LIG    1       30.192  -0.481  25.761  0.00  0.00    +0.021 C 
ENDROOT
BRANCH   1   7
ATOM      4  C   LIG    1       31.916   0.957  30.371  0.00  0.00    +0.117 A 
ATOM      5  C   LIG    1       31.276   1.609  29.331  0.00  0.00    +0.046 A 
ATOM      6  C   LIG    1       30.755   0.876  28.258  0.00  0.00    +0.008 A 
ATOM      7  C   LIG    1       30.853  -0.528  28.211  0.00  0.00    -0.037 A 
ATOM      8  C   LIG    1       31.513  -1.154  29.290  0.00  0.00    +0.008 A 
ATOM      9  C   LIG    1       32.042  -0.423  30.360  0.00  0.00    +0.046 A 
BRANCH   4  10
ATOM     10  O   LIG    1       32.416   1.711  31.390  0.00  0.00    -0.507 OA
ATOM     11  H   LIG    1       31.898   1.529  32.191  0.00  0.00    +0.292 HD
ENDBRANCH   4  10
ENDBRANCH   1   7
BRANCH   1  12
ATOM     12  C   LIG    1       28.882  -1.943  27.404  0.00  0.00    -0.037 A 
ATOM     13  C   LIG    1       28.737  -3.253  27.908  0.00  0.00    +0.008 A 
ATOM     14  C   LIG    1       27.484  -3.783  28.240  0.00  0.00    +0.046 A 
ATOM     15  C   LIG    1       26.349  -3.005  28.080  0.00  0.00    +0.117 A 
ATOM     16  C   LIG    1       26.448  -1.717  27.580  0.00  0.00    +0.046 A 
ATOM     17  C   LIG    1       27.700  -1.196  27.233  0.00  0.00    +0.008 A 
BRANCH  15  18
ATOM     18  O   LIG    1       25.111  -3.474  28.403  0.00  0.00    -0.507 OA
ATOM     19  H   LIG    1       25.157  -4.441  28.475  0.00  0.00    +0.292 HD
ENDBRANCH  15  18
ENDBRANCH   1  12
TORSDOF 4
ENDMDL
MODEL 6
REMARK VINA RESULT:      -8.2      2.899      3.889
REMARK  Name = 
REMARK                            x       y       z     vdW  Elec       q    Type
REMARK                         _______ _______ _______ _____ _____    ______ ____
ROOT
ATOM      1  C   LIG    1       31.581  -1.203  25.710  0.00  0.00    +0.015 C 
ATOM      2  C   LIG    1       31.478  -0.895  24.184  0.00  0.00    +0.021 C 
ATOM      3  C   LIG    1       32.131  -2.662  25.738  0.00  0.00    +0.021 C 
ENDROOT
BRANCH   1   7
ATOM      4  C   LIG    1       27.656  -1.043  27.650  0.00  0.00    +0.117 A 
ATOM      5  C   LIG    1       28.509  -2.101  27.917  0.00  0.00    +0.046 A 
ATOM      6  C   LIG    1       29.762  -2.165  27.297  0.00  0.00    +0.008 A 
ATOM      7  C   LIG    1       30.194  -1.163  26.406  0.00  0.00    -0.037 A 
ATOM      8  C   LIG    1       29.296  -0.103  26.161  0.00  0.00    +0.008 A 
ATOM      9  C   LIG    1       28.039  -0.039  26.773  0.00  0.00    +0.046 A 
BRANCH   4  10
ATOM     10  O   LIG    1       26.442  -1.025  28.268  0.00  0.00    -0.507 OA
ATOM     11  H   LIG    1       26.555  -1.344  29.178  0.00  0.00    +0.292 HD
ENDBRANCH   4  10
ENDBRANCH   1   7
BRANCH   1  12
ATOM     12  C   LIG    1       32.574  -0.229  26.403  0.00  0.00    -0.037 A 
ATOM     13  C   LIG    1       33.284  -0.609  27.562  0.00  0.00    +0.008 A 
ATOM     14  C   LIG    1       34.181   0.259  28.197  0.00  0.00    +0.046 A 
ATOM     15  C   LIG    1       34.390   1.527  27.678  0.00  0.00    +0.117 A 
ATOM     16  C   LIG    1       33.705   1.941  26.547  0.00  0.00    +0.046 A 
ATOM     17  C   LIG    1       32.796   1.077  25.924  0.00  0.00    +0.008 A 
BRANCH  15  18
ATOM     18  O   LIG    1       35.263   2.400  28.254  0.00  0.00    -0.507 OA
ATOM     19  H   LIG    1       36.164   2.158  27.985  0.00  0.00    +0.292 HD
ENDBRANCH  15  18
ENDBRANCH   1  12
TORSDOF 4
ENDMDL
MODEL 7
REMARK VINA RESULT:      -8.2      2.887      6.055
REMARK  Name = 
REMARK                            x       y       z     vdW  Elec       q    Type
REMARK                         _______ _______ _______ _____ _____    ______ ____
ROOT
ATOM      1  C   LIG    1       31.574  -1.247  25.719  0.00  0.00    +0.015 C 
ATOM      2  C   LIG    1       32.136  -2.702  25.718  0.00  0.00    +0.021 C 
ATOM      3  C   LIG    1       31.449  -0.917  24.200  0.00  0.00    +0.021 C 
ENDROOT
BRANCH   1   7
ATOM      4  C   LIG    1       34.354   1.543  27.636  0.00  0.00    +0.117 A 
ATOM      5  C   LIG    1       33.669   1.933  26.498  0.00  0.00    +0.046 A 
ATOM      6  C   LIG    1       32.783   1.047  25.874  0.00  0.00    +0.008 A 
ATOM      7  C   LIG    1       32.554  -0.245  26.385  0.00  0.00    -0.037 A 
ATOM      8  C   LIG    1       33.271  -0.604  27.546  0.00  0.00    +0.008 A 
ATOM      9  C   LIG    1       34.164   0.277  28.168  0.00  0.00    +0.046 A 
BRANCH   4  10
ATOM     10  O   LIG    1       35.213   2.435  28.206  0.00  0.00    -0.507 OA
ATOM     11  H   LIG    1       35.867   2.701  27.539  0.00  0.00    +0.292 HD
ENDBRANCH   4  10
ENDBRANCH   1   7
BRANCH   1  12
ATOM     12  C   LIG    1       30.181  -1.195  26.407  0.00  0.00    -0.037 A 
ATOM     13  C   LIG    1       29.769  -2.203  27.305  0.00  0.00    +0.008 A 
ATOM     14  C   LIG    1       28.517  -2.169  27.931  0.00  0.00    +0.046 A 
ATOM     15  C   LIG    1       27.652  -1.117  27.674  0.00  0.00    +0.117 A 
ATOM     16  C   LIG    1       28.016  -0.113  26.792  0.00  0.00    +0.046 A 
ATOM     17  C   LIG    1       29.261  -0.159  26.155  0.00  0.00    +0.008 A 
BRANCH  15  18
ATOM     18  O   LIG    1       26.430  -1.035  28.271  0.00  0.00    -0.507 OA
ATOM     19  H   LIG    1       26.451  -0.311  28.918  0.00  0.00    +0.292 HD
ENDBRANCH  15  18
ENDBRANCH   1  12
TORSDOF 4
ENDMDL
MODEL 8
REMARK VINA RESULT:      -8.0      2.671      4.087
REMARK  Name = 
REMARK                            x       y       z     vdW  Elec       q    Type
REMARK                         _______ _______ _______ _____ _____    ______ ____
ROOT
ATOM      1  C   LIG    1       29.538  -0.182  26.852  0.00  0.00    +0.015 C 
ATOM      2  C   LIG    1       28.992   1.114  26.176  0.00  0.00    +0.021 C 
ATOM      3  C   LIG    1       30.361  -0.855  25.711  0.00  0.00    +0.021 C 
ENDROOT
BRANCH   1   7
ATOM      4  C   LIG    1       26.281  -2.827  28.111  0.00  0.00    +0.117 A 
ATOM      5  C   LIG    1       27.410  -3.366  27.520  0.00  0.00    +0.046 A 
ATOM      6  C   LIG    1       28.454  -2.529  27.108  0.00  0.00    +0.008 A 
ATOM      7  C   LIG    1       28.394  -1.134  27.292  0.00  0.00    -0.037 A 
ATOM      8  C   LIG    1       27.226  -0.624  27.899  0.00  0.00    +0.008 A 
ATOM      9  C   LIG    1       26.177  -1.458  28.305  0.00  0.00    +0.046 A 
BRANCH   4  10
ATOM     10  O   LIG    1       25.285  -3.678  28.489  0.00  0.00    -0.507 OA
ATOM     11  H   LIG    1       25.193  -4.364  27.809  0.00  0.00    +0.292 HD
ENDBRANCH   4  10
ENDBRANCH   1   7
BRANCH   1  12
ATOM     12  C   LIG    1       30.456   0.170  28.056  0.00  0.00    -0.037 A 
ATOM     13  C   LIG    1       30.976  -0.835  28.899  0.00  0.00    +0.008 A 
ATOM     14  C   LIG    1       31.803  -0.533  29.988  0.00  0.00    +0.046 A 
ATOM     15  C   LIG    1       32.132   0.787  30.250  0.00  0.00    +0.117 A 
ATOM     16  C   LIG    1       31.635   1.804  29.452  0.00  0.00    +0.046 A 
ATOM     17  C   LIG    1       30.794   1.500  28.374  0.00  0.00    +0.008 A 
BRANCH  15  18
ATOM     18  O   LIG    1       32.945   1.128  31.290  0.00  0.00    -0.507 OA
ATOM     19  H   LIG    1       32.504   0.879  32.119  0.00  0.00    +0.292 HD
ENDBRANCH  15  18
ENDBRANCH   1  12
TORSDOF 4
ENDMDL
MODEL 9
REMARK VINA RESULT:      -7.6      3.522      5.474
REMARK  Name = 
REMARK                            x       y       z     vdW  Elec       q    Type
REMARK                         _______ _______ _______ _____ _____    ______ ____
ROOT
ATOM      1  C   LIG    1       31.563  -1.072  26.261  0.00  0.00    +0.015 C 
ATOM      2  C   LIG    1       30.224  -0.335  25.948  0.00  0.00    +0.021 C 
ATOM      3  C   LIG    1       31.161  -2.066  27.393  0.00  0.00    +0.021 C 
ENDROOT
BRANCH   1   7
ATOM      4  C   LIG    1       34.618   1.706  27.722  0.00  0.00    +0.117 A 
ATOM      5  C   LIG    1       34.492   0.459  28.308  0.00  0.00    +0.046 A 
ATOM      6  C   LIG    1       33.514  -0.434  27.853  0.00  0.00    +0.008 A 
ATOM      7  C   LIG    1       32.651  -0.101  26.792  0.00  0.00    -0.037 A 
ATOM      8  C   LIG    1       32.812   1.180  26.221  0.00  0.00    +0.008 A 
ATOM      9  C   LIG    1       33.784   2.078  26.679  0.00  0.00    +0.046 A 
BRANCH   4  10
ATOM     10  O   LIG    1       35.577   2.547  28.202  0.00  0.00    -0.507 OA
ATOM     11  H   LIG    1       36.089   2.076  28.879  0.00  0.00    +0.292 HD
ENDBRANCH   4  10
ENDBRANCH   1   7
BRANCH   1  12
ATOM     12  C   LIG    1       32.073  -1.842  25.011  0.00  0.00    -0.037 A 
ATOM     13  C   LIG    1       32.982  -2.915  25.132  0.00  0.00    +0.008 A 
ATOM     14  C   LIG    1       33.452  -3.617  24.015  0.00  0.00    +0.046 A 
ATOM     15  C   LIG    1       33.012  -3.260  22.750  0.00  0.00    +0.117 A 
ATOM     16  C   LIG    1       32.127  -2.207  22.588  0.00  0.00    +0.046 A 
ATOM     17  C   LIG    1       31.673  -1.497  23.706  0.00  0.00    +0.008 A 
BRANCH  15  18
ATOM     18  O   LIG    1       33.431  -3.923  21.635  0.00  0.00    -0.507 OA
ATOM     19  H   LIG    1       33.104  -4.836  21.679  0.00  0.00    +0.292 HD
ENDBRANCH  15  18
ENDBRANCH   1  12
TORSDOF 4
ENDMDL
