MODEL 1
REMARK VINA RESULT:      -8.5      0.000      0.000
REMARK  Name = 
REMARK                            x       y       z     vdW  Elec       q    Type
REMARK                         _______ _______ _______ _____ _____    ______ ____
ROOT
ATOM      1  C   LIG    1       67.585  46.518  95.884  0.00  0.00    +0.015 C 
ATOM      2  C   LIG    1       68.088  45.041  95.863  0.00  0.00    +0.021 C 
ATOM      3  C   LIG    1       66.034  46.362  95.919  0.00  0.00    +0.021 C 
ENDROOT
BRANCH   1   7
ATOM      4  C   LIG    1       68.797  48.698  92.283  0.00  0.00    +0.117 A 
ATOM      5  C   LIG    1       67.462  48.390  92.479  0.00  0.00    +0.046 A 
ATOM      6  C   LIG    1       67.065  47.688  93.624  0.00  0.00    +0.008 A 
ATOM      7  C   LIG    1       67.996  47.291  94.603  0.00  0.00    -0.037 A 
ATOM      8  C   LIG    1       69.347  47.624  94.365  0.00  0.00    +0.008 A 
ATOM      9  C   LIG    1       69.748  48.319  93.218  0.00  0.00    +0.046 A 
BRANCH   4  10
ATOM     10  O   LIG    1       69.140  49.374  91.151  0.00  0.00    -0.507 OA
ATOM     11  H   LIG    1       68.481  50.071  90.997  0.00  0.00    +0.292 HD
ENDBRANCH   4  10
ENDBRANCH   1   7
BRANCH   1  12
ATOM     12  C   LIG    1       68.091  47.253  97.157  0.00  0.00    -0.037 A 
ATOM     13  C   LIG    1       67.576  48.513  97.528  0.00  0.00    +0.008 A 
ATOM     14  C   LIG    1       68.023  49.188  98.671  0.00  0.00    +0.046 A 
ATOM     15  C   LIG    1       68.994  48.607  99.472  0.00  0.00    +0.117 A 
ATOM     16  C   LIG    1       69.531  47.375  99.137  0.00  0.00    +0.046 A 
ATOM     17  C   LIG    1       69.094  46.711  97.984  0.00  0.00    +0.008 A 
BRANCH  15  18
ATOM     18  O   LIG    1       69.449  49.219 100.600  0.00  0.00    -0.507 OA
ATOM     19  H   LIG    1       70.031  48.602 101.073  0.00  0.00    +0.292 HD
ENDBRANCH  15  18
ENDBRANCH   1  12
TORSDOF 4
ENDMDL
MODEL 2
REMARK VINA RESULT:      -8.5      0.026      5.687
REMARK  Name = 
REMARK                            x       y       z     vdW  Elec       q    Type
REMARK                         _______ _______ _______ _____ _____    ______ ____
ROOT
ATOM      1  C   LIG    1       67.569  46.532  95.878  0.00  0.00    +0.015 C 
ATOM      2  C   LIG    1       66.022  46.336  95.902  0.00  0.00    +0.021 C 
ATOM      3  C   LIG    1       68.110  45.070  95.854  0.00  0.00    +0.021 C 
ENDROOT
BRANCH   1   7
ATOM      4  C   LIG    1       68.988  48.602  99.468  0.00  0.00    +0.117 A 
ATOM      5  C   LIG    1       69.512  47.363  99.141  0.00  0.00    +0.046 A 
ATOM      6  C   LIG    1       69.061  46.690  97.999  0.00  0.00    +0.008 A 
ATOM      7  C   LIG    1       68.084  47.250  97.153  0.00  0.00    -0.037 A 
ATOM      8  C   LIG    1       67.576  48.514  97.522  0.00  0.00    +0.008 A 
ATOM      9  C   LIG    1       68.019  49.187  98.667  0.00  0.00    +0.046 A 
BRANCH   4  10
ATOM     10  O   LIG    1       69.450  49.217 100.593  0.00  0.00    -0.507 OA
ATOM     11  H   LIG    1       68.713  49.310 101.218  0.00  0.00    +0.292 HD
ENDBRANCH   4  10
ENDBRANCH   1   7
BRANCH   1  12
ATOM     12  C   LIG    1       68.007  47.299  94.598  0.00  0.00    -0.037 A 
ATOM     13  C   LIG    1       69.360  47.627  94.368  0.00  0.00    +0.008 A 
ATOM     14  C   LIG    1       69.769  48.319  93.221  0.00  0.00    +0.046 A 
ATOM     15  C   LIG    1       68.826  48.690  92.275  0.00  0.00    +0.117 A 
ATOM     16  C   LIG    1       67.487  48.394  92.468  0.00  0.00    +0.046 A 
ATOM     17  C   LIG    1       67.080  47.718  93.624  0.00  0.00    +0.008 A 
BRANCH  15  18
ATOM     18  O   LIG    1       69.179  49.351  91.137  0.00  0.00    -0.507 OA
ATOM     19  H   LIG    1       69.448  50.254  91.376  0.00  0.00    +0.292 HD
ENDBRANCH  15  18
ENDBRANCH   1  12
TORSDOF 4
ENDMDL
MODEL 3
REMARK VINA RESULT:      -7.8      1.784      5.684
REMARK  Name = 
REMARK                            x       y       z     vdW  Elec       q    Type
REMARK                         _______ _______ _______ _____ _____    ______ ____
ROOT
ATOM      1  C   LIG    1       67.603  46.246  96.318  0.00  0.00    +0.015 C 
ATOM      2  C   LIG    1       66.076  46.341  96.018  0.00  0.00    +0.021 C 
ATOM      3  C   LIG    1       67.990  44.850  95.744  0.00  0.00    +0.021 C 
ENDROOT
BRANCH   1   7
ATOM      4  C   LIG    1       68.439  46.276 100.618  0.00  0.00    +0.117 A 
ATOM      5  C   LIG    1       68.314  47.475  99.938  0.00  0.00    +0.046 A 
ATOM      6  C   LIG    1       68.053  47.476  98.562  0.00  0.00    +0.008 A 
ATOM      7  C   LIG    1       67.899  46.276  97.842  0.00  0.00    -0.037 A 
ATOM      8  C   LIG    1       68.035  45.076  98.572  0.00  0.00    +0.008 A 
ATOM      9  C   LIG    1       68.303  45.071  99.946  0.00  0.00    +0.046 A 
BRANCH   4  10
ATOM     10  O   LIG    1       68.702  46.321 101.955  0.00  0.00    -0.507 OA
ATOM     11  H   LIG    1       67.903  46.046 102.435  0.00  0.00    +0.292 HD
ENDBRANCH   4  10
ENDBRANCH   1   7
BRANCH   1  12
ATOM     12  C   LIG    1       68.380  47.375  95.584  0.00  0.00    -0.037 A 
ATOM     13  C   LIG    1       69.791  47.384  95.538  0.00  0.00    +0.008 A 
ATOM     14  C   LIG    1       70.503  48.395  94.882  0.00  0.00    +0.046 A 
ATOM     15  C   LIG    1       69.813  49.417  94.249  0.00  0.00    +0.117 A 
ATOM     16  C   LIG    1       68.429  49.449  94.279  0.00  0.00    +0.046 A 
ATOM     17  C   LIG    1       67.720  48.446  94.951  0.00  0.00    +0.008 A 
BRANCH  15  18
ATOM     18  O   LIG    1       70.464  50.414  93.586  0.00  0.00    -0.507 OA
ATOM     19  H   LIG    1       71.143  50.015  93.018  0.00  0.00    +0.292 HD
ENDBRANCH  15  18
ENDBRANCH   1  12
TORSDOF 4
ENDMDL
MODEL 4
REMARK VINA RESULT:      -7.8      1.731      2.194
REMARK  Name = 
REMARK                            x       y       z     vdW  Elec       q    Type
REMARK                         _______ _______ _______ _____ _____    ______ ____
ROOT
ATOM      1  C   LIG    1       67.587  46.329  96.311  0.00  0.00    +0.015 C 
ATOM      2  C   LIG    1       67.876  44.916  95.717  0.00  0.00    +0.021 C 
ATOM      3  C   LIG    1       66.060  46.512  96.060  0.00  0.00    +0.021 C 
ENDROOT
BRANCH   1   7
ATOM      4  C   LIG    1       69.840  49.454  94.226  0.00  0.00    +0.117 A 
ATOM      5  C   LIG    1       68.459  49.425  94.128  0.00  0.00    +0.046 A 
ATOM      6  C   LIG    1       67.730  48.427  94.785  0.00  0.00    +0.008 A 
ATOM      7  C   LIG    1       68.369  47.444  95.566  0.00  0.00    -0.037 A 
ATOM      8  C   LIG    1       69.777  47.509  95.640  0.00  0.00    +0.008 A 
ATOM      9  C   LIG    1       70.509  48.501  94.978  0.00  0.00    +0.046 A 
BRANCH   4  10
ATOM     10  O   LIG    1       70.510  50.439  93.563  0.00  0.00    -0.507 OA
ATOM     11  H   LIG    1       71.062  50.919  94.201  0.00  0.00    +0.292 HD
ENDBRANCH   4  10
ENDBRANCH   1   7
BRANCH   1  12
ATOM     12  C   LIG    1       67.900  46.360  97.834  0.00  0.00    -0.037 A 
ATOM     13  C   LIG    1       68.342  45.207  98.515  0.00  0.00    +0.008 A 
ATOM     14  C   LIG    1       68.626  45.220  99.886  0.00  0.00    +0.046 A 
ATOM     15  C   LIG    1       68.479  46.397 100.603  0.00  0.00    +0.117 A 
ATOM     16  C   LIG    1       68.039  47.550  99.972  0.00  0.00    +0.046 A 
ATOM     17  C   LIG    1       67.739  47.528  98.605  0.00  0.00    +0.008 A 
BRANCH  15  18
ATOM     18  O   LIG    1       68.757  46.462 101.935  0.00  0.00    -0.507 OA
ATOM     19  H   LIG    1       69.628  46.062 102.088  0.00  0.00    +0.292 HD
ENDBRANCH  15  18
ENDBRANCH   1  12
TORSDOF 4
ENDMDL
MODEL 5
REMARK VINA RESULT:      -7.3      1.952      2.797
REMARK  Name = 
REMARK                            x       y       z     vdW  Elec       q    Type
REMARK                         _______ _______ _______ _____ _____    ______ ____
ROOT
ATOM      1  C   LIG    1       67.757  49.355  96.157  0.00  0.00    +0.015 C 
ATOM      2  C   LIG    1       66.316  49.943  96.058  0.00  0.00    +0.021 C 
ATOM      3  C   LIG    1       68.537  50.460  96.932  0.00  0.00    +0.021 C 
ENDROOT
BRANCH   1   7
ATOM      4  C   LIG    1       69.620  48.821  92.228  0.00  0.00    +0.117 A 
ATOM      5  C   LIG    1       68.360  48.298  92.465  0.00  0.00    +0.046 A 
ATOM      6  C   LIG    1       67.759  48.457  93.719  0.00  0.00    +0.008 A 
ATOM      7  C   LIG    1       68.401  49.156  94.759  0.00  0.00    -0.037 A 
ATOM      8  C   LIG    1       69.684  49.673  94.477  0.00  0.00    +0.008 A 
ATOM      9  C   LIG    1       70.291  49.509  93.227  0.00  0.00    +0.046 A 
BRANCH   4  10
ATOM     10  O   LIG    1       70.171  48.634  90.995  0.00  0.00    -0.507 OA
ATOM     11  H   LIG    1       69.457  48.445  90.364  0.00  0.00    +0.292 HD
ENDBRANCH   4  10
ENDBRANCH   1   7
BRANCH   1  12
ATOM     12  C   LIG    1       67.755  48.022  96.957  0.00  0.00    -0.037 A 
ATOM     13  C   LIG    1       66.610  47.198  97.005  0.00  0.00    +0.008 A 
ATOM     14  C   LIG    1       66.593  45.996  97.722  0.00  0.00    +0.046 A 
ATOM     15  C   LIG    1       67.731  45.590  98.403  0.00  0.00    +0.117 A 
ATOM     16  C   LIG    1       68.872  46.375  98.389  0.00  0.00    +0.046 A 
ATOM     17  C   LIG    1       68.879  47.585  97.685  0.00  0.00    +0.008 A 
BRANCH  15  18
ATOM     18  O   LIG    1       67.765  44.422  99.104  0.00  0.00    -0.507 OA
ATOM     19  H   LIG    1       68.107  43.724  98.521  0.00  0.00    +0.292 HD
ENDBRANCH  15  18
ENDBRANCH   1  12
TORSDOF 4
ENDMDL
MODEL 6
REMARK VINA RESULT:      -7.3      1.943      3.110
REMARK  Name = 
REMARK                            x       y       z     vdW  Elec       q    Type
REMARK                         _______ _______ _______ _____ _____    ______ ____
ROOT
ATOM      1  C   LIG    1       67.755  49.379  96.162  0.00  0.00    +0.015 C 
ATOM      2  C   LIG    1       66.310  49.956  96.048  0.00  0.00    +0.021 C 
ATOM      3  C   LIG    1       68.517  50.488  96.948  0.00  0.00    +0.021 C 
ENDROOT
BRANCH   1   7
ATOM      4  C   LIG    1       69.574  48.817  92.217  0.00  0.00    +0.117 A 
ATOM      5  C   LIG    1       70.298  49.435  93.222  0.00  0.00    +0.046 A 
ATOM      6  C   LIG    1       69.724  49.624  94.485  0.00  0.00    +0.008 A 
ATOM      7  C   LIG    1       68.416  49.188  94.770  0.00  0.00    -0.037 A 
ATOM      8  C   LIG    1       67.712  48.564  93.719  0.00  0.00    +0.008 A 
ATOM      9  C   LIG    1       68.280  48.379  92.453  0.00  0.00    +0.046 A 
BRANCH   4  10
ATOM     10  O   LIG    1       70.169  48.660  91.000  0.00  0.00    -0.507 OA
ATOM     11  H   LIG    1       71.130  48.749  91.114  0.00  0.00    +0.292 HD
ENDBRANCH   4  10
ENDBRANCH   1   7
BRANCH   1  12
ATOM     12  C   LIG    1       67.754  48.044  96.959  0.00  0.00    -0.037 A 
ATOM     13  C   LIG    1       68.871  47.647  97.724  0.00  0.00    +0.008 A 
ATOM     14  C   LIG    1       68.885  46.447  98.445  0.00  0.00    +0.046 A 
ATOM     15  C   LIG    1       67.771  45.621  98.420  0.00  0.00    +0.117 A 
ATOM     16  C   LIG    1       66.658  45.972  97.674  0.00  0.00    +0.046 A 
ATOM     17  C   LIG    1       66.655  47.163  96.940  0.00  0.00    +0.008 A 
BRANCH  15  18
ATOM     18  O   LIG    1       67.734  44.451  99.117  0.00  0.00    -0.507 OA
ATOM     19  H   LIG    1       66.929  44.442  99.662  0.00  0.00    +0.292 HD
ENDBRANCH  15  18
ENDBRANCH   1  12
TORSDOF 4
ENDMDL
MODEL 7
REMARK VINA RESULT:      -6.3      2.615      3.810
REMARK  Name = 
REMARK                            x       y       z     vdW  Elec       q    Type
REMARK                         _______ _______ _______ _____ _____    ______ ____
ROOT
ATOM      1  C   LIG    1       68.104  49.024  96.379  0.00  0.00    +0.015 C 
ATOM      2  C   LIG    1       66.978  50.019  95.958  0.00  0.00    +0.021 C 
ATOM      3  C   LIG    1       69.296  49.433  95.462  0.00  0.00    +0.021 C 
ENDROOT
BRANCH   1   7
ATOM      4  C   LIG    1       66.956  44.879  95.550  0.00  0.00    +0.117 A 
ATOM      5  C   LIG    1       68.235  45.157  96.001  0.00  0.00    +0.046 A 
ATOM      6  C   LIG    1       68.613  46.479  96.263  0.00  0.00    +0.008 A 
ATOM      7  C   LIG    1       67.715  47.550  96.091  0.00  0.00    -0.037 A 
ATOM      8  C   LIG    1       66.422  47.224  95.629  0.00  0.00    +0.008 A 
ATOM      9  C   LIG    1       66.042  45.904  95.359  0.00  0.00    +0.046 A 
BRANCH   4  10
ATOM     10  O   LIG    1       66.633  43.579  95.299  0.00  0.00    -0.507 OA
ATOM     11  H   LIG    1       66.542  43.115  96.147  0.00  0.00    +0.292 HD
ENDBRANCH   4  10
ENDBRANCH   1   7
BRANCH   1  12
ATOM     12  C   LIG    1       68.474  49.214  97.877  0.00  0.00    -0.037 A 
ATOM     13  C   LIG    1       69.780  49.575  98.269  0.00  0.00    +0.008 A 
ATOM     14  C   LIG    1       70.128  49.747  99.614  0.00  0.00    +0.046 A 
ATOM     15  C   LIG    1       69.167  49.567 100.597  0.00  0.00    +0.117 A 
ATOM     16  C   LIG    1       67.876  49.204 100.254  0.00  0.00    +0.046 A 
ATOM     17  C   LIG    1       67.536  49.015  98.909  0.00  0.00    +0.008 A 
BRANCH  15  18
ATOM     18  O   LIG    1       69.456  49.738 101.918  0.00  0.00    -0.507 OA
ATOM     19  H   LIG    1       69.468  50.690 102.111  0.00  0.00    +0.292 HD
ENDBRANCH  15  18
ENDBRANCH   1  12
TORSDOF 4
ENDMDL
MODEL 8
REMARK VINA RESULT:      -6.2      2.411      3.413
REMARK  Name = 
REMARK                            x       y       z     vdW  Elec       q    Type
REMARK                         _______ _______ _______ _____ _____    ______ ____
ROOT
ATOM      1  C   LIG    1       68.480  48.451  97.762  0.00  0.00    +0.015 C 
ATOM      2  C   LIG    1       67.970  49.752  98.454  0.00  0.00    +0.021 C 
ATOM      3  C   LIG    1       70.001  48.440  98.106  0.00  0.00    +0.021 C 
ENDROOT
BRANCH   1   7
ATOM      4  C   LIG    1       67.924  48.608  93.420  0.00  0.00    +0.117 A 
ATOM      5  C   LIG    1       69.192  48.417  93.940  0.00  0.00    +0.046 A 
ATOM      6  C   LIG    1       69.382  48.371  95.326  0.00  0.00    +0.008 A 
ATOM      7  C   LIG    1       68.302  48.504  96.221  0.00  0.00    -0.037 A 
ATOM      8  C   LIG    1       67.026  48.697  95.650  0.00  0.00    +0.008 A 
ATOM      9  C   LIG    1       66.834  48.751  94.265  0.00  0.00    +0.046 A 
BRANCH   4  10
ATOM     10  O   LIG    1       67.786  48.654  92.064  0.00  0.00    -0.507 OA
ATOM     11  H   LIG    1       68.275  49.425  91.732  0.00  0.00    +0.292 HD
ENDBRANCH   4  10
ENDBRANCH   1   7
BRANCH   1  12
ATOM     12  C   LIG    1       67.775  47.198  98.355  0.00  0.00    -0.037 A 
ATOM     13  C   LIG    1       66.603  47.316  99.131  0.00  0.00    +0.008 A 
ATOM     14  C   LIG    1       65.958  46.198  99.673  0.00  0.00    +0.046 A 
ATOM     15  C   LIG    1       66.475  44.932  99.441  0.00  0.00    +0.117 A 
ATOM     16  C   LIG    1       67.629  44.775  98.692  0.00  0.00    +0.046 A 
ATOM     17  C   LIG    1       68.281  45.897  98.167  0.00  0.00    +0.008 A 
BRANCH  15  18
ATOM     18  O   LIG    1       65.874  43.814  99.936  0.00  0.00    -0.507 OA
ATOM     19  H   LIG    1       65.017  43.702  99.493  0.00  0.00    +0.292 HD
ENDBRANCH  15  18
ENDBRANCH   1  12
TORSDOF 4
ENDMDL
MODEL 9
REMARK VINA RESULT:      -6.1      2.027      3.079
REMARK  Name = 
REMARK                            x       y       z     vdW  Elec       q    Type
REMARK                         _______ _______ _______ _____ _____    ______ ____
ROOT
ATOM      1  C   LIG    1       68.706  48.655  96.479  0.00  0.00    +0.015 C 
ATOM      2  C   LIG    1       68.480  50.179  96.721  0.00  0.00    +0.021 C 
ATOM      3  C   LIG    1       70.223  48.575  96.129  0.00  0.00    +0.021 C 
ENDROOT
BRANCH   1   7
ATOM      4  C   LIG    1       66.377  47.202  93.066  0.00  0.00    +0.117 A 
ATOM      5  C   LIG    1       66.261  46.570  94.292  0.00  0.00    +0.046 A 
ATOM      6  C   LIG    1       67.006  47.022  95.387  0.00  0.00    +0.008 A 
ATOM      7  C   LIG    1       67.873  48.126  95.281  0.00  0.00    -0.037 A 
ATOM      8  C   LIG    1       67.963  48.743  94.015  0.00  0.00    +0.008 A 
ATOM      9  C   LIG    1       67.225  48.288  92.915  0.00  0.00    +0.046 A 
BRANCH   4  10
ATOM     10  O   LIG    1       65.640  46.723  92.024  0.00  0.00    -0.507 OA
ATOM     11  H   LIG    1       66.198  46.124  91.502  0.00  0.00    +0.292 HD
ENDBRANCH   4  10
ENDBRANCH   1   7
BRANCH   1  12
ATOM     12  C   LIG    1       68.398  47.841  97.767  0.00  0.00    -0.037 A 
ATOM     13  C   LIG    1       69.113  46.665  98.080  0.00  0.00    +0.008 A 
ATOM     14  C   LIG    1       68.845  45.921  99.235  0.00  0.00    +0.046 A 
ATOM     15  C   LIG    1       67.855  46.346 100.107  0.00  0.00    +0.117 A 
ATOM     16  C   LIG    1       67.124  47.490  99.832  0.00  0.00    +0.046 A 
ATOM     17  C   LIG    1       67.383  48.222  98.667  0.00  0.00    +0.008 A 
BRANCH  15  18
ATOM     18  O   LIG    1       67.569  45.662 101.250  0.00  0.00    -0.507 OA
ATOM     19  H   LIG    1       68.274  45.012 101.406  0.00  0.00    +0.292 HD
ENDBRANCH  15  18
ENDBRANCH   1  12
TORSDOF 4
ENDMDL
