MODEL 1
REMARK VINA RESULT:      -7.4      0.000      0.000
REMARK  Name = 
REMARK                            x       y       z     vdW  Elec       q    Type
REMARK                         _______ _______ _______ _____ _____    ______ ____
ROOT
ATOM      1  C   LIG    1       38.946  30.389   8.226  0.00  0.00    +0.015 C 
ATOM      2  C   LIG    1       39.780  29.969   6.977  0.00  0.00    +0.021 C 
ATOM      3  C   LIG    1       37.687  29.474   8.133  0.00  0.00    +0.021 C 
ENDROOT
BRANCH   1   7
ATOM      4  C   LIG    1       37.735  34.593   7.989  0.00  0.00    +0.117 A 
ATOM      5  C   LIG    1       37.267  33.804   9.026  0.00  0.00    +0.046 A 
ATOM      6  C   LIG    1       37.643  32.458   9.107  0.00  0.00    +0.008 A 
ATOM      7  C   LIG    1       38.506  31.877   8.158  0.00  0.00    -0.037 A 
ATOM      8  C   LIG    1       38.960  32.714   7.118  0.00  0.00    +0.008 A 
ATOM      9  C   LIG    1       38.581  34.059   7.029  0.00  0.00    +0.046 A 
BRANCH   4  10
ATOM     10  O   LIG    1       37.337  35.896   7.944  0.00  0.00    -0.507 OA
ATOM     11  H   LIG    1       38.067  36.428   7.589  0.00  0.00    +0.292 HD
ENDBRANCH   4  10
ENDBRANCH   1   7
BRANCH   1  12
ATOM     12  C   LIG    1       39.734  30.107   9.536  0.00  0.00    -0.037 A 
ATOM     13  C   LIG    1       39.119  29.476  10.639  0.00  0.00    +0.008 A 
ATOM     14  C   LIG    1       39.816  29.216  11.825  0.00  0.00    +0.046 A 
ATOM     15  C   LIG    1       41.150  29.579  11.927  0.00  0.00    +0.117 A 
ATOM     16  C   LIG    1       41.787  30.208  10.870  0.00  0.00    +0.046 A 
ATOM     17  C   LIG    1       41.082  30.482   9.692  0.00  0.00    +0.008 A 
BRANCH  15  18
ATOM     18  O   LIG    1       41.872  29.334  13.057  0.00  0.00    -0.507 OA
ATOM     19  H   LIG    1       42.323  30.154  13.318  0.00  0.00    +0.292 HD
ENDBRANCH  15  18
ENDBRANCH   1  12
TORSDOF 4
ENDMDL
MODEL 2
REMARK VINA RESULT:      -7.4      0.052      5.721
REMARK  Name = 
REMARK                            x       y       z     vdW  Elec       q    Type
REMARK                         _______ _______ _______ _____ _____    ______ ____
ROOT
ATOM      1  C   LIG    1       38.894  30.374   8.226  0.00  0.00    +0.015 C 
ATOM      2  C   LIG    1       37.639  29.453   8.137  0.00  0.00    +0.021 C 
ATOM      3  C   LIG    1       39.730  29.953   6.980  0.00  0.00    +0.021 C 
ENDROOT
BRANCH   1   7
ATOM      4  C   LIG    1       41.181  29.602  11.882  0.00  0.00    +0.117 A 
ATOM      5  C   LIG    1       41.794  30.230  10.812  0.00  0.00    +0.046 A 
ATOM      6  C   LIG    1       41.074  30.476   9.637  0.00  0.00    +0.008 A 
ATOM      7  C   LIG    1       39.720  30.109   9.514  0.00  0.00    -0.037 A 
ATOM      8  C   LIG    1       39.132  29.471  10.627  0.00  0.00    +0.008 A 
ATOM      9  C   LIG    1       39.851  29.216  11.801  0.00  0.00    +0.046 A 
BRANCH   4  10
ATOM     10  O   LIG    1       41.922  29.375  13.003  0.00  0.00    -0.507 OA
ATOM     11  H   LIG    1       41.361  29.535  13.780  0.00  0.00    +0.292 HD
ENDBRANCH   4  10
ENDBRANCH   1   7
BRANCH   1  12
ATOM     12  C   LIG    1       38.486  31.871   8.132  0.00  0.00    -0.037 A 
ATOM     13  C   LIG    1       38.974  32.700   7.099  0.00  0.00    +0.008 A 
ATOM     14  C   LIG    1       38.616  34.050   7.002  0.00  0.00    +0.046 A 
ATOM     15  C   LIG    1       37.754  34.597   7.939  0.00  0.00    +0.117 A 
ATOM     16  C   LIG    1       37.260  33.820   8.974  0.00  0.00    +0.046 A 
ATOM     17  C   LIG    1       37.634  32.474   9.077  0.00  0.00    +0.008 A 
BRANCH  15  18
ATOM     18  O   LIG    1       37.367  35.902   7.878  0.00  0.00    -0.507 OA
ATOM     19  H   LIG    1       37.850  36.400   8.558  0.00  0.00    +0.292 HD
ENDBRANCH  15  18
ENDBRANCH   1  12
TORSDOF 4
ENDMDL
MODEL 3
REMARK VINA RESULT:      -7.1      1.906      5.722
REMARK  Name = 
REMARK                            x       y       z     vdW  Elec       q    Type
REMARK                         _______ _______ _______ _____ _____    ______ ____
ROOT
ATOM      1  C   LIG    1       39.653  31.005   7.813  0.00  0.00    +0.015 C 
ATOM      2  C   LIG    1       39.925  30.338   6.430  0.00  0.00    +0.021 C 
ATOM      3  C   LIG    1       41.079  31.144   8.426  0.00  0.00    +0.021 C 
ENDROOT
BRANCH   1   7
ATOM      4  C   LIG    1       37.232  28.477  10.448  0.00  0.00    +0.117 A 
ATOM      5  C   LIG    1       36.888  28.601   9.112  0.00  0.00    +0.046 A 
ATOM      6  C   LIG    1       37.651  29.411   8.263  0.00  0.00    +0.008 A 
ATOM      7  C   LIG    1       38.783  30.105   8.732  0.00  0.00    -0.037 A 
ATOM      8  C   LIG    1       39.100  29.953  10.098  0.00  0.00    +0.008 A 
ATOM      9  C   LIG    1       38.335  29.150  10.952  0.00  0.00    +0.046 A 
BRANCH   4  10
ATOM     10  O   LIG    1       36.456  27.685  11.240  0.00  0.00    -0.507 OA
ATOM     11  H   LIG    1       36.921  26.845  11.385  0.00  0.00    +0.292 HD
ENDBRANCH   4  10
ENDBRANCH   1   7
BRANCH   1  12
ATOM     12  C   LIG    1       38.997  32.403   7.631  0.00  0.00    -0.037 A 
ATOM     13  C   LIG    1       39.331  33.232   6.539  0.00  0.00    +0.008 A 
ATOM     14  C   LIG    1       38.749  34.494   6.363  0.00  0.00    +0.046 A 
ATOM     15  C   LIG    1       37.812  34.948   7.278  0.00  0.00    +0.117 A 
ATOM     16  C   LIG    1       37.463  34.167   8.368  0.00  0.00    +0.046 A 
ATOM     17  C   LIG    1       38.060  32.914   8.550  0.00  0.00    +0.008 A 
BRANCH  15  18
ATOM     18  O   LIG    1       37.209  36.162   7.140  0.00  0.00    -0.507 OA
ATOM     19  H   LIG    1       37.633  36.787   7.751  0.00  0.00    +0.292 HD
ENDBRANCH  15  18
ENDBRANCH   1  12
TORSDOF 4
ENDMDL
MODEL 4
REMARK VINA RESULT:      -6.8      2.242      3.044
REMARK  Name = 
REMARK                            x       y       z     vdW  Elec       q    Type
REMARK                         _______ _______ _______ _____ _____    ______ ____
ROOT
ATOM      1  C   LIG    1       40.152  30.326   9.137  0.00  0.00    +0.015 C 
ATOM      2  C   LIG    1       41.299  30.559  10.169  0.00  0.00    +0.021 C 
ATOM      3  C   LIG    1       40.917  30.175   7.788  0.00  0.00    +0.021 C 
ENDROOT
BRANCH   1   7
ATOM      4  C   LIG    1       37.447  33.759   8.838  0.00  0.00    +0.117 A 
ATOM      5  C   LIG    1       37.753  33.236  10.083  0.00  0.00    +0.046 A 
ATOM      6  C   LIG    1       38.611  32.135  10.189  0.00  0.00    +0.008 A 
ATOM      7  C   LIG    1       39.192  31.543   9.051  0.00  0.00    -0.037 A 
ATOM      8  C   LIG    1       38.855  32.106   7.801  0.00  0.00    +0.008 A 
ATOM      9  C   LIG    1       37.991  33.202   7.691  0.00  0.00    +0.046 A 
BRANCH   4  10
ATOM     10  O   LIG    1       36.601  34.826   8.781  0.00  0.00    -0.507 OA
ATOM     11  H   LIG    1       37.131  35.639   8.773  0.00  0.00    +0.292 HD
ENDBRANCH   4  10
ENDBRANCH   1   7
BRANCH   1  12
ATOM     12  C   LIG    1       39.366  29.027   9.471  0.00  0.00    -0.037 A 
ATOM     13  C   LIG    1       40.032  27.855   9.888  0.00  0.00    +0.008 A 
ATOM     14  C   LIG    1       39.337  26.677  10.190  0.00  0.00    +0.046 A 
ATOM     15  C   LIG    1       37.955  26.653  10.087  0.00  0.00    +0.117 A 
ATOM     16  C   LIG    1       37.265  27.781   9.673  0.00  0.00    +0.046 A 
ATOM     17  C   LIG    1       37.965  28.951   9.354  0.00  0.00    +0.008 A 
BRANCH  15  18
ATOM     18  O   LIG    1       37.236  25.535  10.384  0.00  0.00    -0.507 OA
ATOM     19  H   LIG    1       37.716  25.030  11.061  0.00  0.00    +0.292 HD
ENDBRANCH  15  18
ENDBRANCH   1  12
TORSDOF 4
ENDMDL
MODEL 5
REMARK VINA RESULT:      -6.8      2.303      5.812
REMARK  Name = 
REMARK                            x       y       z     vdW  Elec       q    Type
REMARK                         _______ _______ _______ _____ _____    ______ ____
ROOT
ATOM      1  C   LIG    1       40.138  30.306   9.199  0.00  0.00    +0.015 C 
ATOM      2  C   LIG    1       41.002  30.171   7.908  0.00  0.00    +0.021 C 
ATOM      3  C   LIG    1       41.203  30.551  10.312  0.00  0.00    +0.021 C 
ENDROOT
BRANCH   1   7
ATOM      4  C   LIG    1       37.881  26.659  10.090  0.00  0.00    +0.117 A 
ATOM      5  C   LIG    1       39.251  26.588   9.905  0.00  0.00    +0.046 A 
ATOM      6  C   LIG    1       39.981  27.746   9.614  0.00  0.00    +0.008 A 
ATOM      7  C   LIG    1       39.355  29.004   9.515  0.00  0.00    -0.037 A 
ATOM      8  C   LIG    1       37.957  29.034   9.710  0.00  0.00    +0.008 A 
ATOM      9  C   LIG    1       37.223  27.876   9.994  0.00  0.00    +0.046 A 
BRANCH   4  10
ATOM     10  O   LIG    1       37.209  25.505  10.364  0.00  0.00    -0.507 OA
ATOM     11  H   LIG    1       36.374  25.733  10.805  0.00  0.00    +0.292 HD
ENDBRANCH   4  10
ENDBRANCH   1   7
BRANCH   1  12
ATOM     12  C   LIG    1       39.171  31.519   9.091  0.00  0.00    -0.037 A 
ATOM     13  C   LIG    1       38.796  32.047   7.837  0.00  0.00    +0.008 A 
ATOM     14  C   LIG    1       37.927  33.139   7.724  0.00  0.00    +0.046 A 
ATOM     15  C   LIG    1       37.408  33.721   8.870  0.00  0.00    +0.117 A 
ATOM     16  C   LIG    1       37.758  33.237  10.120  0.00  0.00    +0.046 A 
ATOM     17  C   LIG    1       38.641  32.156  10.230  0.00  0.00    +0.008 A 
BRANCH  15  18
ATOM     18  O   LIG    1       36.548  34.776   8.809  0.00  0.00    -0.507 OA
ATOM     19  H   LIG    1       35.664  34.440   8.589  0.00  0.00    +0.292 HD
ENDBRANCH  15  18
ENDBRANCH   1  12
TORSDOF 4
ENDMDL
MODEL 6
REMARK VINA RESULT:      -6.8      1.593      2.257
REMARK  Name = 
REMARK                            x       y       z     vdW  Elec       q    Type
REMARK                         _______ _______ _______ _____ _____    ______ ____
ROOT
ATOM      1  C   LIG    1       38.763  29.320   9.213  0.00  0.00    +0.015 C 
ATOM      2  C   LIG    1       38.396  28.155   8.243  0.00  0.00    +0.021 C 
ATOM      3  C   LIG    1       37.600  29.297  10.250  0.00  0.00    +0.021 C 
ENDROOT
BRANCH   1   7
ATOM      4  C   LIG    1       38.770  33.214   7.205  0.00  0.00    +0.117 A 
ATOM      5  C   LIG    1       39.708  32.259   6.850  0.00  0.00    +0.046 A 
ATOM      6  C   LIG    1       39.719  31.014   7.490  0.00  0.00    +0.008 A 
ATOM      7  C   LIG    1       38.781  30.694   8.490  0.00  0.00    -0.037 A 
ATOM      8  C   LIG    1       37.842  31.694   8.823  0.00  0.00    +0.008 A 
ATOM      9  C   LIG    1       37.833  32.943   8.190  0.00  0.00    +0.046 A 
BRANCH   4  10
ATOM     10  O   LIG    1       38.802  34.415   6.562  0.00  0.00    -0.507 OA
ATOM     11  H   LIG    1       38.099  34.425   5.892  0.00  0.00    +0.292 HD
ENDBRANCH   4  10
ENDBRANCH   1   7
BRANCH   1  12
ATOM     12  C   LIG    1       40.125  29.047   9.911  0.00  0.00    -0.037 A 
ATOM     13  C   LIG    1       40.600  29.883  10.944  0.00  0.00    +0.008 A 
ATOM     14  C   LIG    1       41.825  29.650  11.580  0.00  0.00    +0.046 A 
ATOM     15  C   LIG    1       42.599  28.566  11.197  0.00  0.00    +0.117 A 
ATOM     16  C   LIG    1       42.173  27.727  10.181  0.00  0.00    +0.046 A 
ATOM     17  C   LIG    1       40.955  27.973   9.535  0.00  0.00    +0.008 A 
BRANCH  15  18
ATOM     18  O   LIG    1       43.791  28.292  11.797  0.00  0.00    -0.507 OA
ATOM     19  H   LIG    1       43.638  27.646  12.506  0.00  0.00    +0.292 HD
ENDBRANCH  15  18
ENDBRANCH   1  12
TORSDOF 4
ENDMDL
MODEL 7
REMARK VINA RESULT:      -6.8      1.548      5.762
REMARK  Name = 
REMARK                            x       y       z     vdW  Elec       q    Type
REMARK                         _______ _______ _______ _____ _____    ______ ____
ROOT
ATOM      1  C   LIG    1       38.725  29.450   9.034  0.00  0.00    +0.015 C 
ATOM      2  C   LIG    1       37.488  29.293   9.970  0.00  0.00    +0.021 C 
ATOM      3  C   LIG    1       38.505  28.334   7.968  0.00  0.00    +0.021 C 
ENDROOT
BRANCH   1   7
ATOM      4  C   LIG    1       42.495  28.666  11.123  0.00  0.00    +0.117 A 
ATOM      5  C   LIG    1       41.793  29.830  11.391  0.00  0.00    +0.046 A 
ATOM      6  C   LIG    1       40.591  30.093  10.724  0.00  0.00    +0.008 A 
ATOM      7  C   LIG    1       40.059  29.189   9.784  0.00  0.00    -0.037 A 
ATOM      8  C   LIG    1       40.804  28.016   9.539  0.00  0.00    +0.008 A 
ATOM      9  C   LIG    1       42.011  27.753  10.199  0.00  0.00    +0.046 A 
BRANCH   4  10
ATOM     10  O   LIG    1       43.665  28.455  11.789  0.00  0.00    -0.507 OA
ATOM     11  H   LIG    1       43.637  27.570  12.188  0.00  0.00    +0.292 HD
ENDBRANCH   4  10
ENDBRANCH   1   7
BRANCH   1  12
ATOM     12  C   LIG    1       38.735  30.853   8.364  0.00  0.00    -0.037 A 
ATOM     13  C   LIG    1       37.806  31.849   8.736  0.00  0.00    +0.008 A 
ATOM     14  C   LIG    1       37.802  33.116   8.140  0.00  0.00    +0.046 A 
ATOM     15  C   LIG    1       38.738  33.414   7.162  0.00  0.00    +0.117 A 
ATOM     16  C   LIG    1       39.661  32.462   6.763  0.00  0.00    +0.046 A 
ATOM     17  C   LIG    1       39.650  31.190   7.348  0.00  0.00    +0.008 A 
BRANCH  15  18
ATOM     18  O   LIG    1       38.781  34.638   6.565  0.00  0.00    -0.507 OA
ATOM     19  H   LIG    1       39.598  35.086   6.838  0.00  0.00    +0.292 HD
ENDBRANCH  15  18
ENDBRANCH   1  12
TORSDOF 4
ENDMDL
MODEL 8
REMARK VINA RESULT:      -6.8      1.513      5.883
REMARK  Name = 
REMARK                            x       y       z     vdW  Elec       q    Type
REMARK                         _______ _______ _______ _____ _____    ______ ____
ROOT
ATOM      1  C   LIG    1       38.646  29.424   8.921  0.00  0.00    +0.015 C 
ATOM      2  C   LIG    1       37.381  29.241   9.816  0.00  0.00    +0.021 C 
ATOM      3  C   LIG    1       38.458  28.338   7.818  0.00  0.00    +0.021 C 
ENDROOT
BRANCH   1   7
ATOM      4  C   LIG    1       42.333  28.668  11.162  0.00  0.00    +0.117 A 
ATOM      5  C   LIG    1       42.027  27.883  10.064  0.00  0.00    +0.046 A 
ATOM      6  C   LIG    1       40.848  28.112   9.345  0.00  0.00    +0.008 A 
ATOM      7  C   LIG    1       39.957  29.141   9.703  0.00  0.00    -0.037 A 
ATOM      8  C   LIG    1       40.305  29.919  10.828  0.00  0.00    +0.008 A 
ATOM      9  C   LIG    1       41.480  29.688  11.554  0.00  0.00    +0.046 A 
BRANCH   4  10
ATOM     10  O   LIG    1       43.487  28.404  11.838  0.00  0.00    -0.507 OA
ATOM     11  H   LIG    1       43.540  29.002  12.602  0.00  0.00    +0.292 HD
ENDBRANCH   4  10
ENDBRANCH   1   7
BRANCH   1  12
ATOM     12  C   LIG    1       38.675  30.845   8.291  0.00  0.00    -0.037 A 
ATOM     13  C   LIG    1       39.637  31.197   7.321  0.00  0.00    +0.008 A 
ATOM     14  C   LIG    1       39.676  32.473   6.746  0.00  0.00    +0.046 A 
ATOM     15  C   LIG    1       38.743  33.423   7.129  0.00  0.00    +0.117 A 
ATOM     16  C   LIG    1       37.787  33.120   8.085  0.00  0.00    +0.046 A 
ATOM     17  C   LIG    1       37.762  31.849   8.670  0.00  0.00    +0.008 A 
BRANCH  15  18
ATOM     18  O   LIG    1       38.733  34.673   6.587  0.00  0.00    -0.507 OA
ATOM     19  H   LIG    1       38.474  35.306   7.277  0.00  0.00    +0.292 HD
ENDBRANCH  15  18
ENDBRANCH   1  12
TORSDOF 4
ENDMDL
MODEL 9
REMARK VINA RESULT:      -6.6      3.544      6.815
REMARK  Name = 
REMARK                            x       y       z     vdW  Elec       q    Type
REMARK                         _______ _______ _______ _____ _____    ______ ____
ROOT
ATOM      1  C   LIG    1       41.047  28.705  10.217  0.00  0.00    +0.015 C 
ATOM      2  C   LIG    1       42.002  28.099   9.142  0.00  0.00    +0.021 C 
ATOM      3  C   LIG    1       41.618  30.140  10.427  0.00  0.00    +0.021 C 
ENDROOT
BRANCH   1   7
ATOM      4  C   LIG    1       41.222  26.456  13.973  0.00  0.00    +0.117 A 
ATOM      5  C   LIG    1       41.315  27.837  13.997  0.00  0.00    +0.046 A 
ATOM      6  C   LIG    1       41.267  28.565  12.802  0.00  0.00    +0.008 A 
ATOM      7  C   LIG    1       41.111  27.925  11.558  0.00  0.00    -0.037 A 
ATOM      8  C   LIG    1       41.020  26.517  11.576  0.00  0.00    +0.008 A 
ATOM      9  C   LIG    1       41.076  25.785  12.768  0.00  0.00    +0.046 A 
BRANCH   4  10
ATOM     10  O   LIG    1       41.283  25.787  15.159  0.00  0.00    -0.507 OA
ATOM     11  H   LIG    1       41.314  26.439  15.878  0.00  0.00    +0.292 HD
ENDBRANCH   4  10
ENDBRANCH   1   7
BRANCH   1  12
ATOM     12  C   LIG    1       39.588  28.768   9.685  0.00  0.00    -0.037 A 
ATOM     13  C   LIG    1       38.494  28.922  10.563  0.00  0.00    +0.008 A 
ATOM     14  C   LIG    1       37.174  28.979  10.098  0.00  0.00    +0.046 A 
ATOM     15  C   LIG    1       36.925  28.889   8.737  0.00  0.00    +0.117 A 
ATOM     16  C   LIG    1       37.971  28.729   7.844  0.00  0.00    +0.046 A 
ATOM     17  C   LIG    1       39.287  28.654   8.314  0.00  0.00    +0.008 A 
BRANCH  15  18
ATOM     18  O   LIG    1       35.659  28.953   8.238  0.00  0.00    -0.507 OA
ATOM     19  H   LIG    1       35.706  28.900   7.270  0.00  0.00    +0.292 HD
ENDBRANCH  15  18
ENDBRANCH   1  12
TORSDOF 4
ENDMDL
