MODEL 1
REMARK VINA RESULT:      -7.1      0.000      0.000
REMARK  Name = 
REMARK                            x       y       z     vdW  Elec       q    Type
REMARK                         _______ _______ _______ _____ _____    ______ ____
ROOT
ATOM      1  C   LIG    1        8.438  -4.746  21.767  0.00  0.00    +0.015 C 
ATOM      2  C   LIG    1        7.503  -5.990  21.874  0.00  0.00    +0.021 C 
ATOM      3  C   LIG    1        9.599  -5.254  20.859  0.00  0.00    +0.021 C 
ENDROOT
BRANCH   1   7
ATOM      4  C   LIG    1       10.105  -3.572  25.645  0.00  0.00    +0.117 A 
ATOM      5  C   LIG    1        8.732  -3.642  25.483  0.00  0.00    +0.046 A 
ATOM      6  C   LIG    1        8.189  -4.010  24.246  0.00  0.00    +0.008 A 
ATOM      7  C   LIG    1        9.011  -4.328  23.148  0.00  0.00    -0.037 A 
ATOM      8  C   LIG    1       10.404  -4.245  23.354  0.00  0.00    +0.008 A 
ATOM      9  C   LIG    1       10.951  -3.870  24.587  0.00  0.00    +0.046 A 
BRANCH   4  10
ATOM     10  O   LIG    1       10.590  -3.201  26.863  0.00  0.00    -0.507 OA
ATOM     11  H   LIG    1       10.941  -2.298  26.793  0.00  0.00    +0.292 HD
ENDBRANCH   4  10
ENDBRANCH   1   7
BRANCH   1  12
ATOM     12  C   LIG    1        7.697  -3.556  21.095  0.00  0.00    -0.037 A 
ATOM     13  C   LIG    1        6.306  -3.380  21.247  0.00  0.00    +0.008 A 
ATOM     14  C   LIG    1        5.625  -2.314  20.646  0.00  0.00    +0.046 A 
ATOM     15  C   LIG    1        6.330  -1.395  19.885  0.00  0.00    +0.117 A 
ATOM     16  C   LIG    1        7.696  -1.538  19.704  0.00  0.00    +0.046 A 
ATOM     17  C   LIG    1        8.370  -2.615  20.291  0.00  0.00    +0.008 A 
BRANCH  15  18
ATOM     18  O   LIG    1        5.712  -0.335  19.293  0.00  0.00    -0.507 OA
ATOM     19  H   LIG    1        5.497  -0.575  18.377  0.00  0.00    +0.292 HD
ENDBRANCH  15  18
ENDBRANCH   1  12
TORSDOF 4
ENDMDL
MODEL 2
REMARK VINA RESULT:      -7.1      0.135      5.617
REMARK  Name = 
REMARK                            x       y       z     vdW  Elec       q    Type
REMARK                         _______ _______ _______ _____ _____    ______ ____
ROOT
ATOM      1  C   LIG    1        8.501  -4.724  21.802  0.00  0.00    +0.015 C 
ATOM      2  C   LIG    1        9.669  -5.255  20.916  0.00  0.00    +0.021 C 
ATOM      3  C   LIG    1        7.545  -5.952  21.900  0.00  0.00    +0.021 C 
ENDROOT
BRANCH   1   7
ATOM      4  C   LIG    1        6.434  -1.374  19.880  0.00  0.00    +0.117 A 
ATOM      5  C   LIG    1        5.740  -2.197  20.752  0.00  0.00    +0.046 A 
ATOM      6  C   LIG    1        6.390  -3.274  21.366  0.00  0.00    +0.008 A 
ATOM      7  C   LIG    1        7.752  -3.542  21.131  0.00  0.00    -0.037 A 
ATOM      8  C   LIG    1        8.423  -2.680  20.237  0.00  0.00    +0.008 A 
ATOM      9  C   LIG    1        7.774  -1.607  19.615  0.00  0.00    +0.046 A 
BRANCH   4  10
ATOM     10  O   LIG    1        5.760  -0.342  19.298  0.00  0.00    -0.507 OA
ATOM     11  H   LIG    1        6.178   0.491  19.569  0.00  0.00    +0.292 HD
ENDBRANCH   4  10
ENDBRANCH   1   7
BRANCH   1  12
ATOM     12  C   LIG    1        9.019  -4.319  23.211  0.00  0.00    -0.037 A 
ATOM     13  C   LIG    1       10.398  -4.174  23.471  0.00  0.00    +0.008 A 
ATOM     14  C   LIG    1       10.879  -3.811  24.735  0.00  0.00    +0.046 A 
ATOM     15  C   LIG    1        9.983  -3.579  25.766  0.00  0.00    +0.117 A 
ATOM     16  C   LIG    1        8.621  -3.719  25.554  0.00  0.00    +0.046 A 
ATOM     17  C   LIG    1        8.145  -4.099  24.294  0.00  0.00    +0.008 A 
BRANCH  15  18
ATOM     18  O   LIG    1       10.404  -3.210  27.008  0.00  0.00    -0.507 OA
ATOM     19  H   LIG    1        9.874  -3.687  27.668  0.00  0.00    +0.292 HD
ENDBRANCH  15  18
ENDBRANCH   1  12
TORSDOF 4
ENDMDL
MODEL 3
REMARK VINA RESULT:      -6.7      6.327      7.796
REMARK  Name = 
REMARK                            x       y       z     vdW  Elec       q    Type
REMARK                         _______ _______ _______ _____ _____    ______ ____
ROOT
ATOM      1  C   LIG    1        1.753   0.027  22.936  0.00  0.00    +0.015 C 
ATOM      2  C   LIG    1        2.663   0.903  23.851  0.00  0.00    +0.021 C 
ATOM      3  C   LIG    1        0.575   0.987  22.587  0.00  0.00    +0.021 C 
ENDROOT
BRANCH   1   7
ATOM      4  C   LIG    1        0.161  -3.445  25.081  0.00  0.00    +0.117 A 
ATOM      5  C   LIG    1        1.034  -3.636  24.024  0.00  0.00    +0.046 A 
ATOM      6  C   LIG    1        1.544  -2.533  23.328  0.00  0.00    +0.008 A 
ATOM      7  C   LIG    1        1.199  -1.215  23.685  0.00  0.00    -0.037 A 
ATOM      8  C   LIG    1        0.307  -1.064  24.768  0.00  0.00    +0.008 A 
ATOM      9  C   LIG    1       -0.211  -2.165  25.461  0.00  0.00    +0.046 A 
BRANCH   4  10
ATOM     10  O   LIG    1       -0.318  -4.547  25.725  0.00  0.00    -0.507 OA
ATOM     11  H   LIG    1       -0.046  -4.501  26.657  0.00  0.00    +0.292 HD
ENDBRANCH   4  10
ENDBRANCH   1   7
BRANCH   1  12
ATOM     12  C   LIG    1        2.513  -0.399  21.649  0.00  0.00    -0.037 A 
ATOM     13  C   LIG    1        1.943  -1.302  20.727  0.00  0.00    +0.008 A 
ATOM     14  C   LIG    1        2.617  -1.696  19.564  0.00  0.00    +0.046 A 
ATOM     15  C   LIG    1        3.877  -1.185  19.298  0.00  0.00    +0.117 A 
ATOM     16  C   LIG    1        4.475  -0.302  20.183  0.00  0.00    +0.046 A 
ATOM     17  C   LIG    1        3.806   0.075  21.353  0.00  0.00    +0.008 A 
BRANCH  15  18
ATOM     18  O   LIG    1        4.564  -1.528  18.173  0.00  0.00    -0.507 OA
ATOM     19  H   LIG    1        4.895  -0.717  17.753  0.00  0.00    +0.292 HD
ENDBRANCH  15  18
ENDBRANCH   1  12
TORSDOF 4
ENDMDL
MODEL 4
REMARK VINA RESULT:      -6.7      6.314      8.616
REMARK  Name = 
REMARK                            x       y       z     vdW  Elec       q    Type
REMARK                         _______ _______ _______ _____ _____    ______ ____
ROOT
ATOM      1  C   LIG    1        1.729   0.034  22.920  0.00  0.00    +0.015 C 
ATOM      2  C   LIG    1        0.580   1.036  22.594  0.00  0.00    +0.021 C 
ATOM      3  C   LIG    1        2.673   0.866  23.840  0.00  0.00    +0.021 C 
ENDROOT
BRANCH   1   7
ATOM      4  C   LIG    1        3.871  -1.216  19.308  0.00  0.00    +0.117 A 
ATOM      5  C   LIG    1        4.472  -0.334  20.189  0.00  0.00    +0.046 A 
ATOM      6  C   LIG    1        3.794   0.077  21.343  0.00  0.00    +0.008 A 
ATOM      7  C   LIG    1        2.503  -0.398  21.645  0.00  0.00    -0.037 A 
ATOM      8  C   LIG    1        1.925  -1.295  20.722  0.00  0.00    +0.008 A 
ATOM      9  C   LIG    1        2.597  -1.702  19.564  0.00  0.00    +0.046 A 
BRANCH   4  10
ATOM     10  O   LIG    1        4.563  -1.582  18.193  0.00  0.00    -0.507 OA
ATOM     11  H   LIG    1        4.050  -2.256  17.719  0.00  0.00    +0.292 HD
ENDBRANCH   4  10
ENDBRANCH   1   7
BRANCH   1  12
ATOM     12  C   LIG    1        1.179  -1.207  23.677  0.00  0.00    -0.037 A 
ATOM     13  C   LIG    1        0.294  -1.068  24.767  0.00  0.00    +0.008 A 
ATOM     14  C   LIG    1       -0.208  -2.176  25.460  0.00  0.00    +0.046 A 
ATOM     15  C   LIG    1        0.163  -3.453  25.067  0.00  0.00    +0.117 A 
ATOM     16  C   LIG    1        1.037  -3.632  24.008  0.00  0.00    +0.046 A 
ATOM     17  C   LIG    1        1.551  -2.521  23.329  0.00  0.00    +0.008 A 
BRANCH  15  18
ATOM     18  O   LIG    1       -0.310  -4.561  25.702  0.00  0.00    -0.507 OA
ATOM     19  H   LIG    1       -0.951  -4.280  26.376  0.00  0.00    +0.292 HD
ENDBRANCH  15  18
ENDBRANCH   1  12
TORSDOF 4
ENDMDL
MODEL 5
REMARK VINA RESULT:      -6.7      1.716      2.670
REMARK  Name = 
REMARK                            x       y       z     vdW  Elec       q    Type
REMARK                         _______ _______ _______ _____ _____    ______ ____
ROOT
ATOM      1  C   LIG    1        8.350  -4.599  21.789  0.00  0.00    +0.015 C 
ATOM      2  C   LIG    1        6.806  -4.415  21.914  0.00  0.00    +0.021 C 
ATOM      3  C   LIG    1        8.503  -6.125  21.514  0.00  0.00    +0.021 C 
ENDROOT
BRANCH   1   7
ATOM      4  C   LIG    1       10.384  -3.567  25.530  0.00  0.00    +0.117 A 
ATOM      5  C   LIG    1       11.130  -3.950  24.428  0.00  0.00    +0.046 A 
ATOM      6  C   LIG    1       10.489  -4.287  23.230  0.00  0.00    +0.008 A 
ATOM      7  C   LIG    1        9.088  -4.237  23.106  0.00  0.00    -0.037 A 
ATOM      8  C   LIG    1        8.364  -3.842  24.251  0.00  0.00    +0.008 A 
ATOM      9  C   LIG    1        9.000  -3.511  25.453  0.00  0.00    +0.046 A 
BRANCH   4  10
ATOM     10  O   LIG    1       11.048  -3.256  26.678  0.00  0.00    -0.507 OA
ATOM     11  H   LIG    1       11.229  -4.078  27.162  0.00  0.00    +0.292 HD
ENDBRANCH   4  10
ENDBRANCH   1   7
BRANCH   1  12
ATOM     12  C   LIG    1        8.908  -3.769  20.599  0.00  0.00    -0.037 A 
ATOM     13  C   LIG    1       10.078  -4.164  19.915  0.00  0.00    +0.008 A 
ATOM     14  C   LIG    1       10.593  -3.426  18.842  0.00  0.00    +0.046 A 
ATOM     15  C   LIG    1        9.939  -2.276  18.427  0.00  0.00    +0.117 A 
ATOM     16  C   LIG    1        8.793  -1.850  19.078  0.00  0.00    +0.046 A 
ATOM     17  C   LIG    1        8.291  -2.581  20.161  0.00  0.00    +0.008 A 
BRANCH  15  18
ATOM     18  O   LIG    1       10.396  -1.534  17.380  0.00  0.00    -0.507 OA
ATOM     19  H   LIG    1       10.384  -2.087  16.582  0.00  0.00    +0.292 HD
ENDBRANCH  15  18
ENDBRANCH   1  12
TORSDOF 4
ENDMDL
MODEL 6
REMARK VINA RESULT:      -6.7      1.674      5.598
REMARK  Name = 
REMARK                            x       y       z     vdW  Elec       q    Type
REMARK                         _______ _______ _______ _____ _____    ______ ____
ROOT
ATOM      1  C   LIG    1        7.826  -4.699  22.401  0.00  0.00    +0.015 C 
ATOM      2  C   LIG    1        7.371  -6.079  21.833  0.00  0.00    +0.021 C 
ATOM      3  C   LIG    1        7.197  -4.680  23.827  0.00  0.00    +0.021 C 
ENDROOT
BRANCH   1   7
ATOM      4  C   LIG    1        6.190  -1.389  20.044  0.00  0.00    +0.117 A 
ATOM      5  C   LIG    1        7.283  -1.170  20.864  0.00  0.00    +0.046 A 
ATOM      6  C   LIG    1        7.810  -2.219  21.627  0.00  0.00    +0.008 A 
ATOM      7  C   LIG    1        7.260  -3.514  21.573  0.00  0.00    -0.037 A 
ATOM      8  C   LIG    1        6.147  -3.696  20.724  0.00  0.00    +0.008 A 
ATOM      9  C   LIG    1        5.613  -2.647  19.966  0.00  0.00    +0.046 A 
BRANCH   4  10
ATOM     10  O   LIG    1        5.705  -0.337  19.326  0.00  0.00    -0.507 OA
ATOM     11  H   LIG    1        5.997   0.486  19.751  0.00  0.00    +0.292 HD
ENDBRANCH   4  10
ENDBRANCH   1   7
BRANCH   1  12
ATOM     12  C   LIG    1        9.376  -4.622  22.484  0.00  0.00    -0.037 A 
ATOM     13  C   LIG    1       10.026  -4.182  23.657  0.00  0.00    +0.008 A 
ATOM     14  C   LIG    1       11.421  -4.106  23.746  0.00  0.00    +0.046 A 
ATOM     15  C   LIG    1       12.197  -4.479  22.659  0.00  0.00    +0.117 A 
ATOM     16  C   LIG    1       11.597  -4.908  21.487  0.00  0.00    +0.046 A 
ATOM     17  C   LIG    1       10.201  -4.966  21.395  0.00  0.00    +0.008 A 
BRANCH  15  18
ATOM     18  O   LIG    1       13.558  -4.435  22.704  0.00  0.00    -0.507 OA
ATOM     19  H   LIG    1       13.823  -3.867  23.446  0.00  0.00    +0.292 HD
ENDBRANCH  15  18
ENDBRANCH   1  12
TORSDOF 4
ENDMDL
MODEL 7
REMARK VINA RESULT:      -6.6      1.711      5.668
REMARK  Name = 
REMARK                            x       y       z     vdW  Elec       q    Type
REMARK                         _______ _______ _______ _____ _____    ______ ____
ROOT
ATOM      1  C   LIG    1        8.360  -4.617  21.781  0.00  0.00    +0.015 C 
ATOM      2  C   LIG    1        8.450  -6.152  21.519  0.00  0.00    +0.021 C 
ATOM      3  C   LIG    1        6.826  -4.369  21.904  0.00  0.00    +0.021 C 
ENDROOT
BRANCH   1   7
ATOM      4  C   LIG    1        9.904  -2.248  18.436  0.00  0.00    +0.117 A 
ATOM      5  C   LIG    1       10.562  -3.405  18.815  0.00  0.00    +0.046 A 
ATOM      6  C   LIG    1       10.080  -4.166  19.887  0.00  0.00    +0.008 A 
ATOM      7  C   LIG    1        8.922  -3.791  20.593  0.00  0.00    -0.037 A 
ATOM      8  C   LIG    1        8.281  -2.605  20.176  0.00  0.00    +0.008 A 
ATOM      9  C   LIG    1        8.764  -1.837  19.109  0.00  0.00    +0.046 A 
BRANCH   4  10
ATOM     10  O   LIG    1       10.412  -1.533  17.393  0.00  0.00    -0.507 OA
ATOM     11  H   LIG    1       10.351  -2.075  16.589  0.00  0.00    +0.292 HD
ENDBRANCH   4  10
ENDBRANCH   1   7
BRANCH   1  12
ATOM     12  C   LIG    1        9.084  -4.242  23.105  0.00  0.00    -0.037 A 
ATOM     13  C   LIG    1        8.361  -3.821  24.241  0.00  0.00    +0.008 A 
ATOM     14  C   LIG    1        9.000  -3.479  25.439  0.00  0.00    +0.046 A 
ATOM     15  C   LIG    1       10.381  -3.558  25.524  0.00  0.00    +0.117 A 
ATOM     16  C   LIG    1       11.127  -3.958  24.428  0.00  0.00    +0.046 A 
ATOM     17  C   LIG    1       10.487  -4.283  23.227  0.00  0.00    +0.008 A 
BRANCH  15  18
ATOM     18  O   LIG    1       11.045  -3.248  26.673  0.00  0.00    -0.507 OA
ATOM     19  H   LIG    1       10.397  -2.947  27.332  0.00  0.00    +0.292 HD
ENDBRANCH  15  18
ENDBRANCH   1  12
TORSDOF 4
ENDMDL
MODEL 8
REMARK VINA RESULT:      -6.4      3.696      6.765
REMARK  Name = 
REMARK                            x       y       z     vdW  Elec       q    Type
REMARK                         _______ _______ _______ _____ _____    ______ ____
ROOT
ATOM      1  C   LIG    1        3.412  -1.072  20.104  0.00  0.00    +0.015 C 
ATOM      2  C   LIG    1        3.153  -0.429  18.707  0.00  0.00    +0.021 C 
ATOM      3  C   LIG    1        2.307  -2.168  20.198  0.00  0.00    +0.021 C 
ENDROOT
BRANCH   1   7
ATOM      4  C   LIG    1        2.835   1.778  23.381  0.00  0.00    +0.117 A 
ATOM      5  C   LIG    1        3.832   2.002  22.447  0.00  0.00    +0.046 A 
ATOM      6  C   LIG    1        4.028   1.094  21.399  0.00  0.00    +0.008 A 
ATOM      7  C   LIG    1        3.222  -0.051  21.258  0.00  0.00    -0.037 A 
ATOM      8  C   LIG    1        2.217  -0.244  22.231  0.00  0.00    +0.008 A 
ATOM      9  C   LIG    1        2.023   0.658  23.284  0.00  0.00    +0.046 A 
BRANCH   4  10
ATOM     10  O   LIG    1        2.684   2.683  24.389  0.00  0.00    -0.507 OA
ATOM     11  H   LIG    1        3.225   3.464  24.185  0.00  0.00    +0.292 HD
ENDBRANCH   4  10
ENDBRANCH   1   7
BRANCH   1  12
ATOM     12  C   LIG    1        4.827  -1.713  20.163  0.00  0.00    -0.037 A 
ATOM     13  C   LIG    1        5.849  -1.313  19.276  0.00  0.00    +0.008 A 
ATOM     14  C   LIG    1        7.128  -1.883  19.316  0.00  0.00    +0.046 A 
ATOM     15  C   LIG    1        7.410  -2.863  20.255  0.00  0.00    +0.117 A 
ATOM     16  C   LIG    1        6.431  -3.289  21.137  0.00  0.00    +0.046 A 
ATOM     17  C   LIG    1        5.149  -2.730  21.082  0.00  0.00    +0.008 A 
BRANCH  15  18
ATOM     18  O   LIG    1        8.643  -3.435  20.340  0.00  0.00    -0.507 OA
ATOM     19  H   LIG    1        8.574  -4.361  20.054  0.00  0.00    +0.292 HD
ENDBRANCH  15  18
ENDBRANCH   1  12
TORSDOF 4
ENDMDL
MODEL 9
REMARK VINA RESULT:      -6.0      5.556      9.208
REMARK  Name = 
REMARK                            x       y       z     vdW  Elec       q    Type
REMARK                         _______ _______ _______ _____ _____    ______ ____
ROOT
ATOM      1  C   LIG    1       11.561  -1.648  29.856  0.00  0.00    +0.015 C 
ATOM      2  C   LIG    1       11.349  -0.103  29.836  0.00  0.00    +0.021 C 
ATOM      3  C   LIG    1       12.995  -1.800  30.449  0.00  0.00    +0.021 C 
ENDROOT
BRANCH   1   7
ATOM      4  C   LIG    1       11.516  -3.348  25.818  0.00  0.00    +0.117 A 
ATOM      5  C   LIG    1       10.436  -3.555  26.660  0.00  0.00    +0.046 A 
ATOM      6  C   LIG    1       10.444  -3.022  27.954  0.00  0.00    +0.008 A 
ATOM      7  C   LIG    1       11.527  -2.258  28.429  0.00  0.00    -0.037 A 
ATOM      8  C   LIG    1       12.608  -2.070  27.540  0.00  0.00    +0.008 A 
ATOM      9  C   LIG    1       12.607  -2.608  26.248  0.00  0.00    +0.046 A 
BRANCH   4  10
ATOM     10  O   LIG    1       11.471  -3.893  24.570  0.00  0.00    -0.507 OA
ATOM     11  H   LIG    1       11.400  -4.857  24.657  0.00  0.00    +0.292 HD
ENDBRANCH   4  10
ENDBRANCH   1   7
BRANCH   1  12
ATOM     12  C   LIG    1       10.513  -2.337  30.774  0.00  0.00    -0.037 A 
ATOM     13  C   LIG    1        9.354  -1.655  31.204  0.00  0.00    +0.008 A 
ATOM     14  C   LIG    1        8.402  -2.262  32.032  0.00  0.00    +0.046 A 
ATOM     15  C   LIG    1        8.590  -3.573  32.441  0.00  0.00    +0.117 A 
ATOM     16  C   LIG    1        9.718  -4.274  32.049  0.00  0.00    +0.046 A 
ATOM     17  C   LIG    1       10.676  -3.658  31.235  0.00  0.00    +0.008 A 
BRANCH  15  18
ATOM     18  O   LIG    1        7.684  -4.209  33.236  0.00  0.00    -0.507 OA
ATOM     19  H   LIG    1        6.997  -3.572  33.492  0.00  0.00    +0.292 HD
ENDBRANCH  15  18
ENDBRANCH   1  12
TORSDOF 4
ENDMDL
