MODEL 1
REMARK VINA RESULT:      -7.3      0.000      0.000
REMARK  Name = 
REMARK                            x       y       z     vdW  Elec       q    Type
REMARK                         _______ _______ _______ _____ _____    ______ ____
ROOT
ATOM      1  C   LIG    1       17.731   4.086  23.085  0.00  0.00    +0.015 C 
ATOM      2  C   LIG    1       16.176   3.990  23.153  0.00  0.00    +0.021 C 
ATOM      3  C   LIG    1       17.969   5.309  22.148  0.00  0.00    +0.021 C 
ENDROOT
BRANCH   1   7
ATOM      4  C   LIG    1       19.532   0.541  21.245  0.00  0.00    +0.117 A 
ATOM      5  C   LIG    1       18.962   0.444  22.503  0.00  0.00    +0.046 A 
ATOM      6  C   LIG    1       18.389   1.572  23.102  0.00  0.00    +0.008 A 
ATOM      7  C   LIG    1       18.364   2.819  22.449  0.00  0.00    -0.037 A 
ATOM      8  C   LIG    1       18.955   2.876  21.169  0.00  0.00    +0.008 A 
ATOM      9  C   LIG    1       19.535   1.752  20.569  0.00  0.00    +0.046 A 
BRANCH   4  10
ATOM     10  O   LIG    1       20.085  -0.580  20.703  0.00  0.00    -0.507 OA
ATOM     11  H   LIG    1       19.595  -0.806  19.896  0.00  0.00    +0.292 HD
ENDBRANCH   4  10
ENDBRANCH   1   7
BRANCH   1  12
ATOM     12  C   LIG    1       18.329   4.351  24.495  0.00  0.00    -0.037 A 
ATOM     13  C   LIG    1       19.651   4.816  24.655  0.00  0.00    +0.008 A 
ATOM     14  C   LIG    1       20.203   5.059  25.919  0.00  0.00    +0.046 A 
ATOM     15  C   LIG    1       19.434   4.845  27.052  0.00  0.00    +0.117 A 
ATOM     16  C   LIG    1       18.135   4.381  26.938  0.00  0.00    +0.046 A 
ATOM     17  C   LIG    1       17.592   4.123  25.674  0.00  0.00    +0.008 A 
BRANCH  15  18
ATOM     18  O   LIG    1       19.924   5.081  28.302  0.00  0.00    -0.507 OA
ATOM     19  H   LIG    1       20.488   5.871  28.268  0.00  0.00    +0.292 HD
ENDBRANCH  15  18
ENDBRANCH   1  12
TORSDOF 4
ENDMDL
MODEL 2
REMARK VINA RESULT:      -7.3      0.068      5.703
REMARK  Name = 
REMARK                            x       y       z     vdW  Elec       q    Type
REMARK                         _______ _______ _______ _____ _____    ______ ____
ROOT
ATOM      1  C   LIG    1       17.797   4.133  23.029  0.00  0.00    +0.015 C 
ATOM      2  C   LIG    1       17.980   5.361  22.084  0.00  0.00    +0.021 C 
ATOM      3  C   LIG    1       16.247   3.998  23.136  0.00  0.00    +0.021 C 
ENDROOT
BRANCH   1   7
ATOM      4  C   LIG    1       19.420   4.852  27.035  0.00  0.00    +0.117 A 
ATOM      5  C   LIG    1       20.223   5.051  25.925  0.00  0.00    +0.046 A 
ATOM      6  C   LIG    1       19.716   4.818  24.641  0.00  0.00    +0.008 A 
ATOM      7  C   LIG    1       18.389   4.393  24.441  0.00  0.00    -0.037 A 
ATOM      8  C   LIG    1       17.603   4.201  25.597  0.00  0.00    +0.008 A 
ATOM      9  C   LIG    1       18.109   4.426  26.883  0.00  0.00    +0.046 A 
BRANCH   4  10
ATOM     10  O   LIG    1       19.957   5.082  28.266  0.00  0.00    -0.507 OA
ATOM     11  H   LIG    1       20.177   4.227  28.671  0.00  0.00    +0.292 HD
ENDBRANCH   4  10
ENDBRANCH   1   7
BRANCH   1  12
ATOM     12  C   LIG    1       18.416   2.855  22.399  0.00  0.00    -0.037 A 
ATOM     13  C   LIG    1       18.403   1.620  23.082  0.00  0.00    +0.008 A 
ATOM     14  C   LIG    1       18.959   0.461  22.527  0.00  0.00    +0.046 A 
ATOM     15  C   LIG    1       19.534   0.515  21.267  0.00  0.00    +0.117 A 
ATOM     16  C   LIG    1       19.575   1.710  20.568  0.00  0.00    +0.046 A 
ATOM     17  C   LIG    1       19.035   2.870  21.133  0.00  0.00    +0.008 A 
BRANCH  15  18
ATOM     18  O   LIG    1       20.075  -0.590  20.682  0.00  0.00    -0.507 OA
ATOM     19  H   LIG    1       21.027  -0.606  20.872  0.00  0.00    +0.292 HD
ENDBRANCH  15  18
ENDBRANCH   1  12
TORSDOF 4
ENDMDL
MODEL 3
REMARK VINA RESULT:      -6.9      3.087      4.489
REMARK  Name = 
REMARK                            x       y       z     vdW  Elec       q    Type
REMARK                         _______ _______ _______ _____ _____    ______ ____
ROOT
ATOM      1  C   LIG    1       18.634   4.503  26.213  0.00  0.00    +0.015 C 
ATOM      2  C   LIG    1       19.842   5.312  25.648  0.00  0.00    +0.021 C 
ATOM      3  C   LIG    1       19.266   3.119  26.555  0.00  0.00    +0.021 C 
ENDROOT
BRANCH   1   7
ATOM      4  C   LIG    1       15.516   3.962  23.184  0.00  0.00    +0.117 A 
ATOM      5  C   LIG    1       15.171   3.989  24.524  0.00  0.00    +0.046 A 
ATOM      6  C   LIG    1       16.160   4.155  25.500  0.00  0.00    +0.008 A 
ATOM      7  C   LIG    1       17.516   4.310  25.154  0.00  0.00    -0.037 A 
ATOM      8  C   LIG    1       17.827   4.277  23.778  0.00  0.00    +0.008 A 
ATOM      9  C   LIG    1       16.841   4.104  22.799  0.00  0.00    +0.046 A 
BRANCH   4  10
ATOM     10  O   LIG    1       14.522   3.790  22.267  0.00  0.00    -0.507 OA
ATOM     11  H   LIG    1       14.537   2.866  21.967  0.00  0.00    +0.292 HD
ENDBRANCH   4  10
ENDBRANCH   1   7
BRANCH   1  12
ATOM     12  C   LIG    1       18.069   5.178  27.494  0.00  0.00    -0.037 A 
ATOM     13  C   LIG    1       17.502   4.414  28.536  0.00  0.00    +0.008 A 
ATOM     14  C   LIG    1       16.988   5.009  29.695  0.00  0.00    +0.046 A 
ATOM     15  C   LIG    1       17.039   6.387  29.836  0.00  0.00    +0.117 A 
ATOM     16  C   LIG    1       17.581   7.173  28.832  0.00  0.00    +0.046 A 
ATOM     17  C   LIG    1       18.078   6.576  27.667  0.00  0.00    +0.008 A 
BRANCH  15  18
ATOM     18  O   LIG    1       16.564   7.009  30.951  0.00  0.00    -0.507 OA
ATOM     19  H   LIG    1       17.303   7.145  31.567  0.00  0.00    +0.292 HD
ENDBRANCH  15  18
ENDBRANCH   1  12
TORSDOF 4
ENDMDL
MODEL 4
REMARK VINA RESULT:      -6.9      9.372     11.319
REMARK  Name = 
REMARK                            x       y       z     vdW  Elec       q    Type
REMARK                         _______ _______ _______ _____ _____    ______ ____
ROOT
ATOM      1  C   LIG    1        8.934   1.071  29.150  0.00  0.00    +0.015 C 
ATOM      2  C   LIG    1        9.120  -0.387  28.628  0.00  0.00    +0.021 C 
ATOM      3  C   LIG    1        8.122   0.874  30.466  0.00  0.00    +0.021 C 
ENDROOT
BRANCH   1   7
ATOM      4  C   LIG    1        6.575   3.486  26.358  0.00  0.00    +0.117 A 
ATOM      5  C   LIG    1        7.711   4.025  26.937  0.00  0.00    +0.046 A 
ATOM      6  C   LIG    1        8.469   3.264  27.835  0.00  0.00    +0.008 A 
ATOM      7  C   LIG    1        8.111   1.942  28.163  0.00  0.00    -0.037 A 
ATOM      8  C   LIG    1        6.947   1.430  27.551  0.00  0.00    +0.008 A 
ATOM      9  C   LIG    1        6.183   2.191  26.658  0.00  0.00    +0.046 A 
BRANCH   4  10
ATOM     10  O   LIG    1        5.863   4.265  25.495  0.00  0.00    -0.507 OA
ATOM     11  H   LIG    1        6.380   4.374  24.680  0.00  0.00    +0.292 HD
ENDBRANCH   4  10
ENDBRANCH   1   7
BRANCH   1  12
ATOM     12  C   LIG    1       10.311   1.730  29.448  0.00  0.00    -0.037 A 
ATOM     13  C   LIG    1       11.354   1.709  28.499  0.00  0.00    +0.008 A 
ATOM     14  C   LIG    1       12.599   2.296  28.755  0.00  0.00    +0.046 A 
ATOM     15  C   LIG    1       12.821   2.925  29.970  0.00  0.00    +0.117 A 
ATOM     16  C   LIG    1       11.825   2.959  30.932  0.00  0.00    +0.046 A 
ATOM     17  C   LIG    1       10.588   2.355  30.679  0.00  0.00    +0.008 A 
BRANCH  15  18
ATOM     18  O   LIG    1       14.012   3.522  30.258  0.00  0.00    -0.507 OA
ATOM     19  H   LIG    1       13.833   4.379  30.677  0.00  0.00    +0.292 HD
ENDBRANCH  15  18
ENDBRANCH   1  12
TORSDOF 4
ENDMDL
MODEL 5
REMARK VINA RESULT:      -6.8     10.260     12.687
REMARK  Name = 
REMARK                            x       y       z     vdW  Elec       q    Type
REMARK                         _______ _______ _______ _____ _____    ______ ____
ROOT
ATOM      1  C   LIG    1        9.141   0.677  28.255  0.00  0.00    +0.015 C 
ATOM      2  C   LIG    1        8.736  -0.829  28.246  0.00  0.00    +0.021 C 
ATOM      3  C   LIG    1       10.272   0.746  27.184  0.00  0.00    +0.021 C 
ENDROOT
BRANCH   1   7
ATOM      4  C   LIG    1       10.700   1.898  32.163  0.00  0.00    +0.117 A 
ATOM      5  C   LIG    1       11.413   2.204  31.016  0.00  0.00    +0.046 A 
ATOM      6  C   LIG    1       10.927   1.813  29.763  0.00  0.00    +0.008 A 
ATOM      7  C   LIG    1        9.709   1.118  29.631  0.00  0.00    -0.037 A 
ATOM      8  C   LIG    1        9.013   0.825  30.824  0.00  0.00    +0.008 A 
ATOM      9  C   LIG    1        9.500   1.208  32.079  0.00  0.00    +0.046 A 
BRANCH   4  10
ATOM     10  O   LIG    1       11.215   2.290  33.363  0.00  0.00    -0.507 OA
ATOM     11  H   LIG    1       10.572   2.874  33.797  0.00  0.00    +0.292 HD
ENDBRANCH   4  10
ENDBRANCH   1   7
BRANCH   1  12
ATOM     12  C   LIG    1        7.940   1.574  27.842  0.00  0.00    -0.037 A 
ATOM     13  C   LIG    1        7.907   2.948  28.162  0.00  0.00    +0.008 A 
ATOM     14  C   LIG    1        6.831   3.767  27.798  0.00  0.00    +0.046 A 
ATOM     15  C   LIG    1        5.766   3.224  27.097  0.00  0.00    +0.117 A 
ATOM     16  C   LIG    1        5.757   1.877  26.771  0.00  0.00    +0.046 A 
ATOM     17  C   LIG    1        6.826   1.058  27.153  0.00  0.00    +0.008 A 
BRANCH  15  18
ATOM     18  O   LIG    1        4.704   3.984  26.709  0.00  0.00    -0.507 OA
ATOM     19  H   LIG    1        3.888   3.542  26.994  0.00  0.00    +0.292 HD
ENDBRANCH  15  18
ENDBRANCH   1  12
TORSDOF 4
ENDMDL
MODEL 6
REMARK VINA RESULT:      -6.8     10.295     12.189
REMARK  Name = 
REMARK                            x       y       z     vdW  Elec       q    Type
REMARK                         _______ _______ _______ _____ _____    ______ ____
ROOT
ATOM      1  C   LIG    1        9.149   0.739  28.323  0.00  0.00    +0.015 C 
ATOM      2  C   LIG    1       10.288   0.760  27.258  0.00  0.00    +0.021 C 
ATOM      3  C   LIG    1        8.715  -0.759  28.347  0.00  0.00    +0.021 C 
ENDROOT
BRANCH   1   7
ATOM      4  C   LIG    1        5.717   3.173  27.104  0.00  0.00    +0.117 A 
ATOM      5  C   LIG    1        6.741   3.752  27.834  0.00  0.00    +0.046 A 
ATOM      6  C   LIG    1        7.839   2.981  28.234  0.00  0.00    +0.008 A 
ATOM      7  C   LIG    1        7.941   1.617  27.900  0.00  0.00    -0.037 A 
ATOM      8  C   LIG    1        6.876   1.065  27.156  0.00  0.00    +0.008 A 
ATOM      9  C   LIG    1        5.773   1.831  26.761  0.00  0.00    +0.046 A 
BRANCH   4  10
ATOM     10  O   LIG    1        4.663   3.958  26.743  0.00  0.00    -0.507 OA
ATOM     11  H   LIG    1        4.270   4.335  27.548  0.00  0.00    +0.292 HD
ENDBRANCH   4  10
ENDBRANCH   1   7
BRANCH   1  12
ATOM     12  C   LIG    1        9.687   1.176  29.715  0.00  0.00    -0.037 A 
ATOM     13  C   LIG    1       10.883   1.913  29.839  0.00  0.00    +0.008 A 
ATOM     14  C   LIG    1       11.381   2.312  31.085  0.00  0.00    +0.046 A 
ATOM     15  C   LIG    1       10.682   1.985  32.237  0.00  0.00    +0.117 A 
ATOM     16  C   LIG    1        9.508   1.255  32.158  0.00  0.00    +0.046 A 
ATOM     17  C   LIG    1        9.023   0.842  30.911  0.00  0.00    +0.008 A 
BRANCH  15  18
ATOM     18  O   LIG    1       11.120   2.364  33.470  0.00  0.00    -0.507 OA
ATOM     19  H   LIG    1       10.350   2.612  34.008  0.00  0.00    +0.292 HD
ENDBRANCH  15  18
ENDBRANCH   1  12
TORSDOF 4
ENDMDL
MODEL 7
REMARK VINA RESULT:      -6.8      9.369     11.743
REMARK  Name = 
REMARK                            x       y       z     vdW  Elec       q    Type
REMARK                         _______ _______ _______ _____ _____    ______ ____
ROOT
ATOM      1  C   LIG    1        8.927   1.096  29.252  0.00  0.00    +0.015 C 
ATOM      2  C   LIG    1        8.124   0.900  30.575  0.00  0.00    +0.021 C 
ATOM      3  C   LIG    1        9.121  -0.362  28.737  0.00  0.00    +0.021 C 
ENDROOT
BRANCH   1   7
ATOM      4  C   LIG    1       12.864   2.899  29.917  0.00  0.00    +0.117 A 
ATOM      5  C   LIG    1       11.899   2.979  30.907  0.00  0.00    +0.046 A 
ATOM      6  C   LIG    1       10.636   2.412  30.702  0.00  0.00    +0.008 A 
ATOM      7  C   LIG    1       10.317   1.741  29.506  0.00  0.00    -0.037 A 
ATOM      8  C   LIG    1       11.327   1.681  28.522  0.00  0.00    +0.008 A 
ATOM      9  C   LIG    1       12.589   2.254  28.721  0.00  0.00    +0.046 A 
BRANCH   4  10
ATOM     10  O   LIG    1       14.077   3.473  30.156  0.00  0.00    -0.507 OA
ATOM     11  H   LIG    1       14.076   3.832  31.058  0.00  0.00    +0.292 HD
ENDBRANCH   4  10
ENDBRANCH   1   7
BRANCH   1  12
ATOM     12  C   LIG    1        8.109   1.935  28.230  0.00  0.00    -0.037 A 
ATOM     13  C   LIG    1        6.974   1.399  27.585  0.00  0.00    +0.008 A 
ATOM     14  C   LIG    1        6.229   2.142  26.662  0.00  0.00    +0.046 A 
ATOM     15  C   LIG    1        6.603   3.445  26.371  0.00  0.00    +0.117 A 
ATOM     16  C   LIG    1        7.717   4.004  26.976  0.00  0.00    +0.046 A 
ATOM     17  C   LIG    1        8.470   3.252  27.886  0.00  0.00    +0.008 A 
BRANCH  15  18
ATOM     18  O   LIG    1        5.901   4.210  25.490  0.00  0.00    -0.507 OA
ATOM     19  H   LIG    1        4.954   4.031  25.612  0.00  0.00    +0.292 HD
ENDBRANCH  15  18
ENDBRANCH   1  12
TORSDOF 4
ENDMDL
MODEL 8
REMARK VINA RESULT:      -6.8      3.086      6.870
REMARK  Name = 
REMARK                            x       y       z     vdW  Elec       q    Type
REMARK                         _______ _______ _______ _____ _____    ______ ____
ROOT
ATOM      1  C   LIG    1       18.630   4.430  26.231  0.00  0.00    +0.015 C 
ATOM      2  C   LIG    1       19.272   3.051  26.576  0.00  0.00    +0.021 C 
ATOM      3  C   LIG    1       19.830   5.247  25.664  0.00  0.00    +0.021 C 
ENDROOT
BRANCH   1   7
ATOM      4  C   LIG    1       17.042   6.394  29.811  0.00  0.00    +0.117 A 
ATOM      5  C   LIG    1       17.585   7.161  28.793  0.00  0.00    +0.046 A 
ATOM      6  C   LIG    1       18.101   6.542  27.648  0.00  0.00    +0.008 A 
ATOM      7  C   LIG    1       18.072   5.143  27.492  0.00  0.00    -0.037 A 
ATOM      8  C   LIG    1       17.510   4.398  28.551  0.00  0.00    +0.008 A 
ATOM      9  C   LIG    1       17.001   5.013  29.701  0.00  0.00    +0.046 A 
BRANCH   4  10
ATOM     10  O   LIG    1       16.559   7.037  30.911  0.00  0.00    -0.507 OA
ATOM     11  H   LIG    1       15.639   6.759  31.051  0.00  0.00    +0.292 HD
ENDBRANCH   4  10
ENDBRANCH   1   7
BRANCH   1  12
ATOM     12  C   LIG    1       17.521   4.267  25.154  0.00  0.00    -0.037 A 
ATOM     13  C   LIG    1       17.831   4.260  23.778  0.00  0.00    +0.008 A 
ATOM     14  C   LIG    1       16.843   4.115  22.797  0.00  0.00    +0.046 A 
ATOM     15  C   LIG    1       15.518   3.967  23.178  0.00  0.00    +0.117 A 
ATOM     16  C   LIG    1       15.171   3.978  24.519  0.00  0.00    +0.046 A 
ATOM     17  C   LIG    1       16.160   4.140  25.496  0.00  0.00    +0.008 A 
BRANCH  15  18
ATOM     18  O   LIG    1       14.524   3.810  22.260  0.00  0.00    -0.507 OA
ATOM     19  H   LIG    1       13.807   4.429  22.472  0.00  0.00    +0.292 HD
ENDBRANCH  15  18
ENDBRANCH   1  12
TORSDOF 4
ENDMDL
MODEL 9
REMARK VINA RESULT:      -6.8     10.487     11.647
REMARK  Name = 
REMARK                            x       y       z     vdW  Elec       q    Type
REMARK                         _______ _______ _______ _____ _____    ______ ____
ROOT
ATOM      1  C   LIG    1        8.626   1.156  27.587  0.00  0.00    +0.015 C 
ATOM      2  C   LIG    1        9.571   0.364  26.631  0.00  0.00    +0.021 C 
ATOM      3  C   LIG    1        7.289   0.359  27.502  0.00  0.00    +0.021 C 
ENDROOT
BRANCH   1   7
ATOM      4  C   LIG    1        7.916   5.243  26.177  0.00  0.00    +0.117 A 
ATOM      5  C   LIG    1        8.998   4.981  27.000  0.00  0.00    +0.046 A 
ATOM      6  C   LIG    1        9.230   3.680  27.462  0.00  0.00    +0.008 A 
ATOM      7  C   LIG    1        8.391   2.610  27.097  0.00  0.00    -0.037 A 
ATOM      8  C   LIG    1        7.300   2.918  26.256  0.00  0.00    +0.008 A 
ATOM      9  C   LIG    1        7.060   4.220  25.799  0.00  0.00    +0.046 A 
BRANCH   4  10
ATOM     10  O   LIG    1        7.723   6.525  25.758  0.00  0.00    -0.507 OA
ATOM     11  H   LIG    1        6.787   6.634  25.522  0.00  0.00    +0.292 HD
ENDBRANCH   4  10
ENDBRANCH   1   7
BRANCH   1  12
ATOM     12  C   LIG    1        9.178   1.147  29.040  0.00  0.00    -0.037 A 
ATOM     13  C   LIG    1       10.561   1.261  29.299  0.00  0.00    +0.008 A 
ATOM     14  C   LIG    1       11.072   1.253  30.603  0.00  0.00    +0.046 A 
ATOM     15  C   LIG    1       10.204   1.138  31.677  0.00  0.00    +0.117 A 
ATOM     16  C   LIG    1        8.841   1.015  31.464  0.00  0.00    +0.046 A 
ATOM     17  C   LIG    1        8.335   1.005  30.159  0.00  0.00    +0.008 A 
BRANCH  15  18
ATOM     18  O   LIG    1       10.654   1.139  32.963  0.00  0.00    -0.507 OA
ATOM     19  H   LIG    1        9.928   0.862  33.544  0.00  0.00    +0.292 HD
ENDBRANCH  15  18
ENDBRANCH   1  12
TORSDOF 4
ENDMDL
