MODEL 1
REMARK VINA RESULT:      -8.7      0.000      0.000
REMARK  Name = 
REMARK                            x       y       z     vdW  Elec       q    Type
REMARK                         _______ _______ _______ _____ _____    ______ ____
ROOT
ATOM      1  C   LIG    1        4.110  18.431  28.700  0.00  0.00    +0.015 C 
ATOM      2  C   LIG    1        3.317  19.322  27.694  0.00  0.00    +0.021 C 
ATOM      3  C   LIG    1        4.327  17.108  27.904  0.00  0.00    +0.021 C 
ENDROOT
BRANCH   1   7
ATOM      4  C   LIG    1        1.769  17.634  32.316  0.00  0.00    +0.117 A 
ATOM      5  C   LIG    1        2.656  16.678  31.850  0.00  0.00    +0.046 A 
ATOM      6  C   LIG    1        3.404  16.921  30.692  0.00  0.00    +0.008 A 
ATOM      7  C   LIG    1        3.289  18.131  29.983  0.00  0.00    -0.037 A 
ATOM      8  C   LIG    1        2.374  19.079  30.489  0.00  0.00    +0.008 A 
ATOM      9  C   LIG    1        1.619  18.837  31.643  0.00  0.00    +0.046 A 
BRANCH   4  10
ATOM     10  O   LIG    1        1.055  17.353  33.442  0.00  0.00    -0.507 OA
ATOM     11  H   LIG    1        0.767  18.190  33.841  0.00  0.00    +0.292 HD
ENDBRANCH   4  10
ENDBRANCH   1   7
BRANCH   1  12
ATOM     12  C   LIG    1        5.474  19.085  29.058  0.00  0.00    -0.037 A 
ATOM     13  C   LIG    1        6.256  19.733  28.079  0.00  0.00    +0.008 A 
ATOM     14  C   LIG    1        7.487  20.325  28.388  0.00  0.00    +0.046 A 
ATOM     15  C   LIG    1        7.957  20.285  29.691  0.00  0.00    +0.117 A 
ATOM     16  C   LIG    1        7.223  19.651  30.680  0.00  0.00    +0.046 A 
ATOM     17  C   LIG    1        6.001  19.045  30.364  0.00  0.00    +0.008 A 
BRANCH  15  18
ATOM     18  O   LIG    1        9.142  20.859  30.041  0.00  0.00    -0.507 OA
ATOM     19  H   LIG    1        8.956  21.688  30.512  0.00  0.00    +0.292 HD
ENDBRANCH  15  18
ENDBRANCH   1  12
TORSDOF 4
ENDMDL
MODEL 2
REMARK VINA RESULT:      -8.7      0.104      5.592
REMARK  Name = 
REMARK                            x       y       z     vdW  Elec       q    Type
REMARK                         _______ _______ _______ _____ _____    ______ ____
ROOT
ATOM      1  C   LIG    1        4.121  18.415  28.777  0.00  0.00    +0.015 C 
ATOM      2  C   LIG    1        4.300  17.129  27.913  0.00  0.00    +0.021 C 
ATOM      3  C   LIG    1        3.315  19.362  27.837  0.00  0.00    +0.021 C 
ENDROOT
BRANCH   1   7
ATOM      4  C   LIG    1        7.967  20.291  29.714  0.00  0.00    +0.117 A 
ATOM      5  C   LIG    1        7.247  19.669  30.719  0.00  0.00    +0.046 A 
ATOM      6  C   LIG    1        6.014  19.072  30.432  0.00  0.00    +0.008 A 
ATOM      7  C   LIG    1        5.482  19.074  29.128  0.00  0.00    -0.037 A 
ATOM      8  C   LIG    1        6.247  19.718  28.132  0.00  0.00    +0.008 A 
ATOM      9  C   LIG    1        7.477  20.323  28.418  0.00  0.00    +0.046 A 
BRANCH   4  10
ATOM     10  O   LIG    1        9.159  20.866  30.040  0.00  0.00    -0.507 OA
ATOM     11  H   LIG    1        9.077  21.828  29.930  0.00  0.00    +0.292 HD
ENDBRANCH   4  10
ENDBRANCH   1   7
BRANCH   1  12
ATOM     12  C   LIG    1        3.311  18.104  30.067  0.00  0.00    -0.037 A 
ATOM     13  C   LIG    1        2.461  19.068  30.649  0.00  0.00    +0.008 A 
ATOM     14  C   LIG    1        1.726  18.803  31.811  0.00  0.00    +0.046 A 
ATOM     15  C   LIG    1        1.824  17.558  32.411  0.00  0.00    +0.117 A 
ATOM     16  C   LIG    1        2.655  16.587  31.877  0.00  0.00    +0.046 A 
ATOM     17  C   LIG    1        3.401  16.862  30.725  0.00  0.00    +0.008 A 
BRANCH  15  18
ATOM     18  O   LIG    1        1.118  17.249  33.535  0.00  0.00    -0.507 OA
ATOM     19  H   LIG    1        0.485  17.965  33.708  0.00  0.00    +0.292 HD
ENDBRANCH  15  18
ENDBRANCH   1  12
TORSDOF 4
ENDMDL
MODEL 3
REMARK VINA RESULT:      -8.6      0.060      1.649
REMARK  Name = 
REMARK                            x       y       z     vdW  Elec       q    Type
REMARK                         _______ _______ _______ _____ _____    ______ ____
ROOT
ATOM      1  C   LIG    1        4.118  18.410  28.741  0.00  0.00    +0.015 C 
ATOM      2  C   LIG    1        3.338  19.277  27.704  0.00  0.00    +0.021 C 
ATOM      3  C   LIG    1        4.345  17.069  27.980  0.00  0.00    +0.021 C 
ENDROOT
BRANCH   1   7
ATOM      4  C   LIG    1        1.779  17.599  32.355  0.00  0.00    +0.117 A 
ATOM      5  C   LIG    1        1.633  18.812  31.704  0.00  0.00    +0.046 A 
ATOM      6  C   LIG    1        2.380  19.083  30.551  0.00  0.00    +0.008 A 
ATOM      7  C   LIG    1        3.281  18.140  30.020  0.00  0.00    -0.037 A 
ATOM      8  C   LIG    1        3.401  16.917  30.713  0.00  0.00    +0.008 A 
ATOM      9  C   LIG    1        2.661  16.645  31.870  0.00  0.00    +0.046 A 
BRANCH   4  10
ATOM     10  O   LIG    1        1.039  17.380  33.478  0.00  0.00    -0.507 OA
ATOM     11  H   LIG    1        1.404  16.610  33.943  0.00  0.00    +0.292 HD
ENDBRANCH   4  10
ENDBRANCH   1   7
BRANCH   1  12
ATOM     12  C   LIG    1        5.477  19.073  29.101  0.00  0.00    -0.037 A 
ATOM     13  C   LIG    1        5.982  19.039  30.418  0.00  0.00    +0.008 A 
ATOM     14  C   LIG    1        7.204  19.633  30.757  0.00  0.00    +0.046 A 
ATOM     15  C   LIG    1        7.950  20.269  29.778  0.00  0.00    +0.117 A 
ATOM     16  C   LIG    1        7.484  20.332  28.475  0.00  0.00    +0.046 A 
ATOM     17  C   LIG    1        6.254  19.752  28.143  0.00  0.00    +0.008 A 
BRANCH  15  18
ATOM     18  O   LIG    1        9.151  20.849  30.058  0.00  0.00    -0.507 OA
ATOM     19  H   LIG    1        9.070  21.336  30.895  0.00  0.00    +0.292 HD
ENDBRANCH  15  18
ENDBRANCH   1  12
TORSDOF 4
ENDMDL
MODEL 4
REMARK VINA RESULT:      -8.6      0.060      5.641
REMARK  Name = 
REMARK                            x       y       z     vdW  Elec       q    Type
REMARK                         _______ _______ _______ _____ _____    ______ ____
ROOT
ATOM      1  C   LIG    1        4.117  18.407  28.732  0.00  0.00    +0.015 C 
ATOM      2  C   LIG    1        4.301  17.099  27.902  0.00  0.00    +0.021 C 
ATOM      3  C   LIG    1        3.318  19.331  27.763  0.00  0.00    +0.021 C 
ENDROOT
BRANCH   1   7
ATOM      4  C   LIG    1        7.946  20.274  29.752  0.00  0.00    +0.117 A 
ATOM      5  C   LIG    1        7.485  20.328  28.448  0.00  0.00    +0.046 A 
ATOM      6  C   LIG    1        6.265  19.729  28.111  0.00  0.00    +0.008 A 
ATOM      7  C   LIG    1        5.476  19.074  29.075  0.00  0.00    -0.037 A 
ATOM      8  C   LIG    1        5.981  19.041  30.392  0.00  0.00    +0.008 A 
ATOM      9  C   LIG    1        7.204  19.632  30.732  0.00  0.00    +0.046 A 
BRANCH   4  10
ATOM     10  O   LIG    1        9.143  20.862  30.035  0.00  0.00    -0.507 OA
ATOM     11  H   LIG    1        9.853  20.303  29.680  0.00  0.00    +0.292 HD
ENDBRANCH   4  10
ENDBRANCH   1   7
BRANCH   1  12
ATOM     12  C   LIG    1        3.298  18.129  30.024  0.00  0.00    -0.037 A 
ATOM     13  C   LIG    1        3.406  16.900  30.709  0.00  0.00    +0.008 A 
ATOM     14  C   LIG    1        2.673  16.635  31.873  0.00  0.00    +0.046 A 
ATOM     15  C   LIG    1        1.820  17.604  32.379  0.00  0.00    +0.117 A 
ATOM     16  C   LIG    1        1.680  18.820  31.731  0.00  0.00    +0.046 A 
ATOM     17  C   LIG    1        2.400  19.074  30.558  0.00  0.00    +0.008 A 
BRANCH  15  18
ATOM     18  O   LIG    1        1.099  17.396  33.516  0.00  0.00    -0.507 OA
ATOM     19  H   LIG    1        0.300  16.894  33.286  0.00  0.00    +0.292 HD
ENDBRANCH  15  18
ENDBRANCH   1  12
TORSDOF 4
ENDMDL
MODEL 5
REMARK VINA RESULT:      -8.1      1.716      5.897
REMARK  Name = 
REMARK                            x       y       z     vdW  Elec       q    Type
REMARK                         _______ _______ _______ _____ _____    ______ ____
ROOT
ATOM      1  C   LIG    1        3.344  17.772  30.910  0.00  0.00    +0.015 C 
ATOM      2  C   LIG    1        3.544  16.251  30.628  0.00  0.00    +0.021 C 
ATOM      3  C   LIG    1        2.365  18.214  29.781  0.00  0.00    +0.021 C 
ENDROOT
BRANCH   1   7
ATOM      4  C   LIG    1        7.063  20.054  30.515  0.00  0.00    +0.117 A 
ATOM      5  C   LIG    1        7.069  18.849  31.197  0.00  0.00    +0.046 A 
ATOM      6  C   LIG    1        5.885  18.115  31.334  0.00  0.00    +0.008 A 
ATOM      7  C   LIG    1        4.671  18.567  30.780  0.00  0.00    -0.037 A 
ATOM      8  C   LIG    1        4.708  19.799  30.093  0.00  0.00    +0.008 A 
ATOM      9  C   LIG    1        5.888  20.539  29.960  0.00  0.00    +0.046 A 
BRANCH   4  10
ATOM     10  O   LIG    1        8.236  20.740  30.413  0.00  0.00    -0.507 OA
ATOM     11  H   LIG    1        8.968  20.125  30.586  0.00  0.00    +0.292 HD
ENDBRANCH   4  10
ENDBRANCH   1   7
BRANCH   1  12
ATOM     12  C   LIG    1        2.704  17.994  32.309  0.00  0.00    -0.037 A 
ATOM     13  C   LIG    1        3.501  18.190  33.457  0.00  0.00    +0.008 A 
ATOM     14  C   LIG    1        2.938  18.390  34.723  0.00  0.00    +0.046 A 
ATOM     15  C   LIG    1        1.559  18.404  34.864  0.00  0.00    +0.117 A 
ATOM     16  C   LIG    1        0.742  18.206  33.763  0.00  0.00    +0.046 A 
ATOM     17  C   LIG    1        1.309  17.989  32.501  0.00  0.00    +0.008 A 
BRANCH  15  18
ATOM     18  O   LIG    1        0.967  18.608  36.074  0.00  0.00    -0.507 OA
ATOM     19  H   LIG    1        0.196  18.021  36.143  0.00  0.00    +0.292 HD
ENDBRANCH  15  18
ENDBRANCH   1  12
TORSDOF 4
ENDMDL
MODEL 6
REMARK VINA RESULT:      -8.0      1.638      2.412
REMARK  Name = 
REMARK                            x       y       z     vdW  Elec       q    Type
REMARK                         _______ _______ _______ _____ _____    ______ ____
ROOT
ATOM      1  C   LIG    1        3.313  17.898  30.735  0.00  0.00    +0.015 C 
ATOM      2  C   LIG    1        2.346  18.346  29.595  0.00  0.00    +0.021 C 
ATOM      3  C   LIG    1        3.531  16.383  30.439  0.00  0.00    +0.021 C 
ENDROOT
BRANCH   1   7
ATOM      4  C   LIG    1        1.451  18.358  34.673  0.00  0.00    +0.117 A 
ATOM      5  C   LIG    1        2.829  18.271  34.574  0.00  0.00    +0.046 A 
ATOM      6  C   LIG    1        3.434  18.117  33.321  0.00  0.00    +0.008 A 
ATOM      7  C   LIG    1        2.671  18.061  32.139  0.00  0.00    -0.037 A 
ATOM      8  C   LIG    1        1.270  18.154  32.283  0.00  0.00    +0.008 A 
ATOM      9  C   LIG    1        0.662  18.299  33.535  0.00  0.00    +0.046 A 
BRANCH   4  10
ATOM     10  O   LIG    1        0.905  18.498  35.914  0.00  0.00    -0.507 OA
ATOM     11  H   LIG    1        1.386  19.197  36.385  0.00  0.00    +0.292 HD
ENDBRANCH   4  10
ENDBRANCH   1   7
BRANCH   1  12
ATOM     12  C   LIG    1        4.659  18.672  30.651  0.00  0.00    -0.037 A 
ATOM     13  C   LIG    1        5.841  18.147  31.214  0.00  0.00    +0.008 A 
ATOM     14  C   LIG    1        7.060  18.834  31.147  0.00  0.00    +0.046 A 
ATOM     15  C   LIG    1        7.119  20.061  30.507  0.00  0.00    +0.117 A 
ATOM     16  C   LIG    1        5.978  20.615  29.949  0.00  0.00    +0.046 A 
ATOM     17  C   LIG    1        4.758  19.934  30.033  0.00  0.00    +0.008 A 
BRANCH  15  18
ATOM     18  O   LIG    1        8.285  20.759  30.405  0.00  0.00    -0.507 OA
ATOM     19  H   LIG    1        8.724  20.754  31.272  0.00  0.00    +0.292 HD
ENDBRANCH  15  18
ENDBRANCH   1  12
TORSDOF 4
ENDMDL
MODEL 7
REMARK VINA RESULT:      -7.9      1.129      5.708
REMARK  Name = 
REMARK                            x       y       z     vdW  Elec       q    Type
REMARK                         _______ _______ _______ _____ _____    ______ ____
ROOT
ATOM      1  C   LIG    1        4.085  18.228  27.896  0.00  0.00    +0.015 C 
ATOM      2  C   LIG    1        4.374  16.768  27.430  0.00  0.00    +0.021 C 
ATOM      3  C   LIG    1        3.059  18.740  26.840  0.00  0.00    +0.021 C 
ENDROOT
BRANCH   1   7
ATOM      4  C   LIG    1        7.671  20.738  27.709  0.00  0.00    +0.117 A 
ATOM      5  C   LIG    1        7.239  20.252  28.931  0.00  0.00    +0.046 A 
ATOM      6  C   LIG    1        6.091  19.454  29.003  0.00  0.00    +0.008 A 
ATOM      7  C   LIG    1        5.358  19.116  27.849  0.00  0.00    -0.037 A 
ATOM      8  C   LIG    1        5.830  19.631  26.623  0.00  0.00    +0.008 A 
ATOM      9  C   LIG    1        6.974  20.436  26.549  0.00  0.00    +0.046 A 
BRANCH   4  10
ATOM     10  O   LIG    1        8.788  21.518  27.687  0.00  0.00    -0.507 OA
ATOM     11  H   LIG    1        8.743  22.142  28.430  0.00  0.00    +0.292 HD
ENDBRANCH   4  10
ENDBRANCH   1   7
BRANCH   1  12
ATOM     12  C   LIG    1        3.459  18.238  29.319  0.00  0.00    -0.037 A 
ATOM     13  C   LIG    1        3.727  17.208  30.245  0.00  0.00    +0.008 A 
ATOM     14  C   LIG    1        3.169  17.204  31.529  0.00  0.00    +0.046 A 
ATOM     15  C   LIG    1        2.332  18.240  31.914  0.00  0.00    +0.117 A 
ATOM     16  C   LIG    1        2.037  19.265  31.031  0.00  0.00    +0.046 A 
ATOM     17  C   LIG    1        2.583  19.257  29.742  0.00  0.00    +0.008 A 
BRANCH  15  18
ATOM     18  O   LIG    1        1.777  18.285  33.158  0.00  0.00    -0.507 OA
ATOM     19  H   LIG    1        0.842  18.531  33.070  0.00  0.00    +0.292 HD
ENDBRANCH  15  18
ENDBRANCH   1  12
TORSDOF 4
ENDMDL
MODEL 8
REMARK VINA RESULT:      -7.8      2.369      5.833
REMARK  Name = 
REMARK                            x       y       z     vdW  Elec       q    Type
REMARK                         _______ _______ _______ _____ _____    ______ ____
ROOT
ATOM      1  C   LIG    1        4.634  17.955  30.277  0.00  0.00    +0.015 C 
ATOM      2  C   LIG    1        5.764  18.835  30.893  0.00  0.00    +0.021 C 
ATOM      3  C   LIG    1        5.195  16.508  30.421  0.00  0.00    +0.021 C 
ENDROOT
BRANCH   1   7
ATOM      4  C   LIG    1        3.976  18.793  26.027  0.00  0.00    +0.117 A 
ATOM      5  C   LIG    1        4.311  19.827  26.885  0.00  0.00    +0.046 A 
ATOM      6  C   LIG    1        4.517  19.571  28.245  0.00  0.00    +0.008 A 
ATOM      7  C   LIG    1        4.405  18.270  28.774  0.00  0.00    -0.037 A 
ATOM      8  C   LIG    1        4.062  17.245  27.868  0.00  0.00    +0.008 A 
ATOM      9  C   LIG    1        3.848  17.498  26.508  0.00  0.00    +0.046 A 
BRANCH   4  10
ATOM     10  O   LIG    1        3.777  19.088  24.712  0.00  0.00    -0.507 OA
ATOM     11  H   LIG    1        3.740  20.054  24.616  0.00  0.00    +0.292 HD
ENDBRANCH   4  10
ENDBRANCH   1   7
BRANCH   1  12
ATOM     12  C   LIG    1        3.313  18.112  31.080  0.00  0.00    -0.037 A 
ATOM     13  C   LIG    1        2.842  17.085  31.926  0.00  0.00    +0.008 A 
ATOM     14  C   LIG    1        1.653  17.213  32.654  0.00  0.00    +0.046 A 
ATOM     15  C   LIG    1        0.913  18.381  32.555  0.00  0.00    +0.117 A 
ATOM     16  C   LIG    1        1.336  19.409  31.729  0.00  0.00    +0.046 A 
ATOM     17  C   LIG    1        2.516  19.271  30.989  0.00  0.00    +0.008 A 
BRANCH  15  18
ATOM     18  O   LIG    1       -0.242  18.555  33.256  0.00  0.00    -0.507 OA
ATOM     19  H   LIG    1       -0.117  18.199  34.151  0.00  0.00    +0.292 HD
ENDBRANCH  15  18
ENDBRANCH   1  12
TORSDOF 4
ENDMDL
MODEL 9
REMARK VINA RESULT:      -7.7      2.395      3.672
REMARK  Name = 
REMARK                            x       y       z     vdW  Elec       q    Type
REMARK                         _______ _______ _______ _____ _____    ______ ____
ROOT
ATOM      1  C   LIG    1        4.624  17.949  30.236  0.00  0.00    +0.015 C 
ATOM      2  C   LIG    1        5.251  16.534  30.430  0.00  0.00    +0.021 C 
ATOM      3  C   LIG    1        5.714  18.901  30.814  0.00  0.00    +0.021 C 
ENDROOT
BRANCH   1   7
ATOM      4  C   LIG    1        0.925  18.378  32.544  0.00  0.00    +0.117 A 
ATOM      5  C   LIG    1        1.342  19.411  31.721  0.00  0.00    +0.046 A 
ATOM      6  C   LIG    1        2.526  19.286  30.984  0.00  0.00    +0.008 A 
ATOM      7  C   LIG    1        3.310  18.118  31.046  0.00  0.00    -0.037 A 
ATOM      8  C   LIG    1        2.851  17.090  31.896  0.00  0.00    +0.008 A 
ATOM      9  C   LIG    1        1.672  17.214  32.640  0.00  0.00    +0.046 A 
BRANCH   4  10
ATOM     10  O   LIG    1       -0.229  18.545  33.249  0.00  0.00    -0.507 OA
ATOM     11  H   LIG    1       -0.845  19.071  32.713  0.00  0.00    +0.292 HD
ENDBRANCH   4  10
ENDBRANCH   1   7
BRANCH   1  12
ATOM     12  C   LIG    1        4.383  18.242  28.729  0.00  0.00    -0.037 A 
ATOM     13  C   LIG    1        4.189  17.198  27.800  0.00  0.00    +0.008 A 
ATOM     14  C   LIG    1        3.973  17.447  26.440  0.00  0.00    +0.046 A 
ATOM     15  C   LIG    1        3.939  18.755  25.982  0.00  0.00    +0.117 A 
ATOM     16  C   LIG    1        4.134  19.809  26.860  0.00  0.00    +0.046 A 
ATOM     17  C   LIG    1        4.368  19.554  28.216  0.00  0.00    +0.008 A 
BRANCH  15  18
ATOM     18  O   LIG    1        3.718  19.047  24.669  0.00  0.00    -0.507 OA
ATOM     19  H   LIG    1        2.766  19.186  24.541  0.00  0.00    +0.292 HD
ENDBRANCH  15  18
ENDBRANCH   1  12
TORSDOF 4
ENDMDL
