MODEL 1
REMARK VINA RESULT:      -8.2      0.000      0.000
REMARK  Name = 
REMARK                            x       y       z     vdW  Elec       q    Type
REMARK                         _______ _______ _______ _____ _____    ______ ____
ROOT
ATOM      1  C   LIG    1       23.749 -18.052  17.486  0.00  0.00    +0.015 C 
ATOM      2  C   LIG    1       23.432 -19.360  18.273  0.00  0.00    +0.021 C 
ATOM      3  C   LIG    1       24.024 -18.567  16.041  0.00  0.00    +0.021 C 
ENDROOT
BRANCH   1   7
ATOM      4  C   LIG    1       27.310 -16.050  19.067  0.00  0.00    +0.117 A 
ATOM      5  C   LIG    1       27.164 -16.206  17.700  0.00  0.00    +0.046 A 
ATOM      6  C   LIG    1       26.033 -16.849  17.184  0.00  0.00    +0.008 A 
ATOM      7  C   LIG    1       25.017 -17.340  18.028  0.00  0.00    -0.037 A 
ATOM      8  C   LIG    1       25.205 -17.161  19.416  0.00  0.00    +0.008 A 
ATOM      9  C   LIG    1       26.338 -16.524  19.935  0.00  0.00    +0.046 A 
BRANCH   4  10
ATOM     10  O   LIG    1       28.431 -15.425  19.526  0.00  0.00    -0.507 OA
ATOM     11  H   LIG    1       29.105 -15.449  18.827  0.00  0.00    +0.292 HD
ENDBRANCH   4  10
ENDBRANCH   1   7
BRANCH   1  12
ATOM     12  C   LIG    1       22.528 -17.090  17.502  0.00  0.00    -0.037 A 
ATOM     13  C   LIG    1       22.539 -15.879  16.777  0.00  0.00    +0.008 A 
ATOM     14  C   LIG    1       21.447 -15.003  16.783  0.00  0.00    +0.046 A 
ATOM     15  C   LIG    1       20.315 -15.327  17.514  0.00  0.00    +0.117 A 
ATOM     16  C   LIG    1       20.268 -16.502  18.246  0.00  0.00    +0.046 A 
ATOM     17  C   LIG    1       21.368 -17.367  18.252  0.00  0.00    +0.008 A 
BRANCH  15  18
ATOM     18  O   LIG    1       19.223 -14.512  17.539  0.00  0.00    -0.507 OA
ATOM     19  H   LIG    1       19.527 -13.589  17.517  0.00  0.00    +0.292 HD
ENDBRANCH  15  18
ENDBRANCH   1  12
TORSDOF 4
ENDMDL
MODEL 2
REMARK VINA RESULT:      -8.2      0.063      1.166
REMARK  Name = 
REMARK                            x       y       z     vdW  Elec       q    Type
REMARK                         _______ _______ _______ _____ _____    ______ ____
ROOT
ATOM      1  C   LIG    1       23.745 -18.039  17.513  0.00  0.00    +0.015 C 
ATOM      2  C   LIG    1       23.416 -19.365  18.266  0.00  0.00    +0.021 C 
ATOM      3  C   LIG    1       24.057 -18.523  16.065  0.00  0.00    +0.021 C 
ENDROOT
BRANCH   1   7
ATOM      4  C   LIG    1       27.294 -16.036  19.119  0.00  0.00    +0.117 A 
ATOM      5  C   LIG    1       26.298 -16.458  19.982  0.00  0.00    +0.046 A 
ATOM      6  C   LIG    1       25.156 -17.093  19.479  0.00  0.00    +0.008 A 
ATOM      7  C   LIG    1       24.995 -17.331  18.100  0.00  0.00    -0.037 A 
ATOM      8  C   LIG    1       26.033 -16.885  17.254  0.00  0.00    +0.008 A 
ATOM      9  C   LIG    1       27.172 -16.243  17.753  0.00  0.00    +0.046 A 
BRANCH   4  10
ATOM     10  O   LIG    1       28.384 -15.414  19.651  0.00  0.00    -0.507 OA
ATOM     11  H   LIG    1       28.771 -14.836  18.973  0.00  0.00    +0.292 HD
ENDBRANCH   4  10
ENDBRANCH   1   7
BRANCH   1  12
ATOM     12  C   LIG    1       22.518 -17.084  17.518  0.00  0.00    -0.037 A 
ATOM     13  C   LIG    1       22.535 -15.864  16.809  0.00  0.00    +0.008 A 
ATOM     14  C   LIG    1       21.439 -14.994  16.806  0.00  0.00    +0.046 A 
ATOM     15  C   LIG    1       20.295 -15.334  17.511  0.00  0.00    +0.117 A 
ATOM     16  C   LIG    1       20.241 -16.518  18.228  0.00  0.00    +0.046 A 
ATOM     17  C   LIG    1       21.346 -17.377  18.243  0.00  0.00    +0.008 A 
BRANCH  15  18
ATOM     18  O   LIG    1       19.198 -14.525  17.526  0.00  0.00    -0.507 OA
ATOM     19  H   LIG    1       18.567 -14.873  18.177  0.00  0.00    +0.292 HD
ENDBRANCH  15  18
ENDBRANCH   1  12
TORSDOF 4
ENDMDL
MODEL 3
REMARK VINA RESULT:      -8.2      0.020      5.706
REMARK  Name = 
REMARK                            x       y       z     vdW  Elec       q    Type
REMARK                         _______ _______ _______ _____ _____    ______ ____
ROOT
ATOM      1  C   LIG    1       23.748 -18.045  17.466  0.00  0.00    +0.015 C 
ATOM      2  C   LIG    1       24.020 -18.602  16.035  0.00  0.00    +0.021 C 
ATOM      3  C   LIG    1       23.424 -19.329  18.289  0.00  0.00    +0.021 C 
ENDROOT
BRANCH   1   7
ATOM      4  C   LIG    1       20.316 -15.322  17.517  0.00  0.00    +0.117 A 
ATOM      5  C   LIG    1       20.265 -16.500  18.242  0.00  0.00    +0.046 A 
ATOM      6  C   LIG    1       21.354 -17.380  18.227  0.00  0.00    +0.008 A 
ATOM      7  C   LIG    1       22.523 -17.092  17.496  0.00  0.00    -0.037 A 
ATOM      8  C   LIG    1       22.535 -15.882  16.771  0.00  0.00    +0.008 A 
ATOM      9  C   LIG    1       21.445 -15.003  16.777  0.00  0.00    +0.046 A 
BRANCH   4  10
ATOM     10  O   LIG    1       19.231 -14.499  17.553  0.00  0.00    -0.507 OA
ATOM     11  H   LIG    1       19.542 -13.581  17.609  0.00  0.00    +0.292 HD
ENDBRANCH   4  10
ENDBRANCH   1   7
BRANCH   1  12
ATOM     12  C   LIG    1       25.011 -17.336  18.031  0.00  0.00    -0.037 A 
ATOM     13  C   LIG    1       25.189 -17.153  19.419  0.00  0.00    +0.008 A 
ATOM     14  C   LIG    1       26.321 -16.515  19.942  0.00  0.00    +0.046 A 
ATOM     15  C   LIG    1       27.304 -16.053  19.081  0.00  0.00    +0.117 A 
ATOM     16  C   LIG    1       27.162 -16.206  17.711  0.00  0.00    +0.046 A 
ATOM     17  C   LIG    1       26.021 -16.828  17.191  0.00  0.00    +0.008 A 
BRANCH  15  18
ATOM     18  O   LIG    1       28.428 -15.439  19.545  0.00  0.00    -0.507 OA
ATOM     19  H   LIG    1       28.775 -15.954  20.291  0.00  0.00    +0.292 HD
ENDBRANCH  15  18
ENDBRANCH   1  12
TORSDOF 4
ENDMDL
MODEL 4
REMARK VINA RESULT:      -8.0      2.576      3.962
REMARK  Name = 
REMARK                            x       y       z     vdW  Elec       q    Type
REMARK                         _______ _______ _______ _____ _____    ______ ____
ROOT
ATOM      1  C   LIG    1       21.575 -15.281  17.524  0.00  0.00    +0.015 C 
ATOM      2  C   LIG    1       21.525 -14.417  16.226  0.00  0.00    +0.021 C 
ATOM      3  C   LIG    1       22.166 -14.298  18.580  0.00  0.00    +0.021 C 
ENDROOT
BRANCH   1   7
ATOM      4  C   LIG    1       24.256 -18.725  17.150  0.00  0.00    +0.117 A 
ATOM      5  C   LIG    1       23.618 -18.231  16.026  0.00  0.00    +0.046 A 
ATOM      6  C   LIG    1       22.754 -17.134  16.136  0.00  0.00    +0.008 A 
ATOM      7  C   LIG    1       22.522 -16.502  17.372  0.00  0.00    -0.037 A 
ATOM      8  C   LIG    1       23.192 -17.037  18.494  0.00  0.00    +0.008 A 
ATOM      9  C   LIG    1       24.050 -18.138  18.389  0.00  0.00    +0.046 A 
BRANCH   4  10
ATOM     10  O   LIG    1       25.082 -19.800  16.999  0.00  0.00    -0.507 OA
ATOM     11  H   LIG    1       25.851 -19.681  17.580  0.00  0.00    +0.292 HD
ENDBRANCH   4  10
ENDBRANCH   1   7
BRANCH   1  12
ATOM     12  C   LIG    1       20.148 -15.738  17.937  0.00  0.00    -0.037 A 
ATOM     13  C   LIG    1       19.880 -17.080  18.281  0.00  0.00    +0.008 A 
ATOM     14  C   LIG    1       18.599 -17.506  18.654  0.00  0.00    +0.046 A 
ATOM     15  C   LIG    1       17.560 -16.590  18.698  0.00  0.00    +0.117 A 
ATOM     16  C   LIG    1       17.781 -15.265  18.359  0.00  0.00    +0.046 A 
ATOM     17  C   LIG    1       19.058 -14.846  17.970  0.00  0.00    +0.008 A 
BRANCH  15  18
ATOM     18  O   LIG    1       16.301 -16.956  19.068  0.00  0.00    -0.507 OA
ATOM     19  H   LIG    1       15.670 -16.327  18.680  0.00  0.00    +0.292 HD
ENDBRANCH  15  18
ENDBRANCH   1  12
TORSDOF 4
ENDMDL
MODEL 5
REMARK VINA RESULT:      -8.0      2.543      6.480
REMARK  Name = 
REMARK                            x       y       z     vdW  Elec       q    Type
REMARK                         _______ _______ _______ _____ _____    ______ ____
ROOT
ATOM      1  C   LIG    1       21.591 -15.285  17.566  0.00  0.00    +0.015 C 
ATOM      2  C   LIG    1       22.158 -14.253  18.589  0.00  0.00    +0.021 C 
ATOM      3  C   LIG    1       21.533 -14.471  16.238  0.00  0.00    +0.021 C 
ENDROOT
BRANCH   1   7
ATOM      4  C   LIG    1       17.536 -16.555  18.630  0.00  0.00    +0.117 A 
ATOM      5  C   LIG    1       18.563 -17.483  18.622  0.00  0.00    +0.046 A 
ATOM      6  C   LIG    1       19.861 -17.089  18.277  0.00  0.00    +0.008 A 
ATOM      7  C   LIG    1       20.160 -15.753  17.946  0.00  0.00    -0.037 A 
ATOM      8  C   LIG    1       19.086 -14.839  17.966  0.00  0.00    +0.008 A 
ATOM      9  C   LIG    1       17.785 -15.231  18.303  0.00  0.00    +0.046 A 
BRANCH   4  10
ATOM     10  O   LIG    1       16.286 -16.984  18.964  0.00  0.00    -0.507 OA
ATOM     11  H   LIG    1       15.856 -16.296  19.497  0.00  0.00    +0.292 HD
ENDBRANCH   4  10
ENDBRANCH   1   7
BRANCH   1  12
ATOM     12  C   LIG    1       22.549 -16.501  17.422  0.00  0.00    -0.037 A 
ATOM     13  C   LIG    1       23.268 -17.002  18.528  0.00  0.00    +0.008 A 
ATOM     14  C   LIG    1       24.135 -18.096  18.413  0.00  0.00    +0.046 A 
ATOM     15  C   LIG    1       24.293 -18.716  17.183  0.00  0.00    +0.117 A 
ATOM     16  C   LIG    1       23.611 -18.249  16.071  0.00  0.00    +0.046 A 
ATOM     17  C   LIG    1       22.759 -17.144  16.187  0.00  0.00    +0.008 A 
BRANCH  15  18
ATOM     18  O   LIG    1       25.115 -19.791  17.026  0.00  0.00    -0.507 OA
ATOM     19  H   LIG    1       24.632 -20.590  17.294  0.00  0.00    +0.292 HD
ENDBRANCH  15  18
ENDBRANCH   1  12
TORSDOF 4
ENDMDL
MODEL 6
REMARK VINA RESULT:      -8.0      1.813      2.317
REMARK  Name = 
REMARK                            x       y       z     vdW  Elec       q    Type
REMARK                         _______ _______ _______ _____ _____    ______ ____
ROOT
ATOM      1  C   LIG    1       23.056 -16.564  17.203  0.00  0.00    +0.015 C 
ATOM      2  C   LIG    1       23.344 -18.046  17.598  0.00  0.00    +0.021 C 
ATOM      3  C   LIG    1       23.023 -16.615  15.645  0.00  0.00    +0.021 C 
ENDROOT
BRANCH   1   7
ATOM      4  C   LIG    1       26.216 -13.835  18.525  0.00  0.00    +0.117 A 
ATOM      5  C   LIG    1       26.550 -14.975  17.815  0.00  0.00    +0.046 A 
ATOM      6  C   LIG    1       25.549 -15.857  17.393  0.00  0.00    +0.008 A 
ATOM      7  C   LIG    1       24.189 -15.609  17.663  0.00  0.00    -0.037 A 
ATOM      8  C   LIG    1       23.890 -14.436  18.390  0.00  0.00    +0.008 A 
ATOM      9  C   LIG    1       24.890 -13.556  18.819  0.00  0.00    +0.046 A 
BRANCH   4  10
ATOM     10  O   LIG    1       27.224 -13.008  18.924  0.00  0.00    -0.507 OA
ATOM     11  H   LIG    1       27.277 -12.265  18.301  0.00  0.00    +0.292 HD
ENDBRANCH   4  10
ENDBRANCH   1   7
BRANCH   1  12
ATOM     12  C   LIG    1       21.682 -16.102  17.765  0.00  0.00    -0.037 A 
ATOM     13  C   LIG    1       21.183 -16.605  18.985  0.00  0.00    +0.008 A 
ATOM     14  C   LIG    1       19.947 -16.198  19.503  0.00  0.00    +0.046 A 
ATOM     15  C   LIG    1       19.188 -15.270  18.809  0.00  0.00    +0.117 A 
ATOM     16  C   LIG    1       19.639 -14.759  17.603  0.00  0.00    +0.046 A 
ATOM     17  C   LIG    1       20.866 -15.181  17.080  0.00  0.00    +0.008 A 
BRANCH  15  18
ATOM     18  O   LIG    1       17.986 -14.835  19.281  0.00  0.00    -0.507 OA
ATOM     19  H   LIG    1       18.012 -14.850  20.252  0.00  0.00    +0.292 HD
ENDBRANCH  15  18
ENDBRANCH   1  12
TORSDOF 4
ENDMDL
MODEL 7
REMARK VINA RESULT:      -8.0      1.759      2.915
REMARK  Name = 
REMARK                            x       y       z     vdW  Elec       q    Type
REMARK                         _______ _______ _______ _____ _____    ______ ____
ROOT
ATOM      1  C   LIG    1       22.287 -15.534  17.169  0.00  0.00    +0.015 C 
ATOM      2  C   LIG    1       22.444 -16.093  15.721  0.00  0.00    +0.021 C 
ATOM      3  C   LIG    1       22.193 -13.994  16.944  0.00  0.00    +0.021 C 
ENDROOT
BRANCH   1   7
ATOM      4  C   LIG    1       25.792 -16.468  19.625  0.00  0.00    +0.117 A 
ATOM      5  C   LIG    1       24.979 -15.402  19.971  0.00  0.00    +0.046 A 
ATOM      6  C   LIG    1       23.860 -15.092  19.189  0.00  0.00    +0.008 A 
ATOM      7  C   LIG    1       23.525 -15.850  18.051  0.00  0.00    -0.037 A 
ATOM      8  C   LIG    1       24.379 -16.928  17.733  0.00  0.00    +0.008 A 
ATOM      9  C   LIG    1       25.503 -17.237  18.508  0.00  0.00    +0.046 A 
BRANCH   4  10
ATOM     10  O   LIG    1       26.876 -16.729  20.410  0.00  0.00    -0.507 OA
ATOM     11  H   LIG    1       27.080 -17.677  20.346  0.00  0.00    +0.292 HD
ENDBRANCH   4  10
ENDBRANCH   1   7
BRANCH   1  12
ATOM     12  C   LIG    1       20.987 -16.073  17.830  0.00  0.00    -0.037 A 
ATOM     13  C   LIG    1       19.814 -15.291  17.881  0.00  0.00    +0.008 A 
ATOM     14  C   LIG    1       18.636 -15.763  18.475  0.00  0.00    +0.046 A 
ATOM     15  C   LIG    1       18.610 -17.035  19.024  0.00  0.00    +0.117 A 
ATOM     16  C   LIG    1       19.744 -17.830  19.002  0.00  0.00    +0.046 A 
ATOM     17  C   LIG    1       20.924 -17.349  18.423  0.00  0.00    +0.008 A 
BRANCH  15  18
ATOM     18  O   LIG    1       17.483 -17.541  19.599  0.00  0.00    -0.507 OA
ATOM     19  H   LIG    1       17.426 -17.208  20.510  0.00  0.00    +0.292 HD
ENDBRANCH  15  18
ENDBRANCH   1  12
TORSDOF 4
ENDMDL
MODEL 8
REMARK VINA RESULT:      -7.9      1.526      2.224
REMARK  Name = 
REMARK                            x       y       z     vdW  Elec       q    Type
REMARK                         _______ _______ _______ _____ _____    ______ ____
ROOT
ATOM      1  C   LIG    1       25.356 -16.865  17.790  0.00  0.00    +0.015 C 
ATOM      2  C   LIG    1       25.378 -18.246  18.514  0.00  0.00    +0.021 C 
ATOM      3  C   LIG    1       25.921 -17.200  16.376  0.00  0.00    +0.021 C 
ENDROOT
BRANCH   1   7
ATOM      4  C   LIG    1       27.994 -13.985  19.775  0.00  0.00    +0.117 A 
ATOM      5  C   LIG    1       27.144 -13.555  18.770  0.00  0.00    +0.046 A 
ATOM      6  C   LIG    1       26.301 -14.468  18.125  0.00  0.00    +0.008 A 
ATOM      7  C   LIG    1       26.284 -15.830  18.482  0.00  0.00    -0.037 A 
ATOM      8  C   LIG    1       27.165 -16.228  19.510  0.00  0.00    +0.008 A 
ATOM      9  C   LIG    1       28.013 -15.319  20.152  0.00  0.00    +0.046 A 
BRANCH   4  10
ATOM     10  O   LIG    1       28.802 -13.063  20.370  0.00  0.00    -0.507 OA
ATOM     11  H   LIG    1       29.703 -13.425  20.411  0.00  0.00    +0.292 HD
ENDBRANCH   4  10
ENDBRANCH   1   7
BRANCH   1  12
ATOM     12  C   LIG    1       23.904 -16.321  17.686  0.00  0.00    -0.037 A 
ATOM     13  C   LIG    1       23.099 -16.156  18.833  0.00  0.00    +0.008 A 
ATOM     14  C   LIG    1       21.789 -15.668  18.754  0.00  0.00    +0.046 A 
ATOM     15  C   LIG    1       21.260 -15.327  17.519  0.00  0.00    +0.117 A 
ATOM     16  C   LIG    1       22.015 -15.482  16.368  0.00  0.00    +0.046 A 
ATOM     17  C   LIG    1       23.318 -15.987  16.449  0.00  0.00    +0.008 A 
BRANCH  15  18
ATOM     18  O   LIG    1       19.995 -14.836  17.395  0.00  0.00    -0.507 OA
ATOM     19  H   LIG    1       19.609 -15.182  16.574  0.00  0.00    +0.292 HD
ENDBRANCH  15  18
ENDBRANCH   1  12
TORSDOF 4
ENDMDL
MODEL 9
REMARK VINA RESULT:      -7.9      1.805      2.012
REMARK  Name = 
REMARK                            x       y       z     vdW  Elec       q    Type
REMARK                         _______ _______ _______ _____ _____    ______ ____
ROOT
ATOM      1  C   LIG    1       24.152 -16.391  17.842  0.00  0.00    +0.015 C 
ATOM      2  C   LIG    1       24.252 -17.852  18.379  0.00  0.00    +0.021 C 
ATOM      3  C   LIG    1       24.693 -16.513  16.385  0.00  0.00    +0.021 C 
ENDROOT
BRANCH   1   7
ATOM      4  C   LIG    1       26.722 -13.674  20.122  0.00  0.00    +0.117 A 
ATOM      5  C   LIG    1       25.661 -13.162  19.395  0.00  0.00    +0.046 A 
ATOM      6  C   LIG    1       24.837 -14.021  18.658  0.00  0.00    +0.008 A 
ATOM      7  C   LIG    1       25.052 -15.413  18.644  0.00  0.00    -0.037 A 
ATOM      8  C   LIG    1       26.144 -15.894  19.397  0.00  0.00    +0.008 A 
ATOM      9  C   LIG    1       26.974 -15.037  20.130  0.00  0.00    +0.046 A 
BRANCH   4  10
ATOM     10  O   LIG    1       27.503 -12.800  20.819  0.00  0.00    -0.507 OA
ATOM     11  H   LIG    1       28.416 -13.133  20.815  0.00  0.00    +0.292 HD
ENDBRANCH   4  10
ENDBRANCH   1   7
BRANCH   1  12
ATOM     12  C   LIG    1       22.676 -15.905  17.839  0.00  0.00    -0.037 A 
ATOM     13  C   LIG    1       22.170 -15.104  16.793  0.00  0.00    +0.008 A 
ATOM     14  C   LIG    1       20.842 -14.658  16.778  0.00  0.00    +0.046 A 
ATOM     15  C   LIG    1       19.991 -15.013  17.813  0.00  0.00    +0.117 A 
ATOM     16  C   LIG    1       20.451 -15.790  18.862  0.00  0.00    +0.046 A 
ATOM     17  C   LIG    1       21.784 -16.220  18.883  0.00  0.00    +0.008 A 
BRANCH  15  18
ATOM     18  O   LIG    1       18.688 -14.614  17.834  0.00  0.00    -0.507 OA
ATOM     19  H   LIG    1       18.375 -14.536  16.918  0.00  0.00    +0.292 HD
ENDBRANCH  15  18
ENDBRANCH   1  12
TORSDOF 4
ENDMDL
