MODEL 1
REMARK VINA RESULT:      -7.7      0.000      0.000
REMARK  Name = 
REMARK                            x       y       z     vdW  Elec       q    Type
REMARK                         _______ _______ _______ _____ _____    ______ ____
ROOT
ATOM      1  C   LIG    1        4.019   7.382  -2.383  0.00  0.00    +0.015 C 
ATOM      2  C   LIG    1        5.145   6.302  -2.370  0.00  0.00    +0.021 C 
ATOM      3  C   LIG    1        4.682   8.590  -1.654  0.00  0.00    +0.021 C 
ENDROOT
BRANCH   1   7
ATOM      4  C   LIG    1        0.504   6.118  -0.094  0.00  0.00    +0.117 A 
ATOM      5  C   LIG    1        0.590   5.810  -1.441  0.00  0.00    +0.046 A 
ATOM      6  C   LIG    1        1.706   6.215  -2.183  0.00  0.00    +0.008 A 
ATOM      7  C   LIG    1        2.766   6.925  -1.588  0.00  0.00    -0.037 A 
ATOM      8  C   LIG    1        2.640   7.219  -0.213  0.00  0.00    +0.008 A 
ATOM      9  C   LIG    1        1.522   6.822   0.530  0.00  0.00    +0.046 A 
BRANCH   4  10
ATOM     10  O   LIG    1       -0.604   5.711   0.587  0.00  0.00    -0.507 OA
ATOM     11  H   LIG    1       -1.387   6.084   0.151  0.00  0.00    +0.292 HD
ENDBRANCH   4  10
ENDBRANCH   1   7
BRANCH   1  12
ATOM     12  C   LIG    1        3.638   7.763  -3.841  0.00  0.00    -0.037 A 
ATOM     13  C   LIG    1        3.305   9.090  -4.188  0.00  0.00    +0.008 A 
ATOM     14  C   LIG    1        2.958   9.448  -5.497  0.00  0.00    +0.046 A 
ATOM     15  C   LIG    1        2.945   8.480  -6.489  0.00  0.00    +0.117 A 
ATOM     16  C   LIG    1        3.257   7.165  -6.187  0.00  0.00    +0.046 A 
ATOM     17  C   LIG    1        3.586   6.807  -4.874  0.00  0.00    +0.008 A 
BRANCH  15  18
ATOM     18  O   LIG    1        2.628   8.784  -7.778  0.00  0.00    -0.507 OA
ATOM     19  H   LIG    1        2.657   9.749  -7.884  0.00  0.00    +0.292 HD
ENDBRANCH  15  18
ENDBRANCH   1  12
TORSDOF 4
ENDMDL
MODEL 2
REMARK VINA RESULT:      -7.6      0.044      5.552
REMARK  Name = 
REMARK                            x       y       z     vdW  Elec       q    Type
REMARK                         _______ _______ _______ _____ _____    ______ ____
ROOT
ATOM      1  C   LIG    1        4.028   7.436  -2.401  0.00  0.00    +0.015 C 
ATOM      2  C   LIG    1        4.726   8.627  -1.674  0.00  0.00    +0.021 C 
ATOM      3  C   LIG    1        5.129   6.333  -2.409  0.00  0.00    +0.021 C 
ENDROOT
BRANCH   1   7
ATOM      4  C   LIG    1        2.938   8.490  -6.511  0.00  0.00    +0.117 A 
ATOM      5  C   LIG    1        3.273   7.182  -6.206  0.00  0.00    +0.046 A 
ATOM      6  C   LIG    1        3.629   6.836  -4.897  0.00  0.00    +0.008 A 
ATOM      7  C   LIG    1        3.644   7.791  -3.862  0.00  0.00    -0.037 A 
ATOM      8  C   LIG    1        3.297   9.113  -4.215  0.00  0.00    +0.008 A 
ATOM      9  C   LIG    1        2.948   9.464  -5.524  0.00  0.00    +0.046 A 
BRANCH   4  10
ATOM     10  O   LIG    1        2.607   8.784  -7.800  0.00  0.00    -0.507 OA
ATOM     11  H   LIG    1        3.422   8.980  -8.290  0.00  0.00    +0.292 HD
ENDBRANCH   4  10
ENDBRANCH   1   7
BRANCH   1  12
ATOM     12  C   LIG    1        2.781   6.960  -1.604  0.00  0.00    -0.037 A 
ATOM     13  C   LIG    1        2.643   7.233  -0.227  0.00  0.00    +0.008 A 
ATOM     14  C   LIG    1        1.526   6.809   0.504  0.00  0.00    +0.046 A 
ATOM     15  C   LIG    1        0.518   6.105  -0.137  0.00  0.00    +0.117 A 
ATOM     16  C   LIG    1        0.620   5.809  -1.486  0.00  0.00    +0.046 A 
ATOM     17  C   LIG    1        1.746   6.219  -2.209  0.00  0.00    +0.008 A 
BRANCH  15  18
ATOM     18  O   LIG    1       -0.594   5.684   0.530  0.00  0.00    -0.507 OA
ATOM     19  H   LIG    1       -0.780   6.313   1.246  0.00  0.00    +0.292 HD
ENDBRANCH  15  18
ENDBRANCH   1  12
TORSDOF 4
ENDMDL
MODEL 3
REMARK VINA RESULT:      -7.2      2.707      3.930
REMARK  Name = 
REMARK                            x       y       z     vdW  Elec       q    Type
REMARK                         _______ _______ _______ _____ _____    ______ ____
ROOT
ATOM      1  C   LIG    1        3.906   7.703  -4.418  0.00  0.00    +0.015 C 
ATOM      2  C   LIG    1        2.651   7.479  -5.317  0.00  0.00    +0.021 C 
ATOM      3  C   LIG    1        5.092   7.436  -5.395  0.00  0.00    +0.021 C 
ENDROOT
BRANCH   1   7
ATOM      4  C   LIG    1        4.029   4.834  -1.110  0.00  0.00    +0.117 A 
ATOM      5  C   LIG    1        5.192   5.473  -1.505  0.00  0.00    +0.046 A 
ATOM      6  C   LIG    1        5.165   6.386  -2.566  0.00  0.00    +0.008 A 
ATOM      7  C   LIG    1        3.969   6.690  -3.244  0.00  0.00    -0.037 A 
ATOM      8  C   LIG    1        2.806   6.018  -2.810  0.00  0.00    +0.008 A 
ATOM      9  C   LIG    1        2.831   5.098  -1.756  0.00  0.00    +0.046 A 
BRANCH   4  10
ATOM     10  O   LIG    1        4.103   3.946  -0.079  0.00  0.00    -0.507 OA
ATOM     11  H   LIG    1        4.591   4.361   0.651  0.00  0.00    +0.292 HD
ENDBRANCH   4  10
ENDBRANCH   1   7
BRANCH   1  12
ATOM     12  C   LIG    1        3.951   9.164  -3.888  0.00  0.00    -0.037 A 
ATOM     13  C   LIG    1        4.609  10.184  -4.607  0.00  0.00    +0.008 A 
ATOM     14  C   LIG    1        4.658  11.504  -4.142  0.00  0.00    +0.046 A 
ATOM     15  C   LIG    1        4.040  11.830  -2.944  0.00  0.00    +0.117 A 
ATOM     16  C   LIG    1        3.391  10.855  -2.204  0.00  0.00    +0.046 A 
ATOM     17  C   LIG    1        3.359   9.533  -2.664  0.00  0.00    +0.008 A 
BRANCH  15  18
ATOM     18  O   LIG    1        4.050  13.103  -2.459  0.00  0.00    -0.507 OA
ATOM     19  H   LIG    1        3.656  13.690  -3.125  0.00  0.00    +0.292 HD
ENDBRANCH  15  18
ENDBRANCH   1  12
TORSDOF 4
ENDMDL
MODEL 4
REMARK VINA RESULT:      -7.2      2.039      3.193
REMARK  Name = 
REMARK                            x       y       z     vdW  Elec       q    Type
REMARK                         _______ _______ _______ _____ _____    ______ ____
ROOT
ATOM      1  C   LIG    1        3.861   7.046  -2.733  0.00  0.00    +0.015 C 
ATOM      2  C   LIG    1        3.634   6.588  -4.207  0.00  0.00    +0.021 C 
ATOM      3  C   LIG    1        5.104   6.214  -2.292  0.00  0.00    +0.021 C 
ENDROOT
BRANCH   1   7
ATOM      4  C   LIG    1        0.433   6.024  -0.204  0.00  0.00    +0.117 A 
ATOM      5  C   LIG    1        1.523   6.672   0.351  0.00  0.00    +0.046 A 
ATOM      6  C   LIG    1        2.626   6.998  -0.447  0.00  0.00    +0.008 A 
ATOM      7  C   LIG    1        2.655   6.692  -1.821  0.00  0.00    -0.037 A 
ATOM      8  C   LIG    1        1.525   6.031  -2.348  0.00  0.00    +0.008 A 
ATOM      9  C   LIG    1        0.424   5.697  -1.552  0.00  0.00    +0.046 A 
BRANCH   4  10
ATOM     10  O   LIG    1       -0.615   5.718   0.611  0.00  0.00    -0.507 OA
ATOM     11  H   LIG    1       -1.232   5.150   0.120  0.00  0.00    +0.292 HD
ENDBRANCH   4  10
ENDBRANCH   1   7
BRANCH   1  12
ATOM     12  C   LIG    1        4.171   8.568  -2.670  0.00  0.00    -0.037 A 
ATOM     13  C   LIG    1        3.489   9.489  -3.493  0.00  0.00    +0.008 A 
ATOM     14  C   LIG    1        3.758  10.863  -3.448  0.00  0.00    +0.046 A 
ATOM     15  C   LIG    1        4.716  11.343  -2.569  0.00  0.00    +0.117 A 
ATOM     16  C   LIG    1        5.414  10.470  -1.750  0.00  0.00    +0.046 A 
ATOM     17  C   LIG    1        5.154   9.096  -1.811  0.00  0.00    +0.008 A 
BRANCH  15  18
ATOM     18  O   LIG    1        5.002  12.672  -2.480  0.00  0.00    -0.507 OA
ATOM     19  H   LIG    1        4.283  13.110  -1.997  0.00  0.00    +0.292 HD
ENDBRANCH  15  18
ENDBRANCH   1  12
TORSDOF 4
ENDMDL
MODEL 5
REMARK VINA RESULT:      -7.2      2.036      5.503
REMARK  Name = 
REMARK                            x       y       z     vdW  Elec       q    Type
REMARK                         _______ _______ _______ _____ _____    ______ ____
ROOT
ATOM      1  C   LIG    1        3.868   7.068  -2.723  0.00  0.00    +0.015 C 
ATOM      2  C   LIG    1        5.119   6.217  -2.344  0.00  0.00    +0.021 C 
ATOM      3  C   LIG    1        3.593   6.653  -4.200  0.00  0.00    +0.021 C 
ENDROOT
BRANCH   1   7
ATOM      4  C   LIG    1        4.735  11.358  -2.516  0.00  0.00    +0.117 A 
ATOM      5  C   LIG    1        3.755  10.899  -3.378  0.00  0.00    +0.046 A 
ATOM      6  C   LIG    1        3.474   9.529  -3.457  0.00  0.00    +0.008 A 
ATOM      7  C   LIG    1        4.162   8.592  -2.663  0.00  0.00    -0.037 A 
ATOM      8  C   LIG    1        5.154   9.100  -1.797  0.00  0.00    +0.008 A 
ATOM      9  C   LIG    1        5.442  10.467  -1.721  0.00  0.00    +0.046 A 
BRANCH   4  10
ATOM     10  O   LIG    1        4.981  12.698  -2.478  0.00  0.00    -0.507 OA
ATOM     11  H   LIG    1        5.913  12.833  -2.241  0.00  0.00    +0.292 HD
ENDBRANCH   4  10
ENDBRANCH   1   7
BRANCH   1  12
ATOM     12  C   LIG    1        2.659   6.704  -1.816  0.00  0.00    -0.037 A 
ATOM     13  C   LIG    1        2.664   6.996  -0.436  0.00  0.00    +0.008 A 
ATOM     14  C   LIG    1        1.582   6.672   0.393  0.00  0.00    +0.046 A 
ATOM     15  C   LIG    1        0.467   6.054  -0.150  0.00  0.00    +0.117 A 
ATOM     16  C   LIG    1        0.427   5.743  -1.499  0.00  0.00    +0.046 A 
ATOM     17  C   LIG    1        1.517   6.052  -2.321  0.00  0.00    +0.008 A 
BRANCH  15  18
ATOM     18  O   LIG    1       -0.614   5.733   0.614  0.00  0.00    -0.507 OA
ATOM     19  H   LIG    1       -0.309   5.549   1.518  0.00  0.00    +0.292 HD
ENDBRANCH  15  18
ENDBRANCH   1  12
TORSDOF 4
ENDMDL
MODEL 6
REMARK VINA RESULT:      -7.2      1.900      2.654
REMARK  Name = 
REMARK                            x       y       z     vdW  Elec       q    Type
REMARK                         _______ _______ _______ _____ _____    ______ ____
ROOT
ATOM      1  C   LIG    1        4.211   9.113  -2.374  0.00  0.00    +0.015 C 
ATOM      2  C   LIG    1        5.587   9.822  -2.187  0.00  0.00    +0.021 C 
ATOM      3  C   LIG    1        3.220  10.068  -1.641  0.00  0.00    +0.021 C 
ENDROOT
BRANCH   1   7
ATOM      4  C   LIG    1        4.079   5.193  -0.422  0.00  0.00    +0.117 A 
ATOM      5  C   LIG    1        4.986   5.418  -1.444  0.00  0.00    +0.046 A 
ATOM      6  C   LIG    1        5.032   6.666  -2.078  0.00  0.00    +0.008 A 
ATOM      7  C   LIG    1        4.178   7.718  -1.694  0.00  0.00    -0.037 A 
ATOM      8  C   LIG    1        3.269   7.447  -0.649  0.00  0.00    +0.008 A 
ATOM      9  C   LIG    1        3.215   6.199  -0.018  0.00  0.00    +0.046 A 
BRANCH   4  10
ATOM     10  O   LIG    1        4.062   3.961   0.161  0.00  0.00    -0.507 OA
ATOM     11  H   LIG    1        4.825   3.893   0.758  0.00  0.00    +0.292 HD
ENDBRANCH   4  10
ENDBRANCH   1   7
BRANCH   1  12
ATOM     12  C   LIG    1        3.849   9.000  -3.881  0.00  0.00    -0.037 A 
ATOM     13  C   LIG    1        3.000   7.978  -4.356  0.00  0.00    +0.008 A 
ATOM     14  C   LIG    1        2.667   7.863  -5.712  0.00  0.00    +0.046 A 
ATOM     15  C   LIG    1        3.175   8.778  -6.620  0.00  0.00    +0.117 A 
ATOM     16  C   LIG    1        4.019   9.790  -6.195  0.00  0.00    +0.046 A 
ATOM     17  C   LIG    1        4.364   9.892  -4.842  0.00  0.00    +0.008 A 
BRANCH  15  18
ATOM     18  O   LIG    1        2.868   8.714  -7.946  0.00  0.00    -0.507 OA
ATOM     19  H   LIG    1        2.606   9.600  -8.245  0.00  0.00    +0.292 HD
ENDBRANCH  15  18
ENDBRANCH   1  12
TORSDOF 4
ENDMDL
MODEL 7
REMARK VINA RESULT:      -6.8      2.649      6.440
REMARK  Name = 
REMARK                            x       y       z     vdW  Elec       q    Type
REMARK                         _______ _______ _______ _____ _____    ______ ____
ROOT
ATOM      1  C   LIG    1        3.543   8.149  -5.221  0.00  0.00    +0.015 C 
ATOM      2  C   LIG    1        2.284   7.853  -6.094  0.00  0.00    +0.021 C 
ATOM      3  C   LIG    1        3.578   9.707  -5.170  0.00  0.00    +0.021 C 
ENDROOT
BRANCH   1   7
ATOM      4  C   LIG    1        7.232   6.725  -7.105  0.00  0.00    +0.117 A 
ATOM      5  C   LIG    1        6.414   5.828  -6.440  0.00  0.00    +0.046 A 
ATOM      6  C   LIG    1        5.236   6.274  -5.829  0.00  0.00    +0.008 A 
ATOM      7  C   LIG    1        4.846   7.626  -5.883  0.00  0.00    -0.037 A 
ATOM      8  C   LIG    1        5.707   8.508  -6.570  0.00  0.00    +0.008 A 
ATOM      9  C   LIG    1        6.890   8.067  -7.176  0.00  0.00    +0.046 A 
BRANCH   4  10
ATOM     10  O   LIG    1        8.374   6.249  -7.678  0.00  0.00    -0.507 OA
ATOM     11  H   LIG    1        8.386   6.519  -8.611  0.00  0.00    +0.292 HD
ENDBRANCH   4  10
ENDBRANCH   1   7
BRANCH   1  12
ATOM     12  C   LIG    1        3.374   7.557  -3.793  0.00  0.00    -0.037 A 
ATOM     13  C   LIG    1        2.620   6.386  -3.570  0.00  0.00    +0.008 A 
ATOM     14  C   LIG    1        2.458   5.843  -2.290  0.00  0.00    +0.046 A 
ATOM     15  C   LIG    1        3.058   6.461  -1.204  0.00  0.00    +0.117 A 
ATOM     16  C   LIG    1        3.800   7.618  -1.380  0.00  0.00    +0.046 A 
ATOM     17  C   LIG    1        3.944   8.168  -2.660  0.00  0.00    +0.008 A 
BRANCH  15  18
ATOM     18  O   LIG    1        2.940   5.961   0.058  0.00  0.00    -0.507 OA
ATOM     19  H   LIG    1        2.755   6.697   0.665  0.00  0.00    +0.292 HD
ENDBRANCH  15  18
ENDBRANCH   1  12
TORSDOF 4
ENDMDL
MODEL 8
REMARK VINA RESULT:      -6.8      2.659      3.655
REMARK  Name = 
REMARK                            x       y       z     vdW  Elec       q    Type
REMARK                         _______ _______ _______ _____ _____    ______ ____
ROOT
ATOM      1  C   LIG    1        3.594   8.213  -5.252  0.00  0.00    +0.015 C 
ATOM      2  C   LIG    1        3.612   9.772  -5.219  0.00  0.00    +0.021 C 
ATOM      3  C   LIG    1        2.353   7.892  -6.139  0.00  0.00    +0.021 C 
ENDROOT
BRANCH   1   7
ATOM      4  C   LIG    1        3.043   6.533  -1.244  0.00  0.00    +0.117 A 
ATOM      5  C   LIG    1        2.436   5.926  -2.329  0.00  0.00    +0.046 A 
ATOM      6  C   LIG    1        2.601   6.458  -3.614  0.00  0.00    +0.008 A 
ATOM      7  C   LIG    1        3.388   7.603  -3.839  0.00  0.00    -0.037 A 
ATOM      8  C   LIG    1        3.989   8.193  -2.707  0.00  0.00    +0.008 A 
ATOM      9  C   LIG    1        3.820   7.668  -1.420  0.00  0.00    +0.046 A 
BRANCH   4  10
ATOM     10  O   LIG    1        2.849   5.987  -0.011  0.00  0.00    -0.507 OA
ATOM     11  H   LIG    1        2.508   5.084  -0.124  0.00  0.00    +0.292 HD
ENDBRANCH   4  10
ENDBRANCH   1   7
BRANCH   1  12
ATOM     12  C   LIG    1        4.892   7.661  -5.906  0.00  0.00    -0.037 A 
ATOM     13  C   LIG    1        5.763   8.503  -6.630  0.00  0.00    +0.008 A 
ATOM     14  C   LIG    1        6.935   8.019  -7.225  0.00  0.00    +0.046 A 
ATOM     15  C   LIG    1        7.262   6.678  -7.100  0.00  0.00    +0.117 A 
ATOM     16  C   LIG    1        6.429   5.817  -6.404  0.00  0.00    +0.046 A 
ATOM     17  C   LIG    1        5.249   6.301  -5.826  0.00  0.00    +0.008 A 
BRANCH  15  18
ATOM     18  O   LIG    1        8.398   6.166  -7.650  0.00  0.00    -0.507 OA
ATOM     19  H   LIG    1        9.127   6.285  -7.019  0.00  0.00    +0.292 HD
ENDBRANCH  15  18
ENDBRANCH   1  12
TORSDOF 4
ENDMDL
MODEL 9
REMARK VINA RESULT:      -6.8      3.745      5.122
REMARK  Name = 
REMARK                            x       y       z     vdW  Elec       q    Type
REMARK                         _______ _______ _______ _____ _____    ______ ____
ROOT
ATOM      1  C   LIG    1        3.629   8.049  -5.088  0.00  0.00    +0.015 C 
ATOM      2  C   LIG    1        2.480   8.300  -6.113  0.00  0.00    +0.021 C 
ATOM      3  C   LIG    1        3.028   6.964  -4.144  0.00  0.00    +0.021 C 
ENDROOT
BRANCH   1   7
ATOM      4  C   LIG    1        4.593  11.612  -2.727  0.00  0.00    +0.117 A 
ATOM      5  C   LIG    1        3.784  11.730  -3.845  0.00  0.00    +0.046 A 
ATOM      6  C   LIG    1        3.475  10.599  -4.609  0.00  0.00    +0.008 A 
ATOM      7  C   LIG    1        3.959   9.322  -4.263  0.00  0.00    -0.037 A 
ATOM      8  C   LIG    1        4.780   9.245  -3.118  0.00  0.00    +0.008 A 
ATOM      9  C   LIG    1        5.097  10.375  -2.355  0.00  0.00    +0.046 A 
BRANCH   4  10
ATOM     10  O   LIG    1        4.875  12.740  -2.017  0.00  0.00    -0.507 OA
ATOM     11  H   LIG    1        4.186  13.400  -2.200  0.00  0.00    +0.292 HD
ENDBRANCH   4  10
ENDBRANCH   1   7
BRANCH   1  12
ATOM     12  C   LIG    1        4.899   7.511  -5.804  0.00  0.00    -0.037 A 
ATOM     13  C   LIG    1        5.724   8.361  -6.570  0.00  0.00    +0.008 A 
ATOM     14  C   LIG    1        6.871   7.890  -7.221  0.00  0.00    +0.046 A 
ATOM     15  C   LIG    1        7.218   6.553  -7.111  0.00  0.00    +0.117 A 
ATOM     16  C   LIG    1        6.430   5.684  -6.375  0.00  0.00    +0.046 A 
ATOM     17  C   LIG    1        5.275   6.155  -5.739  0.00  0.00    +0.008 A 
BRANCH  15  18
ATOM     18  O   LIG    1        8.332   6.052  -7.715  0.00  0.00    -0.507 OA
ATOM     19  H   LIG    1        8.923   6.792  -7.934  0.00  0.00    +0.292 HD
ENDBRANCH  15  18
ENDBRANCH   1  12
TORSDOF 4
ENDMDL
