MODEL 1
REMARK VINA RESULT:      -8.2      0.000      0.000
REMARK  Name = 
REMARK                            x       y       z     vdW  Elec       q    Type
REMARK                         _______ _______ _______ _____ _____    ______ ____
ROOT
ATOM      1  C   LIG    1        2.828  32.034   4.134  0.00  0.00    +0.015 C 
ATOM      2  C   LIG    1        2.977  32.247   2.596  0.00  0.00    +0.021 C 
ATOM      3  C   LIG    1        4.035  32.828   4.719  0.00  0.00    +0.021 C 
ENDROOT
BRANCH   1   7
ATOM      4  C   LIG    1        3.239  27.824   5.274  0.00  0.00    +0.117 A 
ATOM      5  C   LIG    1        2.141  28.228   4.533  0.00  0.00    +0.046 A 
ATOM      6  C   LIG    1        1.997  29.572   4.169  0.00  0.00    +0.008 A 
ATOM      7  C   LIG    1        2.957  30.538   4.529  0.00  0.00    -0.037 A 
ATOM      8  C   LIG    1        4.060  30.086   5.283  0.00  0.00    +0.008 A 
ATOM      9  C   LIG    1        4.204  28.744   5.655  0.00  0.00    +0.046 A 
BRANCH   4  10
ATOM     10  O   LIG    1        3.335  26.508   5.614  0.00  0.00    -0.507 OA
ATOM     11  H   LIG    1        3.922  26.430   6.383  0.00  0.00    +0.292 HD
ENDBRANCH   4  10
ENDBRANCH   1   7
BRANCH   1  12
ATOM     12  C   LIG    1        1.484  32.625   4.645  0.00  0.00    -0.037 A 
ATOM     13  C   LIG    1        1.163  32.636   6.019  0.00  0.00    +0.008 A 
ATOM     14  C   LIG    1       -0.044  33.163   6.493  0.00  0.00    +0.046 A 
ATOM     15  C   LIG    1       -0.955  33.698   5.596  0.00  0.00    +0.117 A 
ATOM     16  C   LIG    1       -0.682  33.698   4.238  0.00  0.00    +0.046 A 
ATOM     17  C   LIG    1        0.519  33.154   3.766  0.00  0.00    +0.008 A 
BRANCH  15  18
ATOM     18  O   LIG    1       -2.136  34.235   6.013  0.00  0.00    -0.507 OA
ATOM     19  H   LIG    1       -2.690  34.404   5.233  0.00  0.00    +0.292 HD
ENDBRANCH  15  18
ENDBRANCH   1  12
TORSDOF 4
ENDMDL
MODEL 2
REMARK VINA RESULT:      -8.2      0.049      5.694
REMARK  Name = 
REMARK                            x       y       z     vdW  Elec       q    Type
REMARK                         _______ _______ _______ _____ _____    ______ ____
ROOT
ATOM      1  C   LIG    1        2.865  32.030   4.161  0.00  0.00    +0.015 C 
ATOM      2  C   LIG    1        4.094  32.843   4.675  0.00  0.00    +0.021 C 
ATOM      3  C   LIG    1        2.952  32.200   2.614  0.00  0.00    +0.021 C 
ENDROOT
BRANCH   1   7
ATOM      4  C   LIG    1       -0.936  33.711   5.544  0.00  0.00    +0.117 A 
ATOM      5  C   LIG    1       -0.042  33.192   6.465  0.00  0.00    +0.046 A 
ATOM      6  C   LIG    1        1.173  32.647   6.033  0.00  0.00    +0.008 A 
ATOM      7  C   LIG    1        1.523  32.621   4.670  0.00  0.00    -0.037 A 
ATOM      8  C   LIG    1        0.585  33.160   3.763  0.00  0.00    +0.008 A 
ATOM      9  C   LIG    1       -0.634  33.699   4.191  0.00  0.00    +0.046 A 
BRANCH   4  10
ATOM     10  O   LIG    1       -2.111  34.223   6.008  0.00  0.00    -0.507 OA
ATOM     11  H   LIG    1       -2.838  33.664   5.689  0.00  0.00    +0.292 HD
ENDBRANCH   4  10
ENDBRANCH   1   7
BRANCH   1  12
ATOM     12  C   LIG    1        2.992  30.532   4.556  0.00  0.00    -0.037 A 
ATOM     13  C   LIG    1        2.014  29.589   4.176  0.00  0.00    +0.008 A 
ATOM     14  C   LIG    1        2.114  28.236   4.525  0.00  0.00    +0.046 A 
ATOM     15  C   LIG    1        3.205  27.800   5.260  0.00  0.00    +0.117 A 
ATOM     16  C   LIG    1        4.182  28.696   5.661  0.00  0.00    +0.046 A 
ATOM     17  C   LIG    1        4.070  30.050   5.324  0.00  0.00    +0.008 A 
BRANCH  15  18
ATOM     18  O   LIG    1        3.352  26.491   5.612  0.00  0.00    -0.507 OA
ATOM     19  H   LIG    1        2.970  26.365   6.496  0.00  0.00    +0.292 HD
ENDBRANCH  15  18
ENDBRANCH   1  12
TORSDOF 4
ENDMDL
MODEL 3
REMARK VINA RESULT:      -8.2      0.051      5.540
REMARK  Name = 
REMARK                            x       y       z     vdW  Elec       q    Type
REMARK                         _______ _______ _______ _____ _____    ______ ____
ROOT
ATOM      1  C   LIG    1        2.814  32.056   4.132  0.00  0.00    +0.015 C 
ATOM      2  C   LIG    1        4.041  32.874   4.642  0.00  0.00    +0.021 C 
ATOM      3  C   LIG    1        2.898  32.221   2.584  0.00  0.00    +0.021 C 
ENDROOT
BRANCH   1   7
ATOM      4  C   LIG    1       -0.963  33.704   5.617  0.00  0.00    +0.117 A 
ATOM      5  C   LIG    1       -0.676  33.763   4.264  0.00  0.00    +0.046 A 
ATOM      6  C   LIG    1        0.531  33.244   3.780  0.00  0.00    +0.008 A 
ATOM      7  C   LIG    1        1.471  32.645   4.640  0.00  0.00    -0.037 A 
ATOM      8  C   LIG    1        1.141  32.605   6.012  0.00  0.00    +0.008 A 
ATOM      9  C   LIG    1       -0.062  33.129   6.500  0.00  0.00    +0.046 A 
BRANCH   4  10
ATOM     10  O   LIG    1       -2.146  34.228   6.046  0.00  0.00    -0.507 OA
ATOM     11  H   LIG    1       -2.642  33.532   6.507  0.00  0.00    +0.292 HD
ENDBRANCH   4  10
ENDBRANCH   1   7
BRANCH   1  12
ATOM     12  C   LIG    1        2.946  30.559   4.532  0.00  0.00    -0.037 A 
ATOM     13  C   LIG    1        4.052  30.094   5.274  0.00  0.00    +0.008 A 
ATOM     14  C   LIG    1        4.184  28.748   5.640  0.00  0.00    +0.046 A 
ATOM     15  C   LIG    1        3.203  27.841   5.273  0.00  0.00    +0.117 A 
ATOM     16  C   LIG    1        2.106  28.257   4.536  0.00  0.00    +0.046 A 
ATOM     17  C   LIG    1        1.986  29.599   4.157  0.00  0.00    +0.008 A 
BRANCH  15  18
ATOM     18  O   LIG    1        3.282  26.525   5.618  0.00  0.00    -0.507 OA
ATOM     19  H   LIG    1        3.754  26.050   4.915  0.00  0.00    +0.292 HD
ENDBRANCH  15  18
ENDBRANCH   1  12
TORSDOF 4
ENDMDL
MODEL 4
REMARK VINA RESULT:      -7.7      1.439      1.944
REMARK  Name = 
REMARK                            x       y       z     vdW  Elec       q    Type
REMARK                         _______ _______ _______ _____ _____    ______ ____
ROOT
ATOM      1  C   LIG    1        2.396  32.073   4.346  0.00  0.00    +0.015 C 
ATOM      2  C   LIG    1        3.110  32.082   2.959  0.00  0.00    +0.021 C 
ATOM      3  C   LIG    1        3.523  32.522   5.326  0.00  0.00    +0.021 C 
ENDROOT
BRANCH   1   7
ATOM      4  C   LIG    1        0.985  28.065   5.413  0.00  0.00    +0.117 A 
ATOM      5  C   LIG    1        1.950  28.681   6.192  0.00  0.00    +0.046 A 
ATOM      6  C   LIG    1        2.412  29.959   5.856  0.00  0.00    +0.008 A 
ATOM      7  C   LIG    1        1.908  30.653   4.739  0.00  0.00    -0.037 A 
ATOM      8  C   LIG    1        0.926  29.992   3.972  0.00  0.00    +0.008 A 
ATOM      9  C   LIG    1        0.467  28.711   4.300  0.00  0.00    +0.046 A 
BRANCH   4  10
ATOM     10  O   LIG    1        0.570  26.818   5.772  0.00  0.00    -0.507 OA
ATOM     11  H   LIG    1        1.259  26.410   6.321  0.00  0.00    +0.292 HD
ENDBRANCH   4  10
ENDBRANCH   1   7
BRANCH   1  12
ATOM     12  C   LIG    1        1.217  33.086   4.365  0.00  0.00    -0.037 A 
ATOM     13  C   LIG    1        0.349  33.178   5.474  0.00  0.00    +0.008 A 
ATOM     14  C   LIG    1       -0.718  34.085   5.505  0.00  0.00    +0.046 A 
ATOM     15  C   LIG    1       -0.932  34.926   4.423  0.00  0.00    +0.117 A 
ATOM     16  C   LIG    1       -0.107  34.860   3.313  0.00  0.00    +0.046 A 
ATOM     17  C   LIG    1        0.948  33.940   3.278  0.00  0.00    +0.008 A 
BRANCH  15  18
ATOM     18  O   LIG    1       -1.948  35.833   4.414  0.00  0.00    -0.507 OA
ATOM     19  H   LIG    1       -1.675  36.607   4.934  0.00  0.00    +0.292 HD
ENDBRANCH  15  18
ENDBRANCH   1  12
TORSDOF 4
ENDMDL
MODEL 5
REMARK VINA RESULT:      -7.7      1.892      5.633
REMARK  Name = 
REMARK                            x       y       z     vdW  Elec       q    Type
REMARK                         _______ _______ _______ _____ _____    ______ ____
ROOT
ATOM      1  C   LIG    1        2.553  32.401   4.256  0.00  0.00    +0.015 C 
ATOM      2  C   LIG    1        3.739  32.795   5.190  0.00  0.00    +0.021 C 
ATOM      3  C   LIG    1        3.224  32.309   2.852  0.00  0.00    +0.021 C 
ENDROOT
BRANCH   1   7
ATOM      4  C   LIG    1       -0.526  35.517   4.197  0.00  0.00    +0.117 A 
ATOM      5  C   LIG    1       -0.834  34.243   3.751  0.00  0.00    +0.046 A 
ATOM      6  C   LIG    1        0.145  33.242   3.760  0.00  0.00    +0.008 A 
ATOM      7  C   LIG    1        1.449  33.493   4.228  0.00  0.00    -0.037 A 
ATOM      8  C   LIG    1        1.722  34.804   4.674  0.00  0.00    +0.008 A 
ATOM      9  C   LIG    1        0.748  35.809   4.659  0.00  0.00    +0.046 A 
BRANCH   4  10
ATOM     10  O   LIG    1       -1.507  36.463   4.163  0.00  0.00    -0.507 OA
ATOM     11  H   LIG    1       -2.068  36.296   3.388  0.00  0.00    +0.292 HD
ENDBRANCH   4  10
ENDBRANCH   1   7
BRANCH   1  12
ATOM     12  C   LIG    1        1.958  31.026   4.671  0.00  0.00    -0.037 A 
ATOM     13  C   LIG    1        1.816  29.978   3.737  0.00  0.00    +0.008 A 
ATOM     14  C   LIG    1        1.281  28.735   4.096  0.00  0.00    +0.046 A 
ATOM     15  C   LIG    1        0.882  28.515   5.405  0.00  0.00    +0.117 A 
ATOM     16  C   LIG    1        0.996  29.522   6.350  0.00  0.00    +0.046 A 
ATOM     17  C   LIG    1        1.516  30.769   5.983  0.00  0.00    +0.008 A 
BRANCH  15  18
ATOM     18  O   LIG    1        0.368  27.317   5.804  0.00  0.00    -0.507 OA
ATOM     19  H   LIG    1       -0.570  27.286   5.555  0.00  0.00    +0.292 HD
ENDBRANCH  15  18
ENDBRANCH   1  12
TORSDOF 4
ENDMDL
MODEL 6
REMARK VINA RESULT:      -7.5      1.843      2.058
REMARK  Name = 
REMARK                            x       y       z     vdW  Elec       q    Type
REMARK                         _______ _______ _______ _____ _____    ______ ____
ROOT
ATOM      1  C   LIG    1        2.408  32.397   4.116  0.00  0.00    +0.015 C 
ATOM      2  C   LIG    1        3.080  32.332   2.710  0.00  0.00    +0.021 C 
ATOM      3  C   LIG    1        3.582  32.822   5.050  0.00  0.00    +0.021 C 
ENDROOT
BRANCH   1   7
ATOM      4  C   LIG    1        0.866  28.514   5.436  0.00  0.00    +0.117 A 
ATOM      5  C   LIG    1        1.435  28.634   4.179  0.00  0.00    +0.046 A 
ATOM      6  C   LIG    1        1.925  29.871   3.746  0.00  0.00    +0.008 A 
ATOM      7  C   LIG    1        1.867  31.013   4.567  0.00  0.00    -0.037 A 
ATOM      8  C   LIG    1        1.280  30.850   5.840  0.00  0.00    +0.008 A 
ATOM      9  C   LIG    1        0.782  29.616   6.274  0.00  0.00    +0.046 A 
BRANCH   4  10
ATOM     10  O   LIG    1        0.395  27.293   5.814  0.00  0.00    -0.507 OA
ATOM     11  H   LIG    1        1.152  26.722   6.025  0.00  0.00    +0.292 HD
ENDBRANCH   4  10
ENDBRANCH   1   7
BRANCH   1  12
ATOM     12  C   LIG    1        1.277  33.464   4.138  0.00  0.00    -0.037 A 
ATOM     13  C   LIG    1        1.516  34.775   4.602  0.00  0.00    +0.008 A 
ATOM     14  C   LIG    1        0.507  35.746   4.628  0.00  0.00    +0.046 A 
ATOM     15  C   LIG    1       -0.765  35.422   4.181  0.00  0.00    +0.117 A 
ATOM     16  C   LIG    1       -1.041  34.143   3.726  0.00  0.00    +0.046 A 
ATOM     17  C   LIG    1       -0.035  33.171   3.718  0.00  0.00    +0.008 A 
BRANCH  15  18
ATOM     18  O   LIG    1       -1.774  36.337   4.175  0.00  0.00    -0.507 OA
ATOM     19  H   LIG    1       -2.296  36.215   3.365  0.00  0.00    +0.292 HD
ENDBRANCH  15  18
ENDBRANCH   1  12
TORSDOF 4
ENDMDL
MODEL 7
REMARK VINA RESULT:      -7.0      1.501      2.083
REMARK  Name = 
REMARK                            x       y       z     vdW  Elec       q    Type
REMARK                         _______ _______ _______ _____ _____    ______ ____
ROOT
ATOM      1  C   LIG    1        2.413  30.906   6.243  0.00  0.00    +0.015 C 
ATOM      2  C   LIG    1        3.724  31.740   6.382  0.00  0.00    +0.021 C 
ATOM      3  C   LIG    1        1.960  30.713   7.722  0.00  0.00    +0.021 C 
ENDROOT
BRANCH   1   7
ATOM      4  C   LIG    1        3.199  26.992   4.439  0.00  0.00    +0.117 A 
ATOM      5  C   LIG    1        1.913  27.505   4.428  0.00  0.00    +0.046 A 
ATOM      6  C   LIG    1        1.650  28.752   5.007  0.00  0.00    +0.008 A 
ATOM      7  C   LIG    1        2.673  29.518   5.599  0.00  0.00    -0.037 A 
ATOM      8  C   LIG    1        3.969  28.960   5.590  0.00  0.00    +0.008 A 
ATOM      9  C   LIG    1        4.234  27.710   5.018  0.00  0.00    +0.046 A 
BRANCH   4  10
ATOM     10  O   LIG    1        3.408  25.771   3.872  0.00  0.00    -0.507 OA
ATOM     11  H   LIG    1        2.626  25.538   3.346  0.00  0.00    +0.292 HD
ENDBRANCH   4  10
ENDBRANCH   1   7
BRANCH   1  12
ATOM     12  C   LIG    1        1.341  31.695   5.440  0.00  0.00    -0.037 A 
ATOM     13  C   LIG    1       -0.003  31.745   5.866  0.00  0.00    +0.008 A 
ATOM     14  C   LIG    1       -0.980  32.450   5.151  0.00  0.00    +0.046 A 
ATOM     15  C   LIG    1       -0.625  33.127   3.995  0.00  0.00    +0.117 A 
ATOM     16  C   LIG    1        0.682  33.094   3.539  0.00  0.00    +0.046 A 
ATOM     17  C   LIG    1        1.652  32.374   4.246  0.00  0.00    +0.008 A 
BRANCH  15  18
ATOM     18  O   LIG    1       -1.538  33.837   3.275  0.00  0.00    -0.507 OA
ATOM     19  H   LIG    1       -1.154  34.043   2.407  0.00  0.00    +0.292 HD
ENDBRANCH  15  18
ENDBRANCH   1  12
TORSDOF 4
ENDMDL
MODEL 8
REMARK VINA RESULT:      -7.0      1.511      5.939
REMARK  Name = 
REMARK                            x       y       z     vdW  Elec       q    Type
REMARK                         _______ _______ _______ _____ _____    ______ ____
ROOT
ATOM      1  C   LIG    1        2.437  30.852   6.283  0.00  0.00    +0.015 C 
ATOM      2  C   LIG    1        2.034  30.691   7.782  0.00  0.00    +0.021 C 
ATOM      3  C   LIG    1        3.754  31.683   6.359  0.00  0.00    +0.021 C 
ENDROOT
BRANCH   1   7
ATOM      4  C   LIG    1       -0.602  33.075   4.045  0.00  0.00    +0.117 A 
ATOM      5  C   LIG    1        0.703  33.043   3.581  0.00  0.00    +0.046 A 
ATOM      6  C   LIG    1        1.682  32.340   4.292  0.00  0.00    +0.008 A 
ATOM      7  C   LIG    1        1.374  31.645   5.477  0.00  0.00    -0.037 A 
ATOM      8  C   LIG    1        0.034  31.702   5.916  0.00  0.00    +0.008 A 
ATOM      9  C   LIG    1       -0.947  32.410   5.211  0.00  0.00    +0.046 A 
BRANCH   4  10
ATOM     10  O   LIG    1       -1.521  33.778   3.325  0.00  0.00    -0.507 OA
ATOM     11  H   LIG    1       -2.402  33.416   3.515  0.00  0.00    +0.292 HD
ENDBRANCH   4  10
ENDBRANCH   1   7
BRANCH   1  12
ATOM     12  C   LIG    1        2.702  29.465   5.632  0.00  0.00    -0.037 A 
ATOM     13  C   LIG    1        1.651  28.705   5.076  0.00  0.00    +0.008 A 
ATOM     14  C   LIG    1        1.874  27.454   4.487  0.00  0.00    +0.046 A 
ATOM     15  C   LIG    1        3.161  26.941   4.439  0.00  0.00    +0.117 A 
ATOM     16  C   LIG    1        4.218  27.653   4.982  0.00  0.00    +0.046 A 
ATOM     17  C   LIG    1        3.989  28.895   5.585  0.00  0.00    +0.008 A 
BRANCH  15  18
ATOM     18  O   LIG    1        3.428  25.735   3.864  0.00  0.00    -0.507 OA
ATOM     19  H   LIG    1        2.879  25.060   4.296  0.00  0.00    +0.292 HD
ENDBRANCH  15  18
ENDBRANCH   1  12
TORSDOF 4
ENDMDL
MODEL 9
REMARK VINA RESULT:      -6.7      1.880      2.980
REMARK  Name = 
REMARK                            x       y       z     vdW  Elec       q    Type
REMARK                         _______ _______ _______ _____ _____    ______ ____
ROOT
ATOM      1  C   LIG    1        1.492  30.474   6.616  0.00  0.00    +0.015 C 
ATOM      2  C   LIG    1        2.325  30.866   7.875  0.00  0.00    +0.021 C 
ATOM      3  C   LIG    1        0.111  30.072   7.217  0.00  0.00    +0.021 C 
ENDROOT
BRANCH   1   7
ATOM      4  C   LIG    1        3.164  27.022   4.499  0.00  0.00    +0.117 A 
ATOM      5  C   LIG    1        4.014  27.926   5.112  0.00  0.00    +0.046 A 
ATOM      6  C   LIG    1        3.491  29.036   5.786  0.00  0.00    +0.008 A 
ATOM      7  C   LIG    1        2.103  29.257   5.870  0.00  0.00    -0.037 A 
ATOM      8  C   LIG    1        1.270  28.312   5.233  0.00  0.00    +0.008 A 
ATOM      9  C   LIG    1        1.791  27.205   4.552  0.00  0.00    +0.046 A 
BRANCH   4  10
ATOM     10  O   LIG    1        3.717  25.960   3.848  0.00  0.00    -0.507 OA
ATOM     11  H   LIG    1        4.643  26.172   3.646  0.00  0.00    +0.292 HD
ENDBRANCH   4  10
ENDBRANCH   1   7
BRANCH   1  12
ATOM     12  C   LIG    1        1.340  31.688   5.656  0.00  0.00    -0.037 A 
ATOM     13  C   LIG    1        2.401  32.594   5.447  0.00  0.00    +0.008 A 
ATOM     14  C   LIG    1        2.278  33.692   4.587  0.00  0.00    +0.046 A 
ATOM     15  C   LIG    1        1.086  33.900   3.910  0.00  0.00    +0.117 A 
ATOM     16  C   LIG    1        0.018  33.037   4.095  0.00  0.00    +0.046 A 
ATOM     17  C   LIG    1        0.139  31.951   4.969  0.00  0.00    +0.008 A 
BRANCH  15  18
ATOM     18  O   LIG    1        0.924  34.946   3.053  0.00  0.00    -0.507 OA
ATOM     19  H   LIG    1       -0.019  35.177   3.022  0.00  0.00    +0.292 HD
ENDBRANCH  15  18
ENDBRANCH   1  12
TORSDOF 4
ENDMDL
