MODEL 1
REMARK VINA RESULT:      -8.4      0.000      0.000
REMARK  Name = 
REMARK                            x       y       z     vdW  Elec       q    Type
REMARK                         _______ _______ _______ _____ _____    ______ ____
ROOT
ATOM      1  C   LIG    1       23.339 -27.589 -11.782  0.00  0.00    +0.015 C 
ATOM      2  C   LIG    1       22.518 -27.944 -13.059  0.00  0.00    +0.021 C 
ATOM      3  C   LIG    1       22.340 -26.731 -10.947  0.00  0.00    +0.021 C 
ENDROOT
BRANCH   1   7
ATOM      4  C   LIG    1       26.858 -25.145 -12.697  0.00  0.00    +0.117 A 
ATOM      5  C   LIG    1       26.835 -26.478 -13.070  0.00  0.00    +0.046 A 
ATOM      6  C   LIG    1       25.718 -27.270 -12.777  0.00  0.00    +0.008 A 
ATOM      7  C   LIG    1       24.594 -26.738 -12.115  0.00  0.00    -0.037 A 
ATOM      8  C   LIG    1       24.657 -25.376 -11.751  0.00  0.00    +0.008 A 
ATOM      9  C   LIG    1       25.776 -24.584 -12.037  0.00  0.00    +0.046 A 
BRANCH   4  10
ATOM     10  O   LIG    1       27.969 -24.414 -12.996  0.00  0.00    -0.507 OA
ATOM     11  H   LIG    1       27.765 -23.839 -13.751  0.00  0.00    +0.292 HD
ENDBRANCH   4  10
ENDBRANCH   1   7
BRANCH   1  12
ATOM     12  C   LIG    1       23.736 -28.877 -11.007  0.00  0.00    -0.037 A 
ATOM     13  C   LIG    1       23.154 -30.125 -11.313  0.00  0.00    +0.008 A 
ATOM     14  C   LIG    1       23.500 -31.293 -10.623  0.00  0.00    +0.046 A 
ATOM     15  C   LIG    1       24.447 -31.233  -9.612  0.00  0.00    +0.117 A 
ATOM     16  C   LIG    1       25.035 -30.026  -9.275  0.00  0.00    +0.046 A 
ATOM     17  C   LIG    1       24.673 -28.857  -9.955  0.00  0.00    +0.008 A 
BRANCH  15  18
ATOM     18  O   LIG    1       24.826 -32.346  -8.922  0.00  0.00    -0.507 OA
ATOM     19  H   LIG    1       24.126 -32.568  -8.286  0.00  0.00    +0.292 HD
ENDBRANCH  15  18
ENDBRANCH   1  12
TORSDOF 4
ENDMDL
MODEL 2
REMARK VINA RESULT:      -8.3      0.044      1.166
REMARK  Name = 
REMARK                            x       y       z     vdW  Elec       q    Type
REMARK                         _______ _______ _______ _____ _____    ______ ____
ROOT
ATOM      1  C   LIG    1       23.336 -27.604 -11.794  0.00  0.00    +0.015 C 
ATOM      2  C   LIG    1       22.555 -27.974 -13.092  0.00  0.00    +0.021 C 
ATOM      3  C   LIG    1       22.298 -26.768 -10.984  0.00  0.00    +0.021 C 
ENDROOT
BRANCH   1   7
ATOM      4  C   LIG    1       26.872 -25.170 -12.667  0.00  0.00    +0.117 A 
ATOM      5  C   LIG    1       25.811 -24.611 -11.976  0.00  0.00    +0.046 A 
ATOM      6  C   LIG    1       24.674 -25.378 -11.697  0.00  0.00    +0.008 A 
ATOM      7  C   LIG    1       24.581 -26.726 -12.094  0.00  0.00    -0.037 A 
ATOM      8  C   LIG    1       25.684 -27.258 -12.796  0.00  0.00    +0.008 A 
ATOM      9  C   LIG    1       26.819 -26.492 -13.083  0.00  0.00    +0.046 A 
BRANCH   4  10
ATOM     10  O   LIG    1       27.956 -24.385 -12.924  0.00  0.00    -0.507 OA
ATOM     11  H   LIG    1       28.434 -24.237 -12.092  0.00  0.00    +0.292 HD
ENDBRANCH   4  10
ENDBRANCH   1   7
BRANCH   1  12
ATOM     12  C   LIG    1       23.740 -28.884 -11.010  0.00  0.00    -0.037 A 
ATOM     13  C   LIG    1       23.147 -30.133 -11.290  0.00  0.00    +0.008 A 
ATOM     14  C   LIG    1       23.500 -31.294 -10.591  0.00  0.00    +0.046 A 
ATOM     15  C   LIG    1       24.464 -31.226  -9.598  0.00  0.00    +0.117 A 
ATOM     16  C   LIG    1       25.064 -30.017  -9.286  0.00  0.00    +0.046 A 
ATOM     17  C   LIG    1       24.696 -28.856  -9.975  0.00  0.00    +0.008 A 
BRANCH  15  18
ATOM     18  O   LIG    1       24.850 -32.332  -8.901  0.00  0.00    -0.507 OA
ATOM     19  H   LIG    1       25.642 -32.110  -8.384  0.00  0.00    +0.292 HD
ENDBRANCH  15  18
ENDBRANCH   1  12
TORSDOF 4
ENDMDL
MODEL 3
REMARK VINA RESULT:      -8.3      0.040      5.670
REMARK  Name = 
REMARK                            x       y       z     vdW  Elec       q    Type
REMARK                         _______ _______ _______ _____ _____    ______ ____
ROOT
ATOM      1  C   LIG    1       23.323 -27.565 -11.745  0.00  0.00    +0.015 C 
ATOM      2  C   LIG    1       22.271 -26.725 -10.958  0.00  0.00    +0.021 C 
ATOM      3  C   LIG    1       22.559 -27.961 -13.045  0.00  0.00    +0.021 C 
ENDROOT
BRANCH   1   7
ATOM      4  C   LIG    1       24.442 -31.223  -9.609  0.00  0.00    +0.117 A 
ATOM      5  C   LIG    1       25.042 -30.022  -9.270  0.00  0.00    +0.046 A 
ATOM      6  C   LIG    1       24.696 -28.849  -9.951  0.00  0.00    +0.008 A 
ATOM      7  C   LIG    1       23.732 -28.851 -10.977  0.00  0.00    -0.037 A 
ATOM      8  C   LIG    1       23.144 -30.095 -11.292  0.00  0.00    +0.008 A 
ATOM      9  C   LIG    1       23.493 -31.271 -10.618  0.00  0.00    +0.046 A 
BRANCH   4  10
ATOM     10  O   LIG    1       24.815 -32.342  -8.926  0.00  0.00    -0.507 OA
ATOM     11  H   LIG    1       24.021 -32.871  -8.745  0.00  0.00    +0.292 HD
ENDBRANCH   4  10
ENDBRANCH   1   7
BRANCH   1  12
ATOM     12  C   LIG    1       24.573 -26.705 -12.084  0.00  0.00    -0.037 A 
ATOM     13  C   LIG    1       24.628 -25.333 -11.760  0.00  0.00    +0.008 A 
ATOM     14  C   LIG    1       25.747 -24.546 -12.061  0.00  0.00    +0.046 A 
ATOM     15  C   LIG    1       26.839 -25.123 -12.689  0.00  0.00    +0.117 A 
ATOM     16  C   LIG    1       26.820 -26.465 -13.032  0.00  0.00    +0.046 A 
ATOM     17  C   LIG    1       25.694 -27.245 -12.745  0.00  0.00    +0.008 A 
BRANCH  15  18
ATOM     18  O   LIG    1       27.954 -24.400 -12.989  0.00  0.00    -0.507 OA
ATOM     19  H   LIG    1       28.063 -23.708 -12.316  0.00  0.00    +0.292 HD
ENDBRANCH  15  18
ENDBRANCH   1  12
TORSDOF 4
ENDMDL
MODEL 4
REMARK VINA RESULT:      -8.3      0.054      5.564
REMARK  Name = 
REMARK                            x       y       z     vdW  Elec       q    Type
REMARK                         _______ _______ _______ _____ _____    ______ ____
ROOT
ATOM      1  C   LIG    1       23.340 -27.579 -11.756  0.00  0.00    +0.015 C 
ATOM      2  C   LIG    1       22.281 -26.747 -10.968  0.00  0.00    +0.021 C 
ATOM      3  C   LIG    1       22.585 -27.960 -13.065  0.00  0.00    +0.021 C 
ENDROOT
BRANCH   1   7
ATOM      4  C   LIG    1       24.509 -31.202  -9.588  0.00  0.00    +0.117 A 
ATOM      5  C   LIG    1       23.587 -31.288 -10.617  0.00  0.00    +0.046 A 
ATOM      6  C   LIG    1       23.202 -30.136 -11.312  0.00  0.00    +0.008 A 
ATOM      7  C   LIG    1       23.742 -28.874 -10.999  0.00  0.00    -0.037 A 
ATOM      8  C   LIG    1       24.678 -28.828  -9.943  0.00  0.00    +0.008 A 
ATOM      9  C   LIG    1       25.059 -29.978  -9.241  0.00  0.00    +0.046 A 
BRANCH   4  10
ATOM     10  O   LIG    1       24.848 -32.348  -8.932  0.00  0.00    -0.507 OA
ATOM     11  H   LIG    1       25.719 -32.221  -8.521  0.00  0.00    +0.292 HD
ENDBRANCH   4  10
ENDBRANCH   1   7
BRANCH   1  12
ATOM     12  C   LIG    1       24.592 -26.716 -12.076  0.00  0.00    -0.037 A 
ATOM     13  C   LIG    1       25.698 -27.258 -12.765  0.00  0.00    +0.008 A 
ATOM     14  C   LIG    1       26.834 -26.493 -13.059  0.00  0.00    +0.046 A 
ATOM     15  C   LIG    1       26.880 -25.163 -12.673  0.00  0.00    +0.117 A 
ATOM     16  C   LIG    1       25.818 -24.596 -11.987  0.00  0.00    +0.046 A 
ATOM     17  C   LIG    1       24.692 -25.369 -11.679  0.00  0.00    +0.008 A 
BRANCH  15  18
ATOM     18  O   LIG    1       27.958 -24.376 -12.950  0.00  0.00    -0.507 OA
ATOM     19  H   LIG    1       28.147 -24.435 -13.901  0.00  0.00    +0.292 HD
ENDBRANCH  15  18
ENDBRANCH   1  12
TORSDOF 4
ENDMDL
MODEL 5
REMARK VINA RESULT:      -8.0      0.989      1.365
REMARK  Name = 
REMARK                            x       y       z     vdW  Elec       q    Type
REMARK                         _______ _______ _______ _____ _____    ______ ____
ROOT
ATOM      1  C   LIG    1       23.266 -27.791 -11.691  0.00  0.00    +0.015 C 
ATOM      2  C   LIG    1       22.567 -28.093 -13.053  0.00  0.00    +0.021 C 
ATOM      3  C   LIG    1       22.081 -27.363 -10.774  0.00  0.00    +0.021 C 
ENDROOT
BRANCH   1   7
ATOM      4  C   LIG    1       26.081 -24.449 -12.005  0.00  0.00    +0.117 A 
ATOM      5  C   LIG    1       26.556 -25.749 -12.044  0.00  0.00    +0.046 A 
ATOM      6  C   LIG    1       25.665 -26.824 -11.938  0.00  0.00    +0.008 A 
ATOM      7  C   LIG    1       24.278 -26.620 -11.804  0.00  0.00    -0.037 A 
ATOM      8  C   LIG    1       23.835 -25.280 -11.769  0.00  0.00    +0.008 A 
ATOM      9  C   LIG    1       24.724 -24.203 -11.867  0.00  0.00    +0.046 A 
BRANCH   4  10
ATOM     10  O   LIG    1       26.984 -23.433 -12.103  0.00  0.00    -0.507 OA
ATOM     11  H   LIG    1       27.021 -23.142 -13.029  0.00  0.00    +0.292 HD
ENDBRANCH   4  10
ENDBRANCH   1   7
BRANCH   1  12
ATOM     12  C   LIG    1       23.959 -29.066 -11.133  0.00  0.00    -0.037 A 
ATOM     13  C   LIG    1       24.050 -29.302  -9.745  0.00  0.00    +0.008 A 
ATOM     14  C   LIG    1       24.672 -30.445  -9.228  0.00  0.00    +0.046 A 
ATOM     15  C   LIG    1       25.211 -31.381 -10.096  0.00  0.00    +0.117 A 
ATOM     16  C   LIG    1       25.150 -31.182 -11.465  0.00  0.00    +0.046 A 
ATOM     17  C   LIG    1       24.543 -30.029 -11.978  0.00  0.00    +0.008 A 
BRANCH  15  18
ATOM     18  O   LIG    1       25.814 -32.515  -9.639  0.00  0.00    -0.507 OA
ATOM     19  H   LIG    1       26.776 -32.381  -9.657  0.00  0.00    +0.292 HD
ENDBRANCH  15  18
ENDBRANCH   1  12
TORSDOF 4
ENDMDL
MODEL 6
REMARK VINA RESULT:      -7.8      2.245      3.310
REMARK  Name = 
REMARK                            x       y       z     vdW  Elec       q    Type
REMARK                         _______ _______ _______ _____ _____    ______ ____
ROOT
ATOM      1  C   LIG    1       26.002 -27.088 -11.194  0.00  0.00    +0.015 C 
ATOM      2  C   LIG    1       26.320 -27.163  -9.669  0.00  0.00    +0.021 C 
ATOM      3  C   LIG    1       27.272 -27.710 -11.851  0.00  0.00    +0.021 C 
ENDROOT
BRANCH   1   7
ATOM      4  C   LIG    1       25.475 -22.959 -12.560  0.00  0.00    +0.117 A 
ATOM      5  C   LIG    1       26.730 -23.542 -12.612  0.00  0.00    +0.046 A 
ATOM      6  C   LIG    1       26.910 -24.859 -12.173  0.00  0.00    +0.008 A 
ATOM      7  C   LIG    1       25.834 -25.624 -11.682  0.00  0.00    -0.037 A 
ATOM      8  C   LIG    1       24.572 -24.994 -11.645  0.00  0.00    +0.008 A 
ATOM      9  C   LIG    1       24.390 -23.675 -12.077  0.00  0.00    +0.046 A 
BRANCH   4  10
ATOM     10  O   LIG    1       25.347 -21.672 -12.990  0.00  0.00    -0.507 OA
ATOM     11  H   LIG    1       24.882 -21.164 -12.305  0.00  0.00    +0.292 HD
ENDBRANCH   4  10
ENDBRANCH   1   7
BRANCH   1  12
ATOM     12  C   LIG    1       24.741 -27.931 -11.536  0.00  0.00    -0.037 A 
ATOM     13  C   LIG    1       23.847 -28.354 -10.529  0.00  0.00    +0.008 A 
ATOM     14  C   LIG    1       22.708 -29.114 -10.821  0.00  0.00    +0.046 A 
ATOM     15  C   LIG    1       22.438 -29.461 -12.136  0.00  0.00    +0.117 A 
ATOM     16  C   LIG    1       23.295 -29.073 -13.152  0.00  0.00    +0.046 A 
ATOM     17  C   LIG    1       24.442 -28.328 -12.854  0.00  0.00    +0.008 A 
BRANCH  15  18
ATOM     18  O   LIG    1       21.335 -30.188 -12.469  0.00  0.00    -0.507 OA
ATOM     19  H   LIG    1       20.557 -29.607 -12.424  0.00  0.00    +0.292 HD
ENDBRANCH  15  18
ENDBRANCH   1  12
TORSDOF 4
ENDMDL
MODEL 7
REMARK VINA RESULT:      -7.8      2.275      6.143
REMARK  Name = 
REMARK                            x       y       z     vdW  Elec       q    Type
REMARK                         _______ _______ _______ _____ _____    ______ ____
ROOT
ATOM      1  C   LIG    1       25.997 -27.072 -11.211  0.00  0.00    +0.015 C 
ATOM      2  C   LIG    1       27.295 -27.690 -11.816  0.00  0.00    +0.021 C 
ATOM      3  C   LIG    1       26.253 -27.147  -9.675  0.00  0.00    +0.021 C 
ENDROOT
BRANCH   1   7
ATOM      4  C   LIG    1       22.425 -29.427 -12.152  0.00  0.00    +0.117 A 
ATOM      5  C   LIG    1       23.308 -29.091 -13.163  0.00  0.00    +0.046 A 
ATOM      6  C   LIG    1       24.450 -28.334 -12.874  0.00  0.00    +0.008 A 
ATOM      7  C   LIG    1       24.736 -27.907 -11.563  0.00  0.00    -0.037 A 
ATOM      8  C   LIG    1       23.811 -28.270 -10.562  0.00  0.00    +0.008 A 
ATOM      9  C   LIG    1       22.665 -29.021 -10.848  0.00  0.00    +0.046 A 
BRANCH   4  10
ATOM     10  O   LIG    1       21.322 -30.158 -12.480  0.00  0.00    -0.507 OA
ATOM     11  H   LIG    1       20.578 -29.549 -12.615  0.00  0.00    +0.292 HD
ENDBRANCH   4  10
ENDBRANCH   1   7
BRANCH   1  12
ATOM     12  C   LIG    1       25.824 -25.596 -11.667  0.00  0.00    -0.037 A 
ATOM     13  C   LIG    1       26.938 -24.801 -12.013  0.00  0.00    +0.008 A 
ATOM     14  C   LIG    1       26.798 -23.470 -12.424  0.00  0.00    +0.046 A 
ATOM     15  C   LIG    1       25.533 -22.909 -12.504  0.00  0.00    +0.117 A 
ATOM     16  C   LIG    1       24.415 -23.653 -12.164  0.00  0.00    +0.046 A 
ATOM     17  C   LIG    1       24.560 -24.978 -11.737  0.00  0.00    +0.008 A 
BRANCH  15  18
ATOM     18  O   LIG    1       25.347 -21.622 -12.912  0.00  0.00    -0.507 OA
ATOM     19  H   LIG    1       25.685 -21.028 -12.221  0.00  0.00    +0.292 HD
ENDBRANCH  15  18
ENDBRANCH   1  12
TORSDOF 4
ENDMDL
MODEL 8
REMARK VINA RESULT:      -7.7      2.599      3.173
REMARK  Name = 
REMARK                            x       y       z     vdW  Elec       q    Type
REMARK                         _______ _______ _______ _____ _____    ______ ____
ROOT
ATOM      1  C   LIG    1       24.894 -27.318 -11.665  0.00  0.00    +0.015 C 
ATOM      2  C   LIG    1       24.546 -28.192 -12.909  0.00  0.00    +0.021 C 
ATOM      3  C   LIG    1       23.656 -27.516 -10.737  0.00  0.00    +0.021 C 
ENDROOT
BRANCH   1   7
ATOM      4  C   LIG    1       25.221 -23.067 -12.673  0.00  0.00    +0.117 A 
ATOM      5  C   LIG    1       26.279 -23.918 -12.945  0.00  0.00    +0.046 A 
ATOM      6  C   LIG    1       26.187 -25.277 -12.621  0.00  0.00    +0.008 A 
ATOM      7  C   LIG    1       25.027 -25.815 -12.029  0.00  0.00    -0.037 A 
ATOM      8  C   LIG    1       23.972 -24.914 -11.768  0.00  0.00    +0.008 A 
ATOM      9  C   LIG    1       24.064 -23.554 -12.084  0.00  0.00    +0.046 A 
BRANCH   4  10
ATOM     10  O   LIG    1       25.357 -21.750 -12.997  0.00  0.00    -0.507 OA
ATOM     11  H   LIG    1       26.040 -21.671 -13.683  0.00  0.00    +0.292 HD
ENDBRANCH   4  10
ENDBRANCH   1   7
BRANCH   1  12
ATOM     12  C   LIG    1       26.186 -27.834 -10.972  0.00  0.00    -0.037 A 
ATOM     13  C   LIG    1       27.021 -28.785 -11.596  0.00  0.00    +0.008 A 
ATOM     14  C   LIG    1       28.188 -29.260 -10.983  0.00  0.00    +0.046 A 
ATOM     15  C   LIG    1       28.545 -28.784  -9.732  0.00  0.00    +0.117 A 
ATOM     16  C   LIG    1       27.747 -27.856  -9.083  0.00  0.00    +0.046 A 
ATOM     17  C   LIG    1       26.573 -27.396  -9.690  0.00  0.00    +0.008 A 
BRANCH  15  18
ATOM     18  O   LIG    1       29.678 -29.206  -9.104  0.00  0.00    -0.507 OA
ATOM     19  H   LIG    1       30.119 -28.435  -8.712  0.00  0.00    +0.292 HD
ENDBRANCH  15  18
ENDBRANCH   1  12
TORSDOF 4
ENDMDL
MODEL 9
REMARK VINA RESULT:      -7.7      2.600      5.681
REMARK  Name = 
REMARK                            x       y       z     vdW  Elec       q    Type
REMARK                         _______ _______ _______ _____ _____    ______ ____
ROOT
ATOM      1  C   LIG    1       24.881 -27.310 -11.629  0.00  0.00    +0.015 C 
ATOM      2  C   LIG    1       23.616 -27.557 -10.751  0.00  0.00    +0.021 C 
ATOM      3  C   LIG    1       24.603 -28.170 -12.899  0.00  0.00    +0.021 C 
ENDROOT
BRANCH   1   7
ATOM      4  C   LIG    1       28.546 -28.770  -9.724  0.00  0.00    +0.117 A 
ATOM      5  C   LIG    1       27.754 -27.846  -9.065  0.00  0.00    +0.046 A 
ATOM      6  C   LIG    1       26.584 -27.369  -9.667  0.00  0.00    +0.008 A 
ATOM      7  C   LIG    1       26.176 -27.816 -10.939  0.00  0.00    -0.037 A 
ATOM      8  C   LIG    1       27.011 -28.758 -11.577  0.00  0.00    +0.008 A 
ATOM      9  C   LIG    1       28.186 -29.232 -10.981  0.00  0.00    +0.046 A 
BRANCH   4  10
ATOM     10  O   LIG    1       29.681 -29.202  -9.105  0.00  0.00    -0.507 OA
ATOM     11  H   LIG    1       29.434 -29.605  -8.256  0.00  0.00    +0.292 HD
ENDBRANCH   4  10
ENDBRANCH   1   7
BRANCH   1  12
ATOM     12  C   LIG    1       25.008 -25.806 -12.002  0.00  0.00    -0.037 A 
ATOM     13  C   LIG    1       23.957 -24.898 -11.753  0.00  0.00    +0.008 A 
ATOM     14  C   LIG    1       24.056 -23.542 -12.085  0.00  0.00    +0.046 A 
ATOM     15  C   LIG    1       25.219 -23.065 -12.669  0.00  0.00    +0.117 A 
ATOM     16  C   LIG    1       26.270 -23.925 -12.939  0.00  0.00    +0.046 A 
ATOM     17  C   LIG    1       26.161 -25.284 -12.621  0.00  0.00    +0.008 A 
BRANCH  15  18
ATOM     18  O   LIG    1       25.366 -21.750 -12.997  0.00  0.00    -0.507 OA
ATOM     19  H   LIG    1       26.145 -21.402 -12.532  0.00  0.00    +0.292 HD
ENDBRANCH  15  18
ENDBRANCH   1  12
TORSDOF 4
ENDMDL
