MODEL 1
REMARK VINA RESULT:      -8.2      0.000      0.000
REMARK  Name = 
REMARK                            x       y       z     vdW  Elec       q    Type
REMARK                         _______ _______ _______ _____ _____    ______ ____
ROOT
ATOM      1  C   LIG    1       17.894  47.982  15.409  0.00  0.00    +0.015 C 
ATOM      2  C   LIG    1       16.725  48.315  14.433  0.00  0.00    +0.021 C 
ATOM      3  C   LIG    1       17.774  46.438  15.590  0.00  0.00    +0.021 C 
ENDROOT
BRANCH   1   7
ATOM      4  C   LIG    1       17.413  49.894  19.321  0.00  0.00    +0.117 A 
ATOM      5  C   LIG    1       17.107  50.602  18.171  0.00  0.00    +0.046 A 
ATOM      6  C   LIG    1       17.263  50.002  16.916  0.00  0.00    +0.008 A 
ATOM      7  C   LIG    1       17.717  48.676  16.787  0.00  0.00    -0.037 A 
ATOM      8  C   LIG    1       18.018  47.989  17.982  0.00  0.00    +0.008 A 
ATOM      9  C   LIG    1       17.870  48.588  19.239  0.00  0.00    +0.046 A 
BRANCH   4  10
ATOM     10  O   LIG    1       17.254  50.520  20.521  0.00  0.00    -0.507 OA
ATOM     11  H   LIG    1       17.716  51.374  20.487  0.00  0.00    +0.292 HD
ENDBRANCH   4  10
ENDBRANCH   1   7
BRANCH   1  12
ATOM     12  C   LIG    1       19.264  48.355  14.776  0.00  0.00    -0.037 A 
ATOM     13  C   LIG    1       20.215  47.364  14.451  0.00  0.00    +0.008 A 
ATOM     14  C   LIG    1       21.453  47.685  13.881  0.00  0.00    +0.046 A 
ATOM     15  C   LIG    1       21.761  49.011  13.620  0.00  0.00    +0.117 A 
ATOM     16  C   LIG    1       20.859  50.014  13.933  0.00  0.00    +0.046 A 
ATOM     17  C   LIG    1       19.629  49.690  14.519  0.00  0.00    +0.008 A 
BRANCH  15  18
ATOM     18  O   LIG    1       22.948  49.370  13.055  0.00  0.00    -0.507 OA
ATOM     19  H   LIG    1       23.555  48.614  13.106  0.00  0.00    +0.292 HD
ENDBRANCH  15  18
ENDBRANCH   1  12
TORSDOF 4
ENDMDL
MODEL 2
REMARK VINA RESULT:      -8.2      0.043      5.513
REMARK  Name = 
REMARK                            x       y       z     vdW  Elec       q    Type
REMARK                         _______ _______ _______ _____ _____    ______ ____
ROOT
ATOM      1  C   LIG    1       17.941  47.947  15.411  0.00  0.00    +0.015 C 
ATOM      2  C   LIG    1       17.805  46.399  15.553  0.00  0.00    +0.021 C 
ATOM      3  C   LIG    1       16.777  48.316  14.442  0.00  0.00    +0.021 C 
ENDROOT
BRANCH   1   7
ATOM      4  C   LIG    1       21.773  49.047  13.597  0.00  0.00    +0.117 A 
ATOM      5  C   LIG    1       20.860  50.037  13.920  0.00  0.00    +0.046 A 
ATOM      6  C   LIG    1       19.630  49.695  14.494  0.00  0.00    +0.008 A 
ATOM      7  C   LIG    1       19.294  48.355  14.769  0.00  0.00    -0.037 A 
ATOM      8  C   LIG    1       20.251  47.378  14.425  0.00  0.00    +0.008 A 
ATOM      9  C   LIG    1       21.479  47.715  13.844  0.00  0.00    +0.046 A 
BRANCH   4  10
ATOM     10  O   LIG    1       22.955  49.424  13.032  0.00  0.00    -0.507 OA
ATOM     11  H   LIG    1       23.465  48.624  12.823  0.00  0.00    +0.292 HD
ENDBRANCH   4  10
ENDBRANCH   1   7
BRANCH   1  12
ATOM     12  C   LIG    1       17.751  48.645  16.787  0.00  0.00    -0.037 A 
ATOM     13  C   LIG    1       18.021  47.968  17.995  0.00  0.00    +0.008 A 
ATOM     14  C   LIG    1       17.853  48.584  19.242  0.00  0.00    +0.046 A 
ATOM     15  C   LIG    1       17.416  49.898  19.302  0.00  0.00    +0.117 A 
ATOM     16  C   LIG    1       17.131  50.593  18.138  0.00  0.00    +0.046 A 
ATOM     17  C   LIG    1       17.283  49.969  16.895  0.00  0.00    +0.008 A 
BRANCH  15  18
ATOM     18  O   LIG    1       17.251  50.542  20.491  0.00  0.00    -0.507 OA
ATOM     19  H   LIG    1       18.118  50.622  20.921  0.00  0.00    +0.292 HD
ENDBRANCH  15  18
ENDBRANCH   1  12
TORSDOF 4
ENDMDL
MODEL 3
REMARK VINA RESULT:      -7.8      0.999      5.588
REMARK  Name = 
REMARK                            x       y       z     vdW  Elec       q    Type
REMARK                         _______ _______ _______ _____ _____    ______ ____
ROOT
ATOM      1  C   LIG    1       17.838  48.025  15.429  0.00  0.00    +0.015 C 
ATOM      2  C   LIG    1       17.855  46.466  15.463  0.00  0.00    +0.021 C 
ATOM      3  C   LIG    1       16.839  48.342  14.275  0.00  0.00    +0.021 C 
ENDROOT
BRANCH   1   7
ATOM      4  C   LIG    1       21.793  49.651  14.480  0.00  0.00    +0.117 A 
ATOM      5  C   LIG    1       20.664  50.234  13.931  0.00  0.00    +0.046 A 
ATOM      6  C   LIG    1       19.396  49.719  14.223  0.00  0.00    +0.008 A 
ATOM      7  C   LIG    1       19.231  48.615  15.082  0.00  0.00    -0.037 A 
ATOM      8  C   LIG    1       20.406  48.049  15.620  0.00  0.00    +0.008 A 
ATOM      9  C   LIG    1       21.676  48.558  15.324  0.00  0.00    +0.046 A 
BRANCH   4  10
ATOM     10  O   LIG    1       23.008  50.180  14.161  0.00  0.00    -0.507 OA
ATOM     11  H   LIG    1       23.668  49.468  14.181  0.00  0.00    +0.292 HD
ENDBRANCH   4  10
ENDBRANCH   1   7
BRANCH   1  12
ATOM     12  C   LIG    1       17.317  48.599  16.777  0.00  0.00    -0.037 A 
ATOM     13  C   LIG    1       17.539  49.946  17.134  0.00  0.00    +0.008 A 
ATOM     14  C   LIG    1       17.077  50.476  18.345  0.00  0.00    +0.046 A 
ATOM     15  C   LIG    1       16.374  49.665  19.222  0.00  0.00    +0.117 A 
ATOM     16  C   LIG    1       16.144  48.335  18.913  0.00  0.00    +0.046 A 
ATOM     17  C   LIG    1       16.622  47.804  17.709  0.00  0.00    +0.008 A 
BRANCH  15  18
ATOM     18  O   LIG    1       15.894  50.141  20.405  0.00  0.00    -0.507 OA
ATOM     19  H   LIG    1       14.940  49.963  20.445  0.00  0.00    +0.292 HD
ENDBRANCH  15  18
ENDBRANCH   1  12
TORSDOF 4
ENDMDL
MODEL 4
REMARK VINA RESULT:      -7.6      2.601      5.452
REMARK  Name = 
REMARK                            x       y       z     vdW  Elec       q    Type
REMARK                         _______ _______ _______ _____ _____    ______ ____
ROOT
ATOM      1  C   LIG    1       18.548  48.495  15.561  0.00  0.00    +0.015 C 
ATOM      2  C   LIG    1       19.167  49.612  14.664  0.00  0.00    +0.021 C 
ATOM      3  C   LIG    1       19.713  47.469  15.700  0.00  0.00    +0.021 C 
ENDROOT
BRANCH   1   7
ATOM      4  C   LIG    1       15.136  46.508  13.663  0.00  0.00    +0.117 A 
ATOM      5  C   LIG    1       15.424  47.825  13.347  0.00  0.00    +0.046 A 
ATOM      6  C   LIG    1       16.508  48.471  13.952  0.00  0.00    +0.008 A 
ATOM      7  C   LIG    1       17.335  47.807  14.878  0.00  0.00    -0.037 A 
ATOM      8  C   LIG    1       17.009  46.467  15.173  0.00  0.00    +0.008 A 
ATOM      9  C   LIG    1       15.921  45.820  14.575  0.00  0.00    +0.046 A 
BRANCH   4  10
ATOM     10  O   LIG    1       14.066  45.921  13.056  0.00  0.00    -0.507 OA
ATOM     11  H   LIG    1       14.113  44.963  13.210  0.00  0.00    +0.292 HD
ENDBRANCH   4  10
ENDBRANCH   1   7
BRANCH   1  12
ATOM     12  C   LIG    1       18.149  49.063  16.952  0.00  0.00    -0.037 A 
ATOM     13  C   LIG    1       18.463  48.374  18.142  0.00  0.00    +0.008 A 
ATOM     14  C   LIG    1       18.109  48.872  19.401  0.00  0.00    +0.046 A 
ATOM     15  C   LIG    1       17.435  50.080  19.493  0.00  0.00    +0.117 A 
ATOM     16  C   LIG    1       17.100  50.783  18.348  0.00  0.00    +0.046 A 
ATOM     17  C   LIG    1       17.441  50.273  17.089  0.00  0.00    +0.008 A 
BRANCH  15  18
ATOM     18  O   LIG    1       17.082  50.611  20.697  0.00  0.00    -0.507 OA
ATOM     19  H   LIG    1       16.850  51.545  20.567  0.00  0.00    +0.292 HD
ENDBRANCH  15  18
ENDBRANCH   1  12
TORSDOF 4
ENDMDL
MODEL 5
REMARK VINA RESULT:      -7.6      2.544      4.126
REMARK  Name = 
REMARK                            x       y       z     vdW  Elec       q    Type
REMARK                         _______ _______ _______ _____ _____    ______ ____
ROOT
ATOM      1  C   LIG    1       18.528  48.479  15.908  0.00  0.00    +0.015 C 
ATOM      2  C   LIG    1       18.981  47.664  17.158  0.00  0.00    +0.021 C 
ATOM      3  C   LIG    1       18.067  49.837  16.521  0.00  0.00    +0.021 C 
ENDROOT
BRANCH   1   7
ATOM      4  C   LIG    1       15.146  46.637  13.821  0.00  0.00    +0.117 A 
ATOM      5  C   LIG    1       15.789  45.940  14.830  0.00  0.00    +0.046 A 
ATOM      6  C   LIG    1       16.875  46.517  15.499  0.00  0.00    +0.008 A 
ATOM      7  C   LIG    1       17.332  47.811  15.180  0.00  0.00    -0.037 A 
ATOM      8  C   LIG    1       16.650  48.487  14.146  0.00  0.00    +0.008 A 
ATOM      9  C   LIG    1       15.568  47.910  13.470  0.00  0.00    +0.046 A 
BRANCH   4  10
ATOM     10  O   LIG    1       14.099  46.033  13.190  0.00  0.00    -0.507 OA
ATOM     11  H   LIG    1       13.324  46.615  13.255  0.00  0.00    +0.292 HD
ENDBRANCH   4  10
ENDBRANCH   1   7
BRANCH   1  12
ATOM     12  C   LIG    1       19.718  48.695  14.931  0.00  0.00    -0.037 A 
ATOM     13  C   LIG    1       20.087  49.987  14.500  0.00  0.00    +0.008 A 
ATOM     14  C   LIG    1       21.155  50.196  13.619  0.00  0.00    +0.046 A 
ATOM     15  C   LIG    1       21.881  49.110  13.156  0.00  0.00    +0.117 A 
ATOM     16  C   LIG    1       21.545  47.825  13.548  0.00  0.00    +0.046 A 
ATOM     17  C   LIG    1       20.465  47.618  14.415  0.00  0.00    +0.008 A 
BRANCH  15  18
ATOM     18  O   LIG    1       22.937  49.266  12.308  0.00  0.00    -0.507 OA
ATOM     19  H   LIG    1       23.576  49.870  12.720  0.00  0.00    +0.292 HD
ENDBRANCH  15  18
ENDBRANCH   1  12
TORSDOF 4
ENDMDL
MODEL 6
REMARK VINA RESULT:      -7.6      2.611      3.943
REMARK  Name = 
REMARK                            x       y       z     vdW  Elec       q    Type
REMARK                         _______ _______ _______ _____ _____    ______ ____
ROOT
ATOM      1  C   LIG    1       18.543  48.467  15.588  0.00  0.00    +0.015 C 
ATOM      2  C   LIG    1       19.744  47.479  15.708  0.00  0.00    +0.021 C 
ATOM      3  C   LIG    1       19.111  49.604  14.685  0.00  0.00    +0.021 C 
ENDROOT
BRANCH   1   7
ATOM      4  C   LIG    1       17.419  50.091  19.498  0.00  0.00    +0.117 A 
ATOM      5  C   LIG    1       17.101  50.794  18.349  0.00  0.00    +0.046 A 
ATOM      6  C   LIG    1       17.462  50.287  17.095  0.00  0.00    +0.008 A 
ATOM      7  C   LIG    1       18.137  49.058  16.965  0.00  0.00    -0.037 A 
ATOM      8  C   LIG    1       18.442  48.373  18.160  0.00  0.00    +0.008 A 
ATOM      9  C   LIG    1       18.090  48.880  19.416  0.00  0.00    +0.046 A 
BRANCH   4  10
ATOM     10  O   LIG    1       17.057  50.626  20.699  0.00  0.00    -0.507 OA
ATOM     11  H   LIG    1       16.759  51.538  20.552  0.00  0.00    +0.292 HD
ENDBRANCH   4  10
ENDBRANCH   1   7
BRANCH   1  12
ATOM     12  C   LIG    1       17.329  47.778  14.904  0.00  0.00    -0.037 A 
ATOM     13  C   LIG    1       16.997  46.435  15.180  0.00  0.00    +0.008 A 
ATOM     14  C   LIG    1       15.908  45.802  14.570  0.00  0.00    +0.046 A 
ATOM     15  C   LIG    1       15.121  46.507  13.673  0.00  0.00    +0.117 A 
ATOM     16  C   LIG    1       15.419  47.825  13.369  0.00  0.00    +0.046 A 
ATOM     17  C   LIG    1       16.520  48.450  13.967  0.00  0.00    +0.008 A 
BRANCH  15  18
ATOM     18  O   LIG    1       14.043  45.937  13.066  0.00  0.00    -0.507 OA
ATOM     19  H   LIG    1       13.914  46.363  12.203  0.00  0.00    +0.292 HD
ENDBRANCH  15  18
ENDBRANCH   1  12
TORSDOF 4
ENDMDL
MODEL 7
REMARK VINA RESULT:      -7.5      2.564      5.667
REMARK  Name = 
REMARK                            x       y       z     vdW  Elec       q    Type
REMARK                         _______ _______ _______ _____ _____    ______ ____
ROOT
ATOM      1  C   LIG    1       19.065  48.728  15.889  0.00  0.00    +0.015 C 
ATOM      2  C   LIG    1       18.609  50.065  16.551  0.00  0.00    +0.021 C 
ATOM      3  C   LIG    1       19.694  47.942  17.080  0.00  0.00    +0.021 C 
ENDROOT
BRANCH   1   7
ATOM      4  C   LIG    1       22.117  49.321  12.804  0.00  0.00    +0.117 A 
ATOM      5  C   LIG    1       21.465  50.418  13.341  0.00  0.00    +0.046 A 
ATOM      6  C   LIG    1       20.484  50.239  14.323  0.00  0.00    +0.008 A 
ATOM      7  C   LIG    1       20.143  48.958  14.797  0.00  0.00    -0.037 A 
ATOM      8  C   LIG    1       20.830  47.866  14.224  0.00  0.00    +0.008 A 
ATOM      9  C   LIG    1       21.807  48.041  13.236  0.00  0.00    +0.046 A 
BRANCH   4  10
ATOM     10  O   LIG    1       23.059  49.541  11.844  0.00  0.00    -0.507 OA
ATOM     11  H   LIG    1       23.238  50.495  11.801  0.00  0.00    +0.292 HD
ENDBRANCH   4  10
ENDBRANCH   1   7
BRANCH   1  12
ATOM     12  C   LIG    1       17.846  47.958  15.307  0.00  0.00    -0.037 A 
ATOM     13  C   LIG    1       17.559  46.635  15.702  0.00  0.00    +0.008 A 
ATOM     14  C   LIG    1       16.465  45.929  15.185  0.00  0.00    +0.046 A 
ATOM     15  C   LIG    1       15.631  46.541  14.263  0.00  0.00    +0.117 A 
ATOM     16  C   LIG    1       15.884  47.837  13.844  0.00  0.00    +0.046 A 
ATOM     17  C   LIG    1       16.988  48.533  14.349  0.00  0.00    +0.008 A 
BRANCH  15  18
ATOM     18  O   LIG    1       14.547  45.899  13.744  0.00  0.00    -0.507 OA
ATOM     19  H   LIG    1       14.837  45.040  13.393  0.00  0.00    +0.292 HD
ENDBRANCH  15  18
ENDBRANCH   1  12
TORSDOF 4
ENDMDL
MODEL 8
REMARK VINA RESULT:      -7.5      2.568      3.648
REMARK  Name = 
REMARK                            x       y       z     vdW  Elec       q    Type
REMARK                         _______ _______ _______ _____ _____    ______ ____
ROOT
ATOM      1  C   LIG    1       19.076  48.695  15.887  0.00  0.00    +0.015 C 
ATOM      2  C   LIG    1       19.685  47.941  17.111  0.00  0.00    +0.021 C 
ATOM      3  C   LIG    1       18.617  50.052  16.501  0.00  0.00    +0.021 C 
ENDROOT
BRANCH   1   7
ATOM      4  C   LIG    1       15.614  46.557  14.265  0.00  0.00    +0.117 A 
ATOM      5  C   LIG    1       15.890  47.842  13.830  0.00  0.00    +0.046 A 
ATOM      6  C   LIG    1       16.990  48.536  14.347  0.00  0.00    +0.008 A 
ATOM      7  C   LIG    1       17.845  47.953  15.301  0.00  0.00    -0.037 A 
ATOM      8  C   LIG    1       17.530  46.642  15.718  0.00  0.00    +0.008 A 
ATOM      9  C   LIG    1       16.426  45.948  15.209  0.00  0.00    +0.046 A 
BRANCH   4  10
ATOM     10  O   LIG    1       14.528  45.922  13.741  0.00  0.00    -0.507 OA
ATOM     11  H   LIG    1       14.786  45.514  12.898  0.00  0.00    +0.292 HD
ENDBRANCH   4  10
ENDBRANCH   1   7
BRANCH   1  12
ATOM     12  C   LIG    1       20.154  48.926  14.791  0.00  0.00    -0.037 A 
ATOM     13  C   LIG    1       20.878  47.849  14.237  0.00  0.00    +0.008 A 
ATOM     14  C   LIG    1       21.853  48.042  13.250  0.00  0.00    +0.046 A 
ATOM     15  C   LIG    1       22.116  49.323  12.792  0.00  0.00    +0.117 A 
ATOM     16  C   LIG    1       21.433  50.408  13.317  0.00  0.00    +0.046 A 
ATOM     17  C   LIG    1       20.472  50.213  14.316  0.00  0.00    +0.008 A 
BRANCH  15  18
ATOM     18  O   LIG    1       23.045  49.558  11.823  0.00  0.00    -0.507 OA
ATOM     19  H   LIG    1       23.696  50.191  12.168  0.00  0.00    +0.292 HD
ENDBRANCH  15  18
ENDBRANCH   1  12
TORSDOF 4
ENDMDL
MODEL 9
REMARK VINA RESULT:      -7.4      1.658      2.128
REMARK  Name = 
REMARK                            x       y       z     vdW  Elec       q    Type
REMARK                         _______ _______ _______ _____ _____    ______ ____
ROOT
ATOM      1  C   LIG    1       17.681  47.814  15.535  0.00  0.00    +0.015 C 
ATOM      2  C   LIG    1       16.811  48.557  14.474  0.00  0.00    +0.021 C 
ATOM      3  C   LIG    1       17.605  46.327  15.074  0.00  0.00    +0.021 C 
ENDROOT
BRANCH   1   7
ATOM      4  C   LIG    1       16.022  48.225  19.569  0.00  0.00    +0.117 A 
ATOM      5  C   LIG    1       15.985  46.994  18.936  0.00  0.00    +0.046 A 
ATOM      6  C   LIG    1       16.507  46.854  17.644  0.00  0.00    +0.008 A 
ATOM      7  C   LIG    1       17.088  47.941  16.964  0.00  0.00    -0.037 A 
ATOM      8  C   LIG    1       17.106  49.178  17.644  0.00  0.00    +0.008 A 
ATOM      9  C   LIG    1       16.579  49.324  18.932  0.00  0.00    +0.046 A 
BRANCH   4  10
ATOM     10  O   LIG    1       15.495  48.318  20.822  0.00  0.00    -0.507 OA
ATOM     11  H   LIG    1       16.205  48.567  21.437  0.00  0.00    +0.292 HD
ENDBRANCH   4  10
ENDBRANCH   1   7
BRANCH   1  12
ATOM     12  C   LIG    1       19.149  48.325  15.500  0.00  0.00    -0.037 A 
ATOM     13  C   LIG    1       19.657  49.017  14.380  0.00  0.00    +0.008 A 
ATOM     14  C   LIG    1       20.977  49.482  14.334  0.00  0.00    +0.046 A 
ATOM     15  C   LIG    1       21.815  49.267  15.417  0.00  0.00    +0.117 A 
ATOM     16  C   LIG    1       21.357  48.585  16.531  0.00  0.00    +0.046 A 
ATOM     17  C   LIG    1       20.042  48.106  16.567  0.00  0.00    +0.008 A 
BRANCH  15  18
ATOM     18  O   LIG    1       23.103  49.713  15.422  0.00  0.00    -0.507 OA
ATOM     19  H   LIG    1       23.366  49.883  16.342  0.00  0.00    +0.292 HD
ENDBRANCH  15  18
ENDBRANCH   1  12
TORSDOF 4
ENDMDL
