REMARK  Name = 
REMARK                            x       y       z     vdW  Elec       q    Type
REMARK                         _______ _______ _______ _____ _____    ______ ____
ROOT
ATOM      1  C   LIG    1       -1.777  -4.742   0.741  0.00  0.00    +0.015 C 
ATOM      2  C   LIG    1       -3.211  -4.559   1.327  0.00  0.00    +0.021 C 
ATOM      3  C   LIG    1       -1.065  -5.617   1.817  0.00  0.00    +0.021 C 
ENDROOT
BRANCH   1   7
ATOM      4  C   LIG    1        0.381  -0.951   0.338  0.00  0.00    +0.117 A 
ATOM      5  C   LIG    1       -0.985  -0.940   0.563  0.00  0.00    +0.046 A 
ATOM      6  C   LIG    1       -1.685  -2.146   0.687  0.00  0.00    +0.008 A 
ATOM      7  C   LIG    1       -1.029  -3.389   0.601  0.00  0.00    -0.037 A 
ATOM      8  C   LIG    1        0.363  -3.357   0.371  0.00  0.00    +0.008 A 
ATOM      9  C   LIG    1        1.065  -2.153   0.239  0.00  0.00    +0.046 A 
BRANCH   4  10
ATOM     10  O   LIG    1        1.021   0.246   0.215  0.00  0.00    -0.507 OA
ATOM     11  H   LIG    1        1.956   0.076   0.015  0.00  0.00    +0.292 HD
ENDBRANCH   4  10
ENDBRANCH   1   7
BRANCH   1  12
ATOM     12  C   LIG    1       -1.830  -5.486  -0.623  0.00  0.00    -0.037 A 
ATOM     13  C   LIG    1       -0.728  -6.230  -1.095  0.00  0.00    +0.008 A 
ATOM     14  C   LIG    1       -0.761  -6.904  -2.322  0.00  0.00    +0.046 A 
ATOM     15  C   LIG    1       -1.907  -6.851  -3.100  0.00  0.00    +0.117 A 
ATOM     16  C   LIG    1       -3.007  -6.124  -2.676  0.00  0.00    +0.046 A 
ATOM     17  C   LIG    1       -2.964  -5.437  -1.457  0.00  0.00    +0.008 A 
BRANCH  15  18
ATOM     18  O   LIG    1       -1.990  -7.502  -4.294  0.00  0.00    -0.507 OA
ATOM     19  H   LIG    1       -1.147  -7.956  -4.457  0.00  0.00    +0.292 HD
ENDBRANCH  15  18
ENDBRANCH   1  12
TORSDOF 4
