MODEL 1
REMARK VINA RESULT:      -4.2      0.000      0.000
REMARK  Name = 
REMARK                            x       y       z     vdW  Elec       q    Type
REMARK                         _______ _______ _______ _____ _____    ______ ____
ROOT
ATOM      1  O   LIG    1       -2.580   0.287  22.848  0.00  0.00    -0.275 OA
ATOM      2  C   LIG    1       -1.917   0.475  21.837  0.00  0.00    +0.228 C 
ATOM      3  C   LIG    1       -1.451   1.826  21.357  0.00  0.00    +0.172 C 
ATOM      4  S   LIG    1       -0.519   1.507  19.833  0.00  0.00    -0.093 S 
ATOM      5  C   LIG    1       -0.778  -0.214  19.911  0.00  0.00    +0.113 C 
ATOM      6  S   LIG    1       -0.226  -1.337  18.828  0.00  0.00    -0.028 S 
ATOM      7  N   LIG    1       -1.512  -0.530  21.007  0.00  0.00    -0.274 N 
ATOM      8  H   LIG    1       -1.760  -1.486  21.215  0.00  0.00    +0.156 HD
ENDROOT
TORSDOF 0
ENDMDL
MODEL 2
REMARK VINA RESULT:      -4.1      2.482      3.157
REMARK  Name = 
REMARK                            x       y       z     vdW  Elec       q    Type
REMARK                         _______ _______ _______ _____ _____    ______ ____
ROOT
ATOM      1  O   LIG    1       -0.272  -1.759  18.726  0.00  0.00    -0.275 OA
ATOM      2  C   LIG    1       -0.593  -0.776  19.381  0.00  0.00    +0.228 C 
ATOM      3  C   LIG    1       -0.313   0.650  18.980  0.00  0.00    +0.172 C 
ATOM      4  S   LIG    1       -1.007   1.675  20.306  0.00  0.00    -0.093 S 
ATOM      5  C   LIG    1       -1.564   0.301  21.219  0.00  0.00    +0.113 C 
ATOM      6  S   LIG    1       -2.362   0.346  22.669  0.00  0.00    -0.028 S 
ATOM      7  N   LIG    1       -1.254  -0.851  20.573  0.00  0.00    -0.274 N 
ATOM      8  H   LIG    1       -1.501  -1.751  20.956  0.00  0.00    +0.156 HD
ENDROOT
TORSDOF 0
ENDMDL
MODEL 3
REMARK VINA RESULT:      -3.7      2.308      2.801
REMARK  Name = 
REMARK                            x       y       z     vdW  Elec       q    Type
REMARK                         _______ _______ _______ _____ _____    ______ ____
ROOT
ATOM      1  O   LIG    1       -1.971   1.313  19.864  0.00  0.00    -0.275 OA
ATOM      2  C   LIG    1       -1.223   0.404  20.198  0.00  0.00    +0.228 C 
ATOM      3  C   LIG    1        0.021  -0.000  19.449  0.00  0.00    +0.172 C 
ATOM      4  S   LIG    1        0.728  -1.383  20.387  0.00  0.00    -0.093 S 
ATOM      5  C   LIG    1       -0.535  -1.350  21.587  0.00  0.00    +0.113 C 
ATOM      6  S   LIG    1       -0.666  -2.353  22.897  0.00  0.00    -0.028 S 
ATOM      7  N   LIG    1       -1.426  -0.368  21.305  0.00  0.00    -0.274 N 
ATOM      8  H   LIG    1       -2.227  -0.200  21.896  0.00  0.00    +0.156 HD
ENDROOT
TORSDOF 0
ENDMDL
MODEL 4
REMARK VINA RESULT:      -3.6      1.469      2.089
REMARK  Name = 
REMARK                            x       y       z     vdW  Elec       q    Type
REMARK                         _______ _______ _______ _____ _____    ______ ____
ROOT
ATOM      1  O   LIG    1       -2.921   0.022  23.219  0.00  0.00    -0.275 OA
ATOM      2  C   LIG    1       -2.046  -0.333  22.441  0.00  0.00    +0.228 C 
ATOM      3  C   LIG    1       -1.139  -1.517  22.653  0.00  0.00    +0.172 C 
ATOM      4  S   LIG    1       -0.054  -1.569  21.199  0.00  0.00    -0.093 S 
ATOM      5  C   LIG    1       -0.786  -0.164  20.474  0.00  0.00    +0.113 C 
ATOM      6  S   LIG    1       -0.364   0.524  19.029  0.00  0.00    -0.028 S 
ATOM      7  N   LIG    1       -1.779   0.312  21.267  0.00  0.00    -0.274 N 
ATOM      8  H   LIG    1       -2.316   1.125  21.005  0.00  0.00    +0.156 HD
ENDROOT
TORSDOF 0
ENDMDL
MODEL 5
REMARK VINA RESULT:      -3.4      8.320      8.752
REMARK  Name = 
REMARK                            x       y       z     vdW  Elec       q    Type
REMARK                         _______ _______ _______ _____ _____    ______ ____
ROOT
ATOM      1  O   LIG    1       -3.548  -4.151  16.752  0.00  0.00    -0.275 OA
ATOM      2  C   LIG    1       -4.352  -4.349  15.852  0.00  0.00    +0.228 C 
ATOM      3  C   LIG    1       -5.834  -4.091  15.954  0.00  0.00    +0.172 C 
ATOM      4  S   LIG    1       -6.522  -4.554  14.340  0.00  0.00    -0.093 S 
ATOM      5  C   LIG    1       -4.972  -5.016  13.694  0.00  0.00    +0.113 C 
ATOM      6  S   LIG    1       -4.678  -5.597  12.173  0.00  0.00    -0.028 S 
ATOM      7  N   LIG    1       -4.001  -4.835  14.625  0.00  0.00    -0.274 N 
ATOM      8  H   LIG    1       -3.036  -5.051  14.426  0.00  0.00    +0.156 HD
ENDROOT
TORSDOF 0
ENDMDL
MODEL 6
REMARK VINA RESULT:      -3.4      8.581      9.155
REMARK  Name = 
REMARK                            x       y       z     vdW  Elec       q    Type
REMARK                         _______ _______ _______ _____ _____    ______ ____
ROOT
ATOM      1  O   LIG    1       -3.631  -4.384  16.436  0.00  0.00    -0.275 OA
ATOM      2  C   LIG    1       -4.297  -4.512  15.418  0.00  0.00    +0.228 C 
ATOM      3  C   LIG    1       -3.725  -4.708  14.037  0.00  0.00    +0.172 C 
ATOM      4  S   LIG    1       -5.157  -4.839  12.930  0.00  0.00    -0.093 S 
ATOM      5  C   LIG    1       -6.307  -4.643  14.223  0.00  0.00    +0.113 C 
ATOM      6  S   LIG    1       -7.955  -4.637  14.075  0.00  0.00    -0.028 S 
ATOM      7  N   LIG    1       -5.663  -4.491  15.407  0.00  0.00    -0.274 N 
ATOM      8  H   LIG    1       -6.171  -4.365  16.270  0.00  0.00    +0.156 HD
ENDROOT
TORSDOF 0
ENDMDL
MODEL 7
REMARK VINA RESULT:      -3.4      9.325      9.879
REMARK  Name = 
REMARK                            x       y       z     vdW  Elec       q    Type
REMARK                         _______ _______ _______ _____ _____    ______ ____
ROOT
ATOM      1  O   LIG    1       -6.688  -4.768  16.993  0.00  0.00    -0.275 OA
ATOM      2  C   LIG    1       -6.813  -4.464  15.814  0.00  0.00    +0.228 C 
ATOM      3  C   LIG    1       -5.671  -4.122  14.892  0.00  0.00    +0.172 C 
ATOM      4  S   LIG    1       -6.432  -3.762  13.285  0.00  0.00    -0.093 S 
ATOM      5  C   LIG    1       -8.048  -4.051  13.869  0.00  0.00    +0.113 C 
ATOM      6  S   LIG    1       -9.443  -3.934  12.986  0.00  0.00    -0.028 S 
ATOM      7  N   LIG    1       -8.020  -4.397  15.180  0.00  0.00    -0.274 N 
ATOM      8  H   LIG    1       -8.867  -4.602  15.687  0.00  0.00    +0.156 HD
ENDROOT
TORSDOF 0
ENDMDL
MODEL 8
REMARK VINA RESULT:      -3.3      8.789      9.416
REMARK  Name = 
REMARK                            x       y       z     vdW  Elec       q    Type
REMARK                         _______ _______ _______ _____ _____    ______ ____
ROOT
ATOM      1  O   LIG    1       -3.518  -4.698  14.199  0.00  0.00    -0.275 OA
ATOM      2  C   LIG    1       -4.644  -4.572  14.662  0.00  0.00    +0.228 C 
ATOM      3  C   LIG    1       -4.963  -4.518  16.134  0.00  0.00    +0.172 C 
ATOM      4  S   LIG    1       -6.764  -4.321  16.236  0.00  0.00    -0.093 S 
ATOM      5  C   LIG    1       -6.967  -4.326  14.506  0.00  0.00    +0.113 C 
ATOM      6  S   LIG    1       -8.399  -4.185  13.687  0.00  0.00    -0.028 S 
ATOM      7  N   LIG    1       -5.765  -4.464  13.891  0.00  0.00    -0.274 N 
ATOM      8  H   LIG    1       -5.689  -4.487  12.885  0.00  0.00    +0.156 HD
ENDROOT
TORSDOF 0
ENDMDL
MODEL 9
REMARK VINA RESULT:      -3.3     13.767     14.324
REMARK  Name = 
REMARK                            x       y       z     vdW  Elec       q    Type
REMARK                         _______ _______ _______ _____ _____    ______ ____
ROOT
ATOM      1  O   LIG    1       -8.050  -2.242   9.010  0.00  0.00    -0.275 OA
ATOM      2  C   LIG    1       -7.980  -3.463   8.986  0.00  0.00    +0.228 C 
ATOM      3  C   LIG    1       -8.920  -4.361   8.224  0.00  0.00    +0.172 C 
ATOM      4  S   LIG    1       -8.348  -6.053   8.544  0.00  0.00    -0.093 S 
ATOM      5  C   LIG    1       -7.038  -5.527   9.565  0.00  0.00    +0.113 C 
ATOM      6  S   LIG    1       -5.940  -6.502  10.330  0.00  0.00    -0.028 S 
ATOM      7  N   LIG    1       -7.028  -4.174   9.659  0.00  0.00    -0.274 N 
ATOM      8  H   LIG    1       -6.335  -3.690  10.211  0.00  0.00    +0.156 HD
ENDROOT
TORSDOF 0
ENDMDL
