MODEL 1
REMARK VINA RESULT:      -3.8      0.000      0.000
REMARK  Name = 
REMARK                            x       y       z     vdW  Elec       q    Type
REMARK                         _______ _______ _______ _____ _____    ______ ____
ROOT
ATOM      1  O   LIG    1       44.648  -5.811  15.673  0.00  0.00    -0.275 OA
ATOM      2  C   LIG    1       44.118  -4.792  16.095  0.00  0.00    +0.228 C 
ATOM      3  C   LIG    1       44.712  -3.889  17.145  0.00  0.00    +0.172 C 
ATOM      4  S   LIG    1       43.511  -2.549  17.374  0.00  0.00    -0.093 S 
ATOM      5  C   LIG    1       42.407  -3.197  16.193  0.00  0.00    +0.113 C 
ATOM      6  S   LIG    1       40.950  -2.545  15.752  0.00  0.00    -0.028 S 
ATOM      7  N   LIG    1       42.905  -4.341  15.660  0.00  0.00    -0.274 N 
ATOM      8  H   LIG    1       42.399  -4.856  14.956  0.00  0.00    +0.156 HD
ENDROOT
TORSDOF 0
ENDMDL
MODEL 2
REMARK VINA RESULT:      -3.7      3.838      4.308
REMARK  Name = 
REMARK                            x       y       z     vdW  Elec       q    Type
REMARK                         _______ _______ _______ _____ _____    ______ ____
ROOT
ATOM      1  O   LIG    1       48.355  -2.713  15.084  0.00  0.00    -0.275 OA
ATOM      2  C   LIG    1       47.812  -3.008  16.140  0.00  0.00    +0.228 C 
ATOM      3  C   LIG    1       48.246  -4.136  17.041  0.00  0.00    +0.172 C 
ATOM      4  S   LIG    1       47.098  -4.107  18.446  0.00  0.00    -0.093 S 
ATOM      5  C   LIG    1       46.203  -2.749  17.821  0.00  0.00    +0.113 C 
ATOM      6  S   LIG    1       44.894  -2.028  18.533  0.00  0.00    -0.028 S 
ATOM      7  N   LIG    1       46.729  -2.342  16.639  0.00  0.00    -0.274 N 
ATOM      8  H   LIG    1       46.338  -1.564  16.130  0.00  0.00    +0.156 HD
ENDROOT
TORSDOF 0
ENDMDL
MODEL 3
REMARK VINA RESULT:      -3.7      2.470      3.191
REMARK  Name = 
REMARK                            x       y       z     vdW  Elec       q    Type
REMARK                         _______ _______ _______ _____ _____    ______ ____
ROOT
ATOM      1  O   LIG    1       40.448  -2.696  15.499  0.00  0.00    -0.275 OA
ATOM      2  C   LIG    1       41.556  -2.879  15.987  0.00  0.00    +0.228 C 
ATOM      3  C   LIG    1       42.186  -1.999  17.036  0.00  0.00    +0.172 C 
ATOM      4  S   LIG    1       43.806  -2.738  17.384  0.00  0.00    -0.093 S 
ATOM      5  C   LIG    1       43.579  -4.029  16.238  0.00  0.00    +0.113 C 
ATOM      6  S   LIG    1       44.657  -5.240  15.901  0.00  0.00    -0.028 S 
ATOM      7  N   LIG    1       42.370  -3.917  15.635  0.00  0.00    -0.274 N 
ATOM      8  H   LIG    1       42.066  -4.581  14.939  0.00  0.00    +0.156 HD
ENDROOT
TORSDOF 0
ENDMDL
MODEL 4
REMARK VINA RESULT:      -3.7      3.071      3.757
REMARK  Name = 
REMARK                            x       y       z     vdW  Elec       q    Type
REMARK                         _______ _______ _______ _____ _____    ______ ____
ROOT
ATOM      1  O   LIG    1       42.329  -2.929  16.589  0.00  0.00    -0.275 OA
ATOM      2  C   LIG    1       43.260  -2.672  17.340  0.00  0.00    +0.228 C 
ATOM      3  C   LIG    1       43.302  -1.496  18.281  0.00  0.00    +0.172 C 
ATOM      4  S   LIG    1       44.897  -1.614  19.139  0.00  0.00    -0.093 S 
ATOM      5  C   LIG    1       45.366  -3.059  18.287  0.00  0.00    +0.113 C 
ATOM      6  S   LIG    1       46.783  -3.892  18.478  0.00  0.00    -0.028 S 
ATOM      7  N   LIG    1       44.392  -3.431  17.419  0.00  0.00    -0.274 N 
ATOM      8  H   LIG    1       44.491  -4.250  16.838  0.00  0.00    +0.156 HD
ENDROOT
TORSDOF 0
ENDMDL
MODEL 5
REMARK VINA RESULT:      -3.7      1.886      2.349
REMARK  Name = 
REMARK                            x       y       z     vdW  Elec       q    Type
REMARK                         _______ _______ _______ _____ _____    ______ ____
ROOT
ATOM      1  O   LIG    1       45.994  -5.145  17.273  0.00  0.00    -0.275 OA
ATOM      2  C   LIG    1       45.025  -4.421  17.092  0.00  0.00    +0.228 C 
ATOM      3  C   LIG    1       43.976  -4.641  16.032  0.00  0.00    +0.172 C 
ATOM      4  S   LIG    1       42.793  -3.279  16.225  0.00  0.00    -0.093 S 
ATOM      5  C   LIG    1       43.667  -2.571  17.555  0.00  0.00    +0.113 C 
ATOM      6  S   LIG    1       43.247  -1.200  18.384  0.00  0.00    -0.028 S 
ATOM      7  N   LIG    1       44.771  -3.306  17.838  0.00  0.00    -0.274 N 
ATOM      8  H   LIG    1       45.400  -3.044  18.583  0.00  0.00    +0.156 HD
ENDROOT
TORSDOF 0
ENDMDL
MODEL 6
REMARK VINA RESULT:      -3.7      2.720      3.147
REMARK  Name = 
REMARK                            x       y       z     vdW  Elec       q    Type
REMARK                         _______ _______ _______ _____ _____    ______ ____
ROOT
ATOM      1  O   LIG    1       41.630  -3.207  15.834  0.00  0.00    -0.275 OA
ATOM      2  C   LIG    1       42.716  -3.294  16.390  0.00  0.00    +0.228 C 
ATOM      3  C   LIG    1       43.794  -4.280  16.017  0.00  0.00    +0.172 C 
ATOM      4  S   LIG    1       45.167  -3.958  17.160  0.00  0.00    -0.093 S 
ATOM      5  C   LIG    1       44.320  -2.676  17.980  0.00  0.00    +0.113 C 
ATOM      6  S   LIG    1       44.894  -1.778  19.247  0.00  0.00    -0.028 S 
ATOM      7  N   LIG    1       43.091  -2.498  17.434  0.00  0.00    -0.274 N 
ATOM      8  H   LIG    1       42.458  -1.794  17.784  0.00  0.00    +0.156 HD
ENDROOT
TORSDOF 0
ENDMDL
MODEL 7
REMARK VINA RESULT:      -3.6      2.232      2.494
REMARK  Name = 
REMARK                            x       y       z     vdW  Elec       q    Type
REMARK                         _______ _______ _______ _____ _____    ______ ____
ROOT
ATOM      1  O   LIG    1       44.317  -5.622  15.915  0.00  0.00    -0.275 OA
ATOM      2  C   LIG    1       44.771  -4.793  16.692  0.00  0.00    +0.228 C 
ATOM      3  C   LIG    1       46.138  -4.868  17.322  0.00  0.00    +0.172 C 
ATOM      4  S   LIG    1       46.276  -3.391  18.367  0.00  0.00    -0.093 S 
ATOM      5  C   LIG    1       44.681  -2.823  17.955  0.00  0.00    +0.113 C 
ATOM      6  S   LIG    1       43.959  -1.443  18.513  0.00  0.00    -0.028 S 
ATOM      7  N   LIG    1       44.085  -3.682  17.090  0.00  0.00    -0.274 N 
ATOM      8  H   LIG    1       43.154  -3.513  16.741  0.00  0.00    +0.156 HD
ENDROOT
TORSDOF 0
ENDMDL
MODEL 8
REMARK VINA RESULT:      -3.6      3.300      3.706
REMARK  Name = 
REMARK                            x       y       z     vdW  Elec       q    Type
REMARK                         _______ _______ _______ _____ _____    ______ ____
ROOT
ATOM      1  O   LIG    1       42.487  -0.673  18.683  0.00  0.00    -0.275 OA
ATOM      2  C   LIG    1       43.349  -1.493  18.394  0.00  0.00    +0.228 C 
ATOM      3  C   LIG    1       44.715  -1.558  19.028  0.00  0.00    +0.172 C 
ATOM      4  S   LIG    1       45.559  -2.951  18.228  0.00  0.00    -0.093 S 
ATOM      5  C   LIG    1       44.198  -3.323  17.206  0.00  0.00    +0.113 C 
ATOM      6  S   LIG    1       44.117  -4.541  16.088  0.00  0.00    -0.028 S 
ATOM      7  N   LIG    1       43.178  -2.462  17.449  0.00  0.00    -0.274 N 
ATOM      8  H   LIG    1       42.305  -2.527  16.947  0.00  0.00    +0.156 HD
ENDROOT
TORSDOF 0
ENDMDL
MODEL 9
REMARK VINA RESULT:      -3.6      2.312      2.471
REMARK  Name = 
REMARK                            x       y       z     vdW  Elec       q    Type
REMARK                         _______ _______ _______ _____ _____    ______ ____
ROOT
ATOM      1  O   LIG    1       45.789  -2.932  18.841  0.00  0.00    -0.275 OA
ATOM      2  C   LIG    1       45.091  -3.364  17.933  0.00  0.00    +0.228 C 
ATOM      3  C   LIG    1       45.432  -4.564  17.086  0.00  0.00    +0.172 C 
ATOM      4  S   LIG    1       44.057  -4.742  15.917  0.00  0.00    -0.093 S 
ATOM      5  C   LIG    1       43.203  -3.362  16.549  0.00  0.00    +0.113 C 
ATOM      6  S   LIG    1       41.749  -2.780  16.012  0.00  0.00    -0.028 S 
ATOM      7  N   LIG    1       43.901  -2.804  17.570  0.00  0.00    -0.274 N 
ATOM      8  H   LIG    1       43.556  -1.991  18.058  0.00  0.00    +0.156 HD
ENDROOT
TORSDOF 0
ENDMDL
