MODEL 1
REMARK VINA RESULT:      -3.4      0.000      0.000
REMARK  Name = 
REMARK                            x       y       z     vdW  Elec       q    Type
REMARK                         _______ _______ _______ _____ _____    ______ ____
ROOT
ATOM      1  O   LIG    1       27.169  -3.764  27.465  0.00  0.00    -0.275 OA
ATOM      2  C   LIG    1       27.993  -2.911  27.163  0.00  0.00    +0.228 C 
ATOM      3  C   LIG    1       27.660  -1.581  26.538  0.00  0.00    +0.172 C 
ATOM      4  S   LIG    1       29.249  -0.734  26.315  0.00  0.00    -0.093 S 
ATOM      5  C   LIG    1       30.165  -2.053  26.989  0.00  0.00    +0.113 C 
ATOM      6  S   LIG    1       31.809  -2.112  27.171  0.00  0.00    -0.028 S 
ATOM      7  N   LIG    1       29.336  -3.062  27.358  0.00  0.00    -0.274 N 
ATOM      8  H   LIG    1       29.693  -3.911  27.770  0.00  0.00    +0.156 HD
ENDROOT
TORSDOF 0
ENDMDL
MODEL 2
REMARK VINA RESULT:      -3.3      2.645      3.076
REMARK  Name = 
REMARK                            x       y       z     vdW  Elec       q    Type
REMARK                         _______ _______ _______ _____ _____    ______ ____
ROOT
ATOM      1  O   LIG    1       25.314  -0.662  26.589  0.00  0.00    -0.275 OA
ATOM      2  C   LIG    1       26.519  -0.670  26.802  0.00  0.00    +0.228 C 
ATOM      3  C   LIG    1       27.447  -1.800  26.438  0.00  0.00    +0.172 C 
ATOM      4  S   LIG    1       29.096  -1.271  26.979  0.00  0.00    -0.093 S 
ATOM      5  C   LIG    1       28.519   0.253  27.594  0.00  0.00    +0.113 C 
ATOM      6  S   LIG    1       29.437   1.429  28.313  0.00  0.00    -0.028 S 
ATOM      7  N   LIG    1       27.180   0.360  27.406  0.00  0.00    -0.274 N 
ATOM      8  H   LIG    1       26.673   1.181  27.702  0.00  0.00    +0.156 HD
ENDROOT
TORSDOF 0
ENDMDL
MODEL 3
REMARK VINA RESULT:      -3.3      2.421      2.576
REMARK  Name = 
REMARK                            x       y       z     vdW  Elec       q    Type
REMARK                         _______ _______ _______ _____ _____    ______ ____
ROOT
ATOM      1  O   LIG    1       25.741  -0.614  26.635  0.00  0.00    -0.275 OA
ATOM      2  C   LIG    1       26.849  -0.342  27.078  0.00  0.00    +0.228 C 
ATOM      3  C   LIG    1       27.332   1.054  27.379  0.00  0.00    +0.172 C 
ATOM      4  S   LIG    1       29.023   0.860  28.007  0.00  0.00    -0.093 S 
ATOM      5  C   LIG    1       28.995  -0.875  27.846  0.00  0.00    +0.113 C 
ATOM      6  S   LIG    1       30.228  -1.913  28.225  0.00  0.00    -0.028 S 
ATOM      7  N   LIG    1       27.798  -1.283  27.357  0.00  0.00    -0.274 N 
ATOM      8  H   LIG    1       27.601  -2.260  27.198  0.00  0.00    +0.156 HD
ENDROOT
TORSDOF 0
ENDMDL
MODEL 4
REMARK VINA RESULT:      -3.3      6.101      6.913
REMARK  Name = 
REMARK                            x       y       z     vdW  Elec       q    Type
REMARK                         _______ _______ _______ _____ _____    ______ ____
ROOT
ATOM      1  O   LIG    1       35.190   2.167  27.614  0.00  0.00    -0.275 OA
ATOM      2  C   LIG    1       34.283   1.822  28.360  0.00  0.00    +0.228 C 
ATOM      3  C   LIG    1       34.477   1.296  29.759  0.00  0.00    +0.172 C 
ATOM      4  S   LIG    1       32.810   0.951  30.386  0.00  0.00    -0.093 S 
ATOM      5  C   LIG    1       32.036   1.464  28.913  0.00  0.00    +0.113 C 
ATOM      6  S   LIG    1       30.408   1.474  28.613  0.00  0.00    -0.028 S 
ATOM      7  N   LIG    1       32.964   1.870  28.010  0.00  0.00    -0.274 N 
ATOM      8  H   LIG    1       32.697   2.203  27.096  0.00  0.00    +0.156 HD
ENDROOT
TORSDOF 0
ENDMDL
MODEL 5
REMARK VINA RESULT:      -3.3      6.038      6.598
REMARK  Name = 
REMARK                            x       y       z     vdW  Elec       q    Type
REMARK                         _______ _______ _______ _____ _____    ______ ____
ROOT
ATOM      1  O   LIG    1       33.172   2.218  26.150  0.00  0.00    -0.275 OA
ATOM      2  C   LIG    1       33.458   1.850  27.281  0.00  0.00    +0.228 C 
ATOM      3  C   LIG    1       34.829   1.958  27.897  0.00  0.00    +0.172 C 
ATOM      4  S   LIG    1       34.670   1.270  29.569  0.00  0.00    -0.093 S 
ATOM      5  C   LIG    1       32.976   0.915  29.373  0.00  0.00    +0.113 C 
ATOM      6  S   LIG    1       31.983   0.223  30.503  0.00  0.00    -0.028 S 
ATOM      7  N   LIG    1       32.556   1.287  28.138  0.00  0.00    -0.274 N 
ATOM      8  H   LIG    1       31.599   1.157  27.847  0.00  0.00    +0.156 HD
ENDROOT
TORSDOF 0
ENDMDL
MODEL 6
REMARK VINA RESULT:      -3.2      2.760      2.928
REMARK  Name = 
REMARK                            x       y       z     vdW  Elec       q    Type
REMARK                         _______ _______ _______ _____ _____    ______ ____
ROOT
ATOM      1  O   LIG    1       27.238   1.524  27.552  0.00  0.00    -0.275 OA
ATOM      2  C   LIG    1       27.477   0.347  27.314  0.00  0.00    +0.228 C 
ATOM      3  C   LIG    1       26.442  -0.675  26.919  0.00  0.00    +0.172 C 
ATOM      4  S   LIG    1       27.352  -2.228  26.690  0.00  0.00    -0.093 S 
ATOM      5  C   LIG    1       28.887  -1.509  27.093  0.00  0.00    +0.113 C 
ATOM      6  S   LIG    1       30.350  -2.282  27.134  0.00  0.00    -0.028 S 
ATOM      7  N   LIG    1       28.729  -0.192  27.378  0.00  0.00    -0.274 N 
ATOM      8  H   LIG    1       29.515   0.388  27.633  0.00  0.00    +0.156 HD
ENDROOT
TORSDOF 0
ENDMDL
MODEL 7
REMARK VINA RESULT:      -3.2      3.423      3.675
REMARK  Name = 
REMARK                            x       y       z     vdW  Elec       q    Type
REMARK                         _______ _______ _______ _____ _____    ______ ____
ROOT
ATOM      1  O   LIG    1       29.556   1.985  28.434  0.00  0.00    -0.275 OA
ATOM      2  C   LIG    1       28.865   1.054  28.044  0.00  0.00    +0.228 C 
ATOM      3  C   LIG    1       27.522   1.204  27.377  0.00  0.00    +0.172 C 
ATOM      4  S   LIG    1       26.964  -0.484  27.015  0.00  0.00    -0.093 S 
ATOM      5  C   LIG    1       28.391  -1.213  27.700  0.00  0.00    +0.113 C 
ATOM      6  S   LIG    1       28.716  -2.834  27.789  0.00  0.00    -0.028 S 
ATOM      7  N   LIG    1       29.230  -0.256  28.168  0.00  0.00    -0.274 N 
ATOM      8  H   LIG    1       30.110  -0.495  28.600  0.00  0.00    +0.156 HD
ENDROOT
TORSDOF 0
ENDMDL
MODEL 8
REMARK VINA RESULT:      -3.2      5.675      6.357
REMARK  Name = 
REMARK                            x       y       z     vdW  Elec       q    Type
REMARK                         _______ _______ _______ _____ _____    ______ ____
ROOT
ATOM      1  O   LIG    1       34.940   1.259  29.827  0.00  0.00    -0.275 OA
ATOM      2  C   LIG    1       34.373   1.238  28.743  0.00  0.00    +0.228 C 
ATOM      3  C   LIG    1       34.268   2.416  27.809  0.00  0.00    +0.172 C 
ATOM      4  S   LIG    1       33.337   1.817  26.371  0.00  0.00    -0.093 S 
ATOM      5  C   LIG    1       33.157   0.212  27.025  0.00  0.00    +0.113 C 
ATOM      6  S   LIG    1       32.377  -1.057  26.304  0.00  0.00    -0.028 S 
ATOM      7  N   LIG    1       33.756   0.129  28.239  0.00  0.00    -0.274 N 
ATOM      8  H   LIG    1       33.753  -0.730  28.769  0.00  0.00    +0.156 HD
ENDROOT
TORSDOF 0
ENDMDL
MODEL 9
REMARK VINA RESULT:      -3.2      3.205      3.890
REMARK  Name = 
REMARK                            x       y       z     vdW  Elec       q    Type
REMARK                         _______ _______ _______ _____ _____    ______ ____
ROOT
ATOM      1  O   LIG    1       33.164  -3.284  24.999  0.00  0.00    -0.275 OA
ATOM      2  C   LIG    1       32.422  -2.562  25.650  0.00  0.00    +0.228 C 
ATOM      3  C   LIG    1       32.572  -1.067  25.773  0.00  0.00    +0.172 C 
ATOM      4  S   LIG    1       31.209  -0.526  26.843  0.00  0.00    -0.093 S 
ATOM      5  C   LIG    1       30.589  -2.141  27.046  0.00  0.00    +0.113 C 
ATOM      6  S   LIG    1       29.266  -2.577  27.940  0.00  0.00    -0.028 S 
ATOM      7  N   LIG    1       31.351  -3.028  26.357  0.00  0.00    -0.274 N 
ATOM      8  H   LIG    1       31.139  -4.014  26.359  0.00  0.00    +0.156 HD
ENDROOT
TORSDOF 0
ENDMDL
