MODEL 1
REMARK VINA RESULT:      -3.9      0.000      0.000
REMARK  Name = 
REMARK                            x       y       z     vdW  Elec       q    Type
REMARK                         _______ _______ _______ _____ _____    ______ ____
ROOT
ATOM      1  O   LIG    1       65.002  57.480  88.540  0.00  0.00    -0.275 OA
ATOM      2  C   LIG    1       65.927  56.679  88.506  0.00  0.00    +0.228 C 
ATOM      3  C   LIG    1       66.298  55.750  89.633  0.00  0.00    +0.172 C 
ATOM      4  S   LIG    1       67.725  54.802  89.034  0.00  0.00    -0.093 S 
ATOM      5  C   LIG    1       67.746  55.610  87.491  0.00  0.00    +0.113 C 
ATOM      6  S   LIG    1       68.809  55.330  86.254  0.00  0.00    -0.028 S 
ATOM      7  N   LIG    1       66.750  56.528  87.427  0.00  0.00    -0.274 N 
ATOM      8  H   LIG    1       66.609  57.094  86.604  0.00  0.00    +0.156 HD
ENDROOT
TORSDOF 0
ENDMDL
MODEL 2
REMARK VINA RESULT:      -3.8      2.238      2.625
REMARK  Name = 
REMARK                            x       y       z     vdW  Elec       q    Type
REMARK                         _______ _______ _______ _____ _____    ______ ____
ROOT
ATOM      1  O   LIG    1       66.770  55.125  90.039  0.00  0.00    -0.275 OA
ATOM      2  C   LIG    1       67.448  55.135  89.020  0.00  0.00    +0.228 C 
ATOM      3  C   LIG    1       67.057  55.821  87.736  0.00  0.00    +0.172 C 
ATOM      4  S   LIG    1       68.423  55.514  86.583  0.00  0.00    -0.093 S 
ATOM      5  C   LIG    1       69.334  54.590  87.744  0.00  0.00    +0.113 C 
ATOM      6  S   LIG    1       70.811  53.885  87.494  0.00  0.00    -0.028 S 
ATOM      7  N   LIG    1       68.661  54.517  88.920  0.00  0.00    -0.274 N 
ATOM      8  H   LIG    1       69.040  54.019  89.712  0.00  0.00    +0.156 HD
ENDROOT
TORSDOF 0
ENDMDL
MODEL 3
REMARK VINA RESULT:      -3.8      9.077      9.672
REMARK  Name = 
REMARK                            x       y       z     vdW  Elec       q    Type
REMARK                         _______ _______ _______ _____ _____    ______ ____
ROOT
ATOM      1  O   LIG    1       66.636  47.679  92.351  0.00  0.00    -0.275 OA
ATOM      2  C   LIG    1       67.511  48.306  92.932  0.00  0.00    +0.228 C 
ATOM      3  C   LIG    1       68.775  48.814  92.286  0.00  0.00    +0.172 C 
ATOM      4  S   LIG    1       69.690  49.662  93.604  0.00  0.00    -0.093 S 
ATOM      5  C   LIG    1       68.475  49.326  94.806  0.00  0.00    +0.113 C 
ATOM      6  S   LIG    1       68.523  49.776  96.399  0.00  0.00    -0.028 S 
ATOM      7  N   LIG    1       67.451  48.626  94.258  0.00  0.00    -0.274 N 
ATOM      8  H   LIG    1       66.654  48.343  94.809  0.00  0.00    +0.156 HD
ENDROOT
TORSDOF 0
ENDMDL
MODEL 4
REMARK VINA RESULT:      -3.7      2.665      2.907
REMARK  Name = 
REMARK                            x       y       z     vdW  Elec       q    Type
REMARK                         _______ _______ _______ _____ _____    ______ ____
ROOT
ATOM      1  O   LIG    1       67.301  56.049  86.496  0.00  0.00    -0.275 OA
ATOM      2  C   LIG    1       68.250  55.791  87.225  0.00  0.00    +0.228 C 
ATOM      3  C   LIG    1       68.451  56.362  88.605  0.00  0.00    +0.172 C 
ATOM      4  S   LIG    1       70.000  55.639  89.212  0.00  0.00    -0.093 S 
ATOM      5  C   LIG    1       70.265  54.722  87.754  0.00  0.00    +0.113 C 
ATOM      6  S   LIG    1       71.543  53.717  87.448  0.00  0.00    -0.028 S 
ATOM      7  N   LIG    1       69.258  54.941  86.871  0.00  0.00    -0.274 N 
ATOM      8  H   LIG    1       69.244  54.491  85.969  0.00  0.00    +0.156 HD
ENDROOT
TORSDOF 0
ENDMDL
MODEL 5
REMARK VINA RESULT:      -3.6     11.061     11.672
REMARK  Name = 
REMARK                            x       y       z     vdW  Elec       q    Type
REMARK                         _______ _______ _______ _____ _____    ______ ____
ROOT
ATOM      1  O   LIG    1       69.777  47.571  98.684  0.00  0.00    -0.275 OA
ATOM      2  C   LIG    1       69.283  48.217  97.770  0.00  0.00    +0.228 C 
ATOM      3  C   LIG    1       67.897  48.808  97.788  0.00  0.00    +0.172 C 
ATOM      4  S   LIG    1       67.704  49.650  96.192  0.00  0.00    -0.093 S 
ATOM      5  C   LIG    1       69.301  49.214  95.651  0.00  0.00    +0.113 C 
ATOM      6  S   LIG    1       69.983  49.608  94.195  0.00  0.00    -0.028 S 
ATOM      7  N   LIG    1       69.938  48.486  96.602  0.00  0.00    -0.274 N 
ATOM      8  H   LIG    1       70.878  48.146  96.461  0.00  0.00    +0.156 HD
ENDROOT
TORSDOF 0
ENDMDL
MODEL 6
REMARK VINA RESULT:      -3.6      9.082      9.856
REMARK  Name = 
REMARK                            x       y       z     vdW  Elec       q    Type
REMARK                         _______ _______ _______ _____ _____    ______ ____
ROOT
ATOM      1  O   LIG    1       70.325  50.255  93.744  0.00  0.00    -0.275 OA
ATOM      2  C   LIG    1       69.333  49.548  93.627  0.00  0.00    +0.228 C 
ATOM      3  C   LIG    1       68.716  49.151  92.310  0.00  0.00    +0.172 C 
ATOM      4  S   LIG    1       67.290  48.111  92.734  0.00  0.00    -0.093 S 
ATOM      5  C   LIG    1       67.565  48.252  94.449  0.00  0.00    +0.113 C 
ATOM      6  S   LIG    1       66.656  47.560  95.646  0.00  0.00    -0.028 S 
ATOM      7  N   LIG    1       68.653  49.026  94.689  0.00  0.00    -0.274 N 
ATOM      8  H   LIG    1       68.964  49.218  95.629  0.00  0.00    +0.156 HD
ENDROOT
TORSDOF 0
ENDMDL
MODEL 7
REMARK VINA RESULT:      -3.5     14.714     15.224
REMARK  Name = 
REMARK                            x       y       z     vdW  Elec       q    Type
REMARK                         _______ _______ _______ _____ _____    ______ ____
ROOT
ATOM      1  O   LIG    1       67.920  45.298 101.593  0.00  0.00    -0.275 OA
ATOM      2  C   LIG    1       68.232  45.980 100.626  0.00  0.00    +0.228 C 
ATOM      3  C   LIG    1       68.399  45.453  99.224  0.00  0.00    +0.172 C 
ATOM      4  S   LIG    1       68.858  46.890  98.215  0.00  0.00    -0.093 S 
ATOM      5  C   LIG    1       68.811  47.986  99.567  0.00  0.00    +0.113 C 
ATOM      6  S   LIG    1       69.127  49.610  99.522  0.00  0.00    -0.028 S 
ATOM      7  N   LIG    1       68.473  47.322 100.700  0.00  0.00    -0.274 N 
ATOM      8  H   LIG    1       68.396  47.799 101.586  0.00  0.00    +0.156 HD
ENDROOT
TORSDOF 0
ENDMDL
MODEL 8
REMARK VINA RESULT:      -3.5     11.090     11.710
REMARK  Name = 
REMARK                            x       y       z     vdW  Elec       q    Type
REMARK                         _______ _______ _______ _____ _____    ______ ____
ROOT
ATOM      1  O   LIG    1       70.541  49.732  94.189  0.00  0.00    -0.275 OA
ATOM      2  C   LIG    1       70.036  48.855  94.877  0.00  0.00    +0.228 C 
ATOM      3  C   LIG    1       69.306  47.653  94.334  0.00  0.00    +0.172 C 
ATOM      4  S   LIG    1       68.781  46.703  95.788  0.00  0.00    -0.093 S 
ATOM      5  C   LIG    1       69.483  47.836  96.911  0.00  0.00    +0.113 C 
ATOM      6  S   LIG    1       69.457  47.721  98.562  0.00  0.00    -0.028 S 
ATOM      7  N   LIG    1       70.073  48.858  96.242  0.00  0.00    -0.274 N 
ATOM      8  H   LIG    1       70.532  49.610  96.732  0.00  0.00    +0.156 HD
ENDROOT
TORSDOF 0
ENDMDL
MODEL 9
REMARK VINA RESULT:      -3.5      3.456      4.043
REMARK  Name = 
REMARK                            x       y       z     vdW  Elec       q    Type
REMARK                         _______ _______ _______ _____ _____    ______ ____
ROOT
ATOM      1  O   LIG    1       69.706  56.511  89.344  0.00  0.00    -0.275 OA
ATOM      2  C   LIG    1       69.824  55.687  88.447  0.00  0.00    +0.228 C 
ATOM      3  C   LIG    1       68.843  55.502  87.317  0.00  0.00    +0.172 C 
ATOM      4  S   LIG    1       69.519  54.162  86.298  0.00  0.00    -0.093 S 
ATOM      5  C   LIG    1       70.912  53.945  87.322  0.00  0.00    +0.113 C 
ATOM      6  S   LIG    1       72.128  52.845  87.100  0.00  0.00    -0.028 S 
ATOM      7  N   LIG    1       70.875  54.820  88.358  0.00  0.00    -0.274 N 
ATOM      8  H   LIG    1       71.604  54.839  89.056  0.00  0.00    +0.156 HD
ENDROOT
TORSDOF 0
ENDMDL
