MODEL 1
REMARK VINA RESULT:      -4.0      0.000      0.000
REMARK  Name = 
REMARK                            x       y       z     vdW  Elec       q    Type
REMARK                         _______ _______ _______ _____ _____    ______ ____
ROOT
ATOM      1  O   LIG    1       38.257  38.408   5.370  0.00  0.00    -0.275 OA
ATOM      2  C   LIG    1       37.965  37.229   5.221  0.00  0.00    +0.228 C 
ATOM      3  C   LIG    1       37.253  36.668   4.017  0.00  0.00    +0.172 C 
ATOM      4  S   LIG    1       37.088  34.889   4.332  0.00  0.00    -0.093 S 
ATOM      5  C   LIG    1       37.885  34.983   5.878  0.00  0.00    +0.113 C 
ATOM      6  S   LIG    1       38.175  33.721   6.910  0.00  0.00    -0.028 S 
ATOM      7  N   LIG    1       38.252  36.263   6.141  0.00  0.00    -0.274 N 
ATOM      8  H   LIG    1       38.729  36.507   6.997  0.00  0.00    +0.156 HD
ENDROOT
TORSDOF 0
ENDMDL
MODEL 2
REMARK VINA RESULT:      -3.7     13.033     13.614
REMARK  Name = 
REMARK                            x       y       z     vdW  Elec       q    Type
REMARK                         _______ _______ _______ _____ _____    ______ ____
ROOT
ATOM      1  O   LIG    1       43.291  24.582  14.076  0.00  0.00    -0.275 OA
ATOM      2  C   LIG    1       42.650  24.966  13.107  0.00  0.00    +0.228 C 
ATOM      3  C   LIG    1       41.145  24.980  13.026  0.00  0.00    +0.172 C 
ATOM      4  S   LIG    1       40.750  25.643  11.384  0.00  0.00    -0.093 S 
ATOM      5  C   LIG    1       42.424  25.839  10.946  0.00  0.00    +0.113 C 
ATOM      6  S   LIG    1       42.998  26.427   9.509  0.00  0.00    -0.028 S 
ATOM      7  N   LIG    1       43.227  25.436  11.963  0.00  0.00    -0.274 N 
ATOM      8  H   LIG    1       44.233  25.478  11.886  0.00  0.00    +0.156 HD
ENDROOT
TORSDOF 0
ENDMDL
MODEL 3
REMARK VINA RESULT:      -3.7     12.176     13.252
REMARK  Name = 
REMARK                            x       y       z     vdW  Elec       q    Type
REMARK                         _______ _______ _______ _____ _____    ______ ____
ROOT
ATOM      1  O   LIG    1       41.047  25.826  15.159  0.00  0.00    -0.275 OA
ATOM      2  C   LIG    1       41.387  25.827  13.983  0.00  0.00    +0.228 C 
ATOM      3  C   LIG    1       42.495  24.981  13.411  0.00  0.00    +0.172 C 
ATOM      4  S   LIG    1       42.555  25.385  11.643  0.00  0.00    -0.093 S 
ATOM      5  C   LIG    1       41.250  26.534  11.755  0.00  0.00    +0.113 C 
ATOM      6  S   LIG    1       40.621  27.426  10.511  0.00  0.00    -0.028 S 
ATOM      7  N   LIG    1       40.797  26.608  13.032  0.00  0.00    -0.274 N 
ATOM      8  H   LIG    1       40.040  27.225  13.285  0.00  0.00    +0.156 HD
ENDROOT
TORSDOF 0
ENDMDL
MODEL 4
REMARK VINA RESULT:      -3.7     12.053     12.772
REMARK  Name = 
REMARK                            x       y       z     vdW  Elec       q    Type
REMARK                         _______ _______ _______ _____ _____    ______ ____
ROOT
ATOM      1  O   LIG    1       41.435  24.780  13.653  0.00  0.00    -0.275 OA
ATOM      2  C   LIG    1       41.326  25.181  12.502  0.00  0.00    +0.228 C 
ATOM      3  C   LIG    1       42.468  25.309  11.527  0.00  0.00    +0.172 C 
ATOM      4  S   LIG    1       41.733  25.942   9.994  0.00  0.00    -0.093 S 
ATOM      5  C   LIG    1       40.126  25.998  10.665  0.00  0.00    +0.113 C 
ATOM      6  S   LIG    1       38.755  26.496   9.882  0.00  0.00    -0.028 S 
ATOM      7  N   LIG    1       40.139  25.570  11.952  0.00  0.00    -0.274 N 
ATOM      8  H   LIG    1       39.293  25.534  12.502  0.00  0.00    +0.156 HD
ENDROOT
TORSDOF 0
ENDMDL
MODEL 5
REMARK VINA RESULT:      -3.7     12.345     13.184
REMARK  Name = 
REMARK                            x       y       z     vdW  Elec       q    Type
REMARK                         _______ _______ _______ _____ _____    ______ ____
ROOT
ATOM      1  O   LIG    1       42.765  25.010  10.748  0.00  0.00    -0.275 OA
ATOM      2  C   LIG    1       42.388  25.505  11.801  0.00  0.00    +0.228 C 
ATOM      3  C   LIG    1       42.320  24.773  13.117  0.00  0.00    +0.172 C 
ATOM      4  S   LIG    1       41.700  25.984  14.318  0.00  0.00    -0.093 S 
ATOM      5  C   LIG    1       41.577  27.253  13.131  0.00  0.00    +0.113 C 
ATOM      6  S   LIG    1       41.054  28.800  13.403  0.00  0.00    -0.028 S 
ATOM      7  N   LIG    1       41.975  26.802  11.916  0.00  0.00    -0.274 N 
ATOM      8  H   LIG    1       41.970  27.402  11.105  0.00  0.00    +0.156 HD
ENDROOT
TORSDOF 0
ENDMDL
MODEL 6
REMARK VINA RESULT:      -3.6      3.865      4.460
REMARK  Name = 
REMARK                            x       y       z     vdW  Elec       q    Type
REMARK                         _______ _______ _______ _____ _____    ______ ____
ROOT
ATOM      1  O   LIG    1       36.132  34.083   9.202  0.00  0.00    -0.275 OA
ATOM      2  C   LIG    1       37.068  33.659   8.538  0.00  0.00    +0.228 C 
ATOM      3  C   LIG    1       37.655  34.359   7.339  0.00  0.00    +0.172 C 
ATOM      4  S   LIG    1       39.002  33.289   6.761  0.00  0.00    -0.093 S 
ATOM      5  C   LIG    1       38.734  32.101   8.007  0.00  0.00    +0.113 C 
ATOM      6  S   LIG    1       39.587  30.699   8.223  0.00  0.00    -0.028 S 
ATOM      7  N   LIG    1       37.705  32.481   8.805  0.00  0.00    -0.274 N 
ATOM      8  H   LIG    1       37.407  31.913   9.584  0.00  0.00    +0.156 HD
ENDROOT
TORSDOF 0
ENDMDL
MODEL 7
REMARK VINA RESULT:      -3.6     12.029     12.399
REMARK  Name = 
REMARK                            x       y       z     vdW  Elec       q    Type
REMARK                         _______ _______ _______ _____ _____    ______ ____
ROOT
ATOM      1  O   LIG    1       38.979  26.162   9.914  0.00  0.00    -0.275 OA
ATOM      2  C   LIG    1       40.023  25.984  10.526  0.00  0.00    +0.228 C 
ATOM      3  C   LIG    1       41.374  25.804   9.883  0.00  0.00    +0.172 C 
ATOM      4  S   LIG    1       42.542  25.585  11.254  0.00  0.00    -0.093 S 
ATOM      5  C   LIG    1       41.302  25.726  12.470  0.00  0.00    +0.113 C 
ATOM      6  S   LIG    1       41.523  25.636  14.108  0.00  0.00    -0.028 S 
ATOM      7  N   LIG    1       40.093  25.926  11.889  0.00  0.00    -0.274 N 
ATOM      8  H   LIG    1       39.256  26.031  12.441  0.00  0.00    +0.156 HD
ENDROOT
TORSDOF 0
ENDMDL
MODEL 8
REMARK VINA RESULT:      -3.5     12.029     12.641
REMARK  Name = 
REMARK                            x       y       z     vdW  Elec       q    Type
REMARK                         _______ _______ _______ _____ _____    ______ ____
ROOT
ATOM      1  O   LIG    1       45.215  26.665   9.790  0.00  0.00    -0.275 OA
ATOM      2  C   LIG    1       44.074  26.366  10.118  0.00  0.00    +0.228 C 
ATOM      3  C   LIG    1       42.862  26.514   9.234  0.00  0.00    +0.172 C 
ATOM      4  S   LIG    1       41.462  25.921  10.224  0.00  0.00    -0.093 S 
ATOM      5  C   LIG    1       42.458  25.555  11.605  0.00  0.00    +0.113 C 
ATOM      6  S   LIG    1       41.941  24.930  13.048  0.00  0.00    -0.028 S 
ATOM      7  N   LIG    1       43.755  25.855  11.342  0.00  0.00    -0.274 N 
ATOM      8  H   LIG    1       44.478  25.707  12.031  0.00  0.00    +0.156 HD
ENDROOT
TORSDOF 0
ENDMDL
MODEL 9
REMARK VINA RESULT:      -3.5      4.853      5.873
REMARK  Name = 
REMARK                            x       y       z     vdW  Elec       q    Type
REMARK                         _______ _______ _______ _____ _____    ______ ____
ROOT
ATOM      1  O   LIG    1       41.167  30.241   5.251  0.00  0.00    -0.275 OA
ATOM      2  C   LIG    1       40.478  30.843   6.064  0.00  0.00    +0.228 C 
ATOM      3  C   LIG    1       40.072  30.301   7.410  0.00  0.00    +0.172 C 
ATOM      4  S   LIG    1       39.074  31.606   8.180  0.00  0.00    -0.093 S 
ATOM      5  C   LIG    1       39.233  32.678   6.816  0.00  0.00    +0.113 C 
ATOM      6  S   LIG    1       38.579  34.192   6.679  0.00  0.00    -0.028 S 
ATOM      7  N   LIG    1       39.986  32.098   5.848  0.00  0.00    -0.274 N 
ATOM      8  H   LIG    1       40.185  32.575   4.981  0.00  0.00    +0.156 HD
ENDROOT
TORSDOF 0
ENDMDL
