MODEL 1
REMARK VINA RESULT:      -3.6      0.000      0.000
REMARK  Name = 
REMARK                            x       y       z     vdW  Elec       q    Type
REMARK                         _______ _______ _______ _____ _____    ______ ____
ROOT
ATOM      1  O   LIG    1        1.749   5.495  21.828  0.00  0.00    -0.275 OA
ATOM      2  C   LIG    1        2.355   4.435  21.742  0.00  0.00    +0.228 C 
ATOM      3  C   LIG    1        2.842   3.628  22.918  0.00  0.00    +0.172 C 
ATOM      4  S   LIG    1        3.659   2.173  22.206  0.00  0.00    -0.093 S 
ATOM      5  C   LIG    1        3.344   2.668  20.566  0.00  0.00    +0.113 C 
ATOM      6  S   LIG    1        3.785   1.853  19.195  0.00  0.00    -0.028 S 
ATOM      7  N   LIG    1        2.670   3.846  20.552  0.00  0.00    -0.274 N 
ATOM      8  H   LIG    1        2.401   4.286  19.684  0.00  0.00    +0.156 HD
ENDROOT
TORSDOF 0
ENDMDL
MODEL 2
REMARK VINA RESULT:      -3.6      1.804      2.306
REMARK  Name = 
REMARK                            x       y       z     vdW  Elec       q    Type
REMARK                         _______ _______ _______ _____ _____    ______ ____
ROOT
ATOM      1  O   LIG    1        1.803   5.061  21.677  0.00  0.00    -0.275 OA
ATOM      2  C   LIG    1        2.228   3.936  21.904  0.00  0.00    +0.228 C 
ATOM      3  C   LIG    1        3.682   3.543  21.851  0.00  0.00    +0.172 C 
ATOM      4  S   LIG    1        3.727   1.779  22.275  0.00  0.00    -0.093 S 
ATOM      5  C   LIG    1        1.999   1.676  22.472  0.00  0.00    +0.113 C 
ATOM      6  S   LIG    1        1.139   0.323  22.884  0.00  0.00    -0.028 S 
ATOM      7  N   LIG    1        1.426   2.883  22.238  0.00  0.00    -0.274 N 
ATOM      8  H   LIG    1        0.427   3.013  22.307  0.00  0.00    +0.156 HD
ENDROOT
TORSDOF 0
ENDMDL
MODEL 3
REMARK VINA RESULT:      -3.5      7.324      7.637
REMARK  Name = 
REMARK                            x       y       z     vdW  Elec       q    Type
REMARK                         _______ _______ _______ _____ _____    ______ ____
ROOT
ATOM      1  O   LIG    1       -0.341  -2.709  27.090  0.00  0.00    -0.275 OA
ATOM      2  C   LIG    1        0.133  -2.787  25.965  0.00  0.00    +0.228 C 
ATOM      3  C   LIG    1        0.401  -4.079  25.235  0.00  0.00    +0.172 C 
ATOM      4  S   LIG    1        1.093  -3.597  23.629  0.00  0.00    -0.093 S 
ATOM      5  C   LIG    1        1.001  -1.894  23.982  0.00  0.00    +0.113 C 
ATOM      6  S   LIG    1        1.464  -0.660  22.981  0.00  0.00    -0.028 S 
ATOM      7  N   LIG    1        0.484  -1.698  25.221  0.00  0.00    -0.274 N 
ATOM      8  H   LIG    1        0.357  -0.769  25.595  0.00  0.00    +0.156 HD
ENDROOT
TORSDOF 0
ENDMDL
MODEL 4
REMARK VINA RESULT:      -3.5      1.768      1.822
REMARK  Name = 
REMARK                            x       y       z     vdW  Elec       q    Type
REMARK                         _______ _______ _______ _____ _____    ______ ____
ROOT
ATOM      1  O   LIG    1        3.647   4.662  20.335  0.00  0.00    -0.275 OA
ATOM      2  C   LIG    1        3.514   3.666  21.033  0.00  0.00    +0.228 C 
ATOM      3  C   LIG    1        3.220   3.688  22.511  0.00  0.00    +0.172 C 
ATOM      4  S   LIG    1        3.126   1.948  23.017  0.00  0.00    -0.093 S 
ATOM      5  C   LIG    1        3.452   1.356  21.411  0.00  0.00    +0.113 C 
ATOM      6  S   LIG    1        3.552  -0.232  20.955  0.00  0.00    -0.028 S 
ATOM      7  N   LIG    1        3.618   2.392  20.552  0.00  0.00    -0.274 N 
ATOM      8  H   LIG    1        3.815   2.238  19.575  0.00  0.00    +0.156 HD
ENDROOT
TORSDOF 0
ENDMDL
MODEL 5
REMARK VINA RESULT:      -3.4      2.837      3.518
REMARK  Name = 
REMARK                            x       y       z     vdW  Elec       q    Type
REMARK                         _______ _______ _______ _____ _____    ______ ____
ROOT
ATOM      1  O   LIG    1        4.053   1.175  18.152  0.00  0.00    -0.275 OA
ATOM      2  C   LIG    1        3.731   1.541  19.274  0.00  0.00    +0.228 C 
ATOM      3  C   LIG    1        3.721   0.656  20.494  0.00  0.00    +0.172 C 
ATOM      4  S   LIG    1        3.171   1.716  21.861  0.00  0.00    -0.093 S 
ATOM      5  C   LIG    1        3.000   3.119  20.842  0.00  0.00    +0.113 C 
ATOM      6  S   LIG    1        2.505   4.623  21.323  0.00  0.00    -0.028 S 
ATOM      7  N   LIG    1        3.335   2.815  19.563  0.00  0.00    -0.274 N 
ATOM      8  H   LIG    1        3.296   3.509  18.832  0.00  0.00    +0.156 HD
ENDROOT
TORSDOF 0
ENDMDL
MODEL 6
REMARK VINA RESULT:      -3.3      3.485      4.076
REMARK  Name = 
REMARK                            x       y       z     vdW  Elec       q    Type
REMARK                         _______ _______ _______ _____ _____    ______ ____
ROOT
ATOM      1  O   LIG    1        4.575  -0.240  20.482  0.00  0.00    -0.275 OA
ATOM      2  C   LIG    1        3.750   0.294  21.211  0.00  0.00    +0.228 C 
ATOM      3  C   LIG    1        2.503  -0.375  21.729  0.00  0.00    +0.172 C 
ATOM      4  S   LIG    1        1.669   0.871  22.751  0.00  0.00    -0.093 S 
ATOM      5  C   LIG    1        2.890   2.078  22.459  0.00  0.00    +0.113 C 
ATOM      6  S   LIG    1        2.905   3.620  23.060  0.00  0.00    -0.028 S 
ATOM      7  N   LIG    1        3.860   1.581  21.651  0.00  0.00    -0.274 N 
ATOM      8  H   LIG    1        4.652   2.143  21.375  0.00  0.00    +0.156 HD
ENDROOT
TORSDOF 0
ENDMDL
MODEL 7
REMARK VINA RESULT:      -3.3      3.285      3.475
REMARK  Name = 
REMARK                            x       y       z     vdW  Elec       q    Type
REMARK                         _______ _______ _______ _____ _____    ______ ____
ROOT
ATOM      1  O   LIG    1        3.845   2.527  22.404  0.00  0.00    -0.275 OA
ATOM      2  C   LIG    1        3.617   1.401  21.983  0.00  0.00    +0.228 C 
ATOM      3  C   LIG    1        2.336   0.642  22.216  0.00  0.00    +0.172 C 
ATOM      4  S   LIG    1        2.549  -0.949  21.371  0.00  0.00    -0.093 S 
ATOM      5  C   LIG    1        4.155  -0.558  20.819  0.00  0.00    +0.113 C 
ATOM      6  S   LIG    1        5.142  -1.529  19.912  0.00  0.00    -0.028 S 
ATOM      7  N   LIG    1        4.508   0.683  21.238  0.00  0.00    -0.274 N 
ATOM      8  H   LIG    1        5.408   1.078  21.011  0.00  0.00    +0.156 HD
ENDROOT
TORSDOF 0
ENDMDL
MODEL 8
REMARK VINA RESULT:      -3.3     12.549     13.086
REMARK  Name = 
REMARK                            x       y       z     vdW  Elec       q    Type
REMARK                         _______ _______ _______ _____ _____    ______ ____
ROOT
ATOM      1  O   LIG    1        6.941  -3.748  32.838  0.00  0.00    -0.275 OA
ATOM      2  C   LIG    1        7.493  -4.036  31.784  0.00  0.00    +0.228 C 
ATOM      3  C   LIG    1        8.918  -4.511  31.664  0.00  0.00    +0.172 C 
ATOM      4  S   LIG    1        9.193  -4.788  29.892  0.00  0.00    -0.093 S 
ATOM      5  C   LIG    1        7.576  -4.304  29.460  0.00  0.00    +0.113 C 
ATOM      6  S   LIG    1        6.945  -4.257  27.930  0.00  0.00    -0.028 S 
ATOM      7  N   LIG    1        6.875  -3.960  30.569  0.00  0.00    -0.274 N 
ATOM      8  H   LIG    1        5.916  -3.653  30.509  0.00  0.00    +0.156 HD
ENDROOT
TORSDOF 0
ENDMDL
MODEL 9
REMARK VINA RESULT:      -3.2      3.738      4.163
REMARK  Name = 
REMARK                            x       y       z     vdW  Elec       q    Type
REMARK                         _______ _______ _______ _____ _____    ______ ____
ROOT
ATOM      1  O   LIG    1        0.704  -0.623  23.700  0.00  0.00    -0.275 OA
ATOM      2  C   LIG    1        1.567  -0.162  22.965  0.00  0.00    +0.228 C 
ATOM      3  C   LIG    1        2.239  -0.922  21.850  0.00  0.00    +0.172 C 
ATOM      4  S   LIG    1        3.414   0.242  21.105  0.00  0.00    -0.093 S 
ATOM      5  C   LIG    1        2.993   1.530  22.200  0.00  0.00    +0.113 C 
ATOM      6  S   LIG    1        3.643   3.052  22.217  0.00  0.00    -0.028 S 
ATOM      7  N   LIG    1        2.035   1.116  23.066  0.00  0.00    -0.274 N 
ATOM      8  H   LIG    1        1.667   1.733  23.775  0.00  0.00    +0.156 HD
ENDROOT
TORSDOF 0
ENDMDL
