MODEL 1
REMARK VINA RESULT:      -3.8      0.000      0.000
REMARK  Name = 
REMARK                            x       y       z     vdW  Elec       q    Type
REMARK                         _______ _______ _______ _____ _____    ______ ____
ROOT
ATOM      1  O   LIG    1       18.990   0.832  22.980  0.00  0.00    -0.275 OA
ATOM      2  C   LIG    1       18.520   1.961  22.975  0.00  0.00    +0.228 C 
ATOM      3  C   LIG    1       19.335   3.228  22.924  0.00  0.00    +0.172 C 
ATOM      4  S   LIG    1       18.129   4.585  22.935  0.00  0.00    -0.093 S 
ATOM      5  C   LIG    1       16.762   3.508  23.004  0.00  0.00    +0.113 C 
ATOM      6  S   LIG    1       15.168   3.951  23.049  0.00  0.00    -0.028 S 
ATOM      7  N   LIG    1       17.180   2.217  23.015  0.00  0.00    -0.274 N 
ATOM      8  H   LIG    1       16.522   1.453  23.053  0.00  0.00    +0.156 HD
ENDROOT
TORSDOF 0
ENDMDL
MODEL 2
REMARK VINA RESULT:      -3.8      2.486      3.097
REMARK  Name = 
REMARK                            x       y       z     vdW  Elec       q    Type
REMARK                         _______ _______ _______ _____ _____    ______ ____
ROOT
ATOM      1  O   LIG    1       15.613   3.539  23.557  0.00  0.00    -0.275 OA
ATOM      2  C   LIG    1       16.722   3.294  23.103  0.00  0.00    +0.228 C 
ATOM      3  C   LIG    1       17.656   4.323  22.519  0.00  0.00    +0.172 C 
ATOM      4  S   LIG    1       19.138   3.407  22.013  0.00  0.00    -0.093 S 
ATOM      5  C   LIG    1       18.500   1.876  22.546  0.00  0.00    +0.113 C 
ATOM      6  S   LIG    1       19.262   0.410  22.447  0.00  0.00    -0.028 S 
ATOM      7  N   LIG    1       17.259   2.039  23.070  0.00  0.00    -0.274 N 
ATOM      8  H   LIG    1       16.734   1.257  23.430  0.00  0.00    +0.156 HD
ENDROOT
TORSDOF 0
ENDMDL
MODEL 3
REMARK VINA RESULT:      -3.7      3.311      3.685
REMARK  Name = 
REMARK                            x       y       z     vdW  Elec       q    Type
REMARK                         _______ _______ _______ _____ _____    ______ ____
ROOT
ATOM      1  O   LIG    1       18.468   5.081  21.904  0.00  0.00    -0.275 OA
ATOM      2  C   LIG    1       18.503   4.858  23.107  0.00  0.00    +0.228 C 
ATOM      3  C   LIG    1       18.621   3.487  23.722  0.00  0.00    +0.172 C 
ATOM      4  S   LIG    1       18.630   3.757  25.517  0.00  0.00    -0.093 S 
ATOM      5  C   LIG    1       18.488   5.486  25.363  0.00  0.00    +0.113 C 
ATOM      6  S   LIG    1       18.419   6.577  26.605  0.00  0.00    -0.028 S 
ATOM      7  N   LIG    1       18.439   5.840  24.054  0.00  0.00    -0.274 N 
ATOM      8  H   LIG    1       18.357   6.806  23.774  0.00  0.00    +0.156 HD
ENDROOT
TORSDOF 0
ENDMDL
MODEL 4
REMARK VINA RESULT:      -3.7     12.795     13.556
REMARK  Name = 
REMARK                            x       y       z     vdW  Elec       q    Type
REMARK                         _______ _______ _______ _____ _____    ______ ____
ROOT
ATOM      1  O   LIG    1        7.144   9.806  27.465  0.00  0.00    -0.275 OA
ATOM      2  C   LIG    1        6.577   8.736  27.641  0.00  0.00    +0.228 C 
ATOM      3  C   LIG    1        5.340   8.550  28.482  0.00  0.00    +0.172 C 
ATOM      4  S   LIG    1        4.945   6.782  28.383  0.00  0.00    -0.093 S 
ATOM      5  C   LIG    1        6.300   6.430  27.346  0.00  0.00    +0.113 C 
ATOM      6  S   LIG    1        6.708   4.945  26.739  0.00  0.00    -0.028 S 
ATOM      7  N   LIG    1        7.002   7.562  27.089  0.00  0.00    -0.274 N 
ATOM      8  H   LIG    1        7.823   7.549  26.503  0.00  0.00    +0.156 HD
ENDROOT
TORSDOF 0
ENDMDL
MODEL 5
REMARK VINA RESULT:      -3.6      2.969      3.391
REMARK  Name = 
REMARK                            x       y       z     vdW  Elec       q    Type
REMARK                         _______ _______ _______ _____ _____    ______ ____
ROOT
ATOM      1  O   LIG    1       14.850   3.942  22.744  0.00  0.00    -0.275 OA
ATOM      2  C   LIG    1       15.880   3.833  23.396  0.00  0.00    +0.228 C 
ATOM      3  C   LIG    1       17.139   3.166  22.906  0.00  0.00    +0.172 C 
ATOM      4  S   LIG    1       18.327   3.300  24.271  0.00  0.00    -0.093 S 
ATOM      5  C   LIG    1       17.203   4.139  25.304  0.00  0.00    +0.113 C 
ATOM      6  S   LIG    1       17.496   4.670  26.844  0.00  0.00    -0.028 S 
ATOM      7  N   LIG    1       16.016   4.310  24.668  0.00  0.00    -0.274 N 
ATOM      8  H   LIG    1       15.243   4.779  25.116  0.00  0.00    +0.156 HD
ENDROOT
TORSDOF 0
ENDMDL
MODEL 6
REMARK VINA RESULT:      -3.6     13.603     14.033
REMARK  Name = 
REMARK                            x       y       z     vdW  Elec       q    Type
REMARK                         _______ _______ _______ _____ _____    ______ ____
ROOT
ATOM      1  O   LIG    1       10.359   1.756  37.358  0.00  0.00    -0.275 OA
ATOM      2  C   LIG    1       10.783   1.983  36.233  0.00  0.00    +0.228 C 
ATOM      3  C   LIG    1       11.995   2.827  35.928  0.00  0.00    +0.172 C 
ATOM      4  S   LIG    1       12.156   2.816  34.121  0.00  0.00    -0.093 S 
ATOM      5  C   LIG    1       10.755   1.805  33.898  0.00  0.00    +0.113 C 
ATOM      6  S   LIG    1       10.149   1.276  32.452  0.00  0.00    -0.028 S 
ATOM      7  N   LIG    1       10.203   1.494  35.098  0.00  0.00    -0.274 N 
ATOM      8  H   LIG    1        9.380   0.913  35.163  0.00  0.00    +0.156 HD
ENDROOT
TORSDOF 0
ENDMDL
MODEL 7
REMARK VINA RESULT:      -3.6      3.973      4.307
REMARK  Name = 
REMARK                            x       y       z     vdW  Elec       q    Type
REMARK                         _______ _______ _______ _____ _____    ______ ____
ROOT
ATOM      1  O   LIG    1       18.564   7.273  26.136  0.00  0.00    -0.275 OA
ATOM      2  C   LIG    1       18.544   6.173  25.601  0.00  0.00    +0.228 C 
ATOM      3  C   LIG    1       18.628   4.860  26.336  0.00  0.00    +0.172 C 
ATOM      4  S   LIG    1       18.548   3.577  25.056  0.00  0.00    -0.093 S 
ATOM      5  C   LIG    1       18.426   4.733  23.758  0.00  0.00    +0.113 C 
ATOM      6  S   LIG    1       18.305   4.385  22.145  0.00  0.00    -0.028 S 
ATOM      7  N   LIG    1       18.441   5.997  24.251  0.00  0.00    -0.274 N 
ATOM      8  H   LIG    1       18.379   6.799  23.642  0.00  0.00    +0.156 HD
ENDROOT
TORSDOF 0
ENDMDL
MODEL 8
REMARK VINA RESULT:      -3.5      2.641      2.764
REMARK  Name = 
REMARK                            x       y       z     vdW  Elec       q    Type
REMARK                         _______ _______ _______ _____ _____    ______ ____
ROOT
ATOM      1  O   LIG    1       19.274   5.674  25.391  0.00  0.00    -0.275 OA
ATOM      2  C   LIG    1       18.770   5.049  24.468  0.00  0.00    +0.228 C 
ATOM      3  C   LIG    1       19.543   4.411  23.342  0.00  0.00    +0.172 C 
ATOM      4  S   LIG    1       18.299   3.628  22.278  0.00  0.00    -0.093 S 
ATOM      5  C   LIG    1       16.969   4.139  23.280  0.00  0.00    +0.113 C 
ATOM      6  S   LIG    1       15.365   3.828  23.013  0.00  0.00    -0.028 S 
ATOM      7  N   LIG    1       17.425   4.849  24.342  0.00  0.00    -0.274 N 
ATOM      8  H   LIG    1       16.793   5.227  25.032  0.00  0.00    +0.156 HD
ENDROOT
TORSDOF 0
ENDMDL
MODEL 9
REMARK VINA RESULT:      -3.5     12.441     12.816
REMARK  Name = 
REMARK                            x       y       z     vdW  Elec       q    Type
REMARK                         _______ _______ _______ _____ _____    ______ ____
ROOT
ATOM      1  O   LIG    1        7.413   5.684  25.532  0.00  0.00    -0.275 OA
ATOM      2  C   LIG    1        6.911   6.643  26.104  0.00  0.00    +0.228 C 
ATOM      3  C   LIG    1        6.261   6.586  27.462  0.00  0.00    +0.172 C 
ATOM      4  S   LIG    1        5.704   8.278  27.808  0.00  0.00    -0.093 S 
ATOM      5  C   LIG    1        6.299   8.895  26.291  0.00  0.00    +0.113 C 
ATOM      6  S   LIG    1        6.194  10.460  25.762  0.00  0.00    -0.028 S 
ATOM      7  N   LIG    1        6.878   7.900  25.573  0.00  0.00    -0.274 N 
ATOM      8  H   LIG    1        7.279   8.074  24.664  0.00  0.00    +0.156 HD
ENDROOT
TORSDOF 0
ENDMDL
