MODEL 1
REMARK VINA RESULT:      -4.0      0.000      0.000
REMARK  Name = 
REMARK                            x       y       z     vdW  Elec       q    Type
REMARK                         _______ _______ _______ _____ _____    ______ ____
ROOT
ATOM      1  O   LIG    1       26.404  -0.618  17.470  0.00  0.00    -0.275 OA
ATOM      2  C   LIG    1       26.204   0.588  17.420  0.00  0.00    +0.228 C 
ATOM      3  C   LIG    1       26.281   1.519  18.604  0.00  0.00    +0.172 C 
ATOM      4  S   LIG    1       25.900   3.169  17.953  0.00  0.00    -0.093 S 
ATOM      5  C   LIG    1       25.680   2.590  16.324  0.00  0.00    +0.113 C 
ATOM      6  S   LIG    1       25.285   3.507  15.004  0.00  0.00    -0.028 S 
ATOM      7  N   LIG    1       25.880   1.250  16.271  0.00  0.00    -0.274 N 
ATOM      8  H   LIG    1       25.795   0.740  15.404  0.00  0.00    +0.156 HD
ENDROOT
TORSDOF 0
ENDMDL
MODEL 2
REMARK VINA RESULT:      -3.9      2.447      3.082
REMARK  Name = 
REMARK                            x       y       z     vdW  Elec       q    Type
REMARK                         _______ _______ _______ _____ _____    ______ ____
ROOT
ATOM      1  O   LIG    1       25.247   3.126  15.254  0.00  0.00    -0.275 OA
ATOM      2  C   LIG    1       25.626   2.578  16.280  0.00  0.00    +0.228 C 
ATOM      3  C   LIG    1       25.825   3.276  17.601  0.00  0.00    +0.172 C 
ATOM      4  S   LIG    1       26.385   1.990  18.753  0.00  0.00    -0.093 S 
ATOM      5  C   LIG    1       26.332   0.738  17.544  0.00  0.00    +0.113 C 
ATOM      6  S   LIG    1       26.718  -0.856  17.767  0.00  0.00    -0.028 S 
ATOM      7  N   LIG    1       25.920   1.247  16.356  0.00  0.00    -0.274 N 
ATOM      8  H   LIG    1       25.829   0.664  15.537  0.00  0.00    +0.156 HD
ENDROOT
TORSDOF 0
ENDMDL
MODEL 3
REMARK VINA RESULT:      -3.9      3.787      4.787
REMARK  Name = 
REMARK                            x       y       z     vdW  Elec       q    Type
REMARK                         _______ _______ _______ _____ _____    ______ ____
ROOT
ATOM      1  O   LIG    1       26.162   3.956  12.097  0.00  0.00    -0.275 OA
ATOM      2  C   LIG    1       25.369   3.880  13.026  0.00  0.00    +0.228 C 
ATOM      3  C   LIG    1       23.879   4.069  12.899  0.00  0.00    +0.172 C 
ATOM      4  S   LIG    1       23.214   3.844  14.572  0.00  0.00    -0.093 S 
ATOM      5  C   LIG    1       24.784   3.549  15.269  0.00  0.00    +0.113 C 
ATOM      6  S   LIG    1       25.104   3.232  16.861  0.00  0.00    -0.028 S 
ATOM      7  N   LIG    1       25.743   3.612  14.311  0.00  0.00    -0.274 N 
ATOM      8  H   LIG    1       26.716   3.466  14.533  0.00  0.00    +0.156 HD
ENDROOT
TORSDOF 0
ENDMDL
MODEL 4
REMARK VINA RESULT:      -3.7      2.697      3.126
REMARK  Name = 
REMARK                            x       y       z     vdW  Elec       q    Type
REMARK                         _______ _______ _______ _____ _____    ______ ____
ROOT
ATOM      1  O   LIG    1       25.341   2.931  15.181  0.00  0.00    -0.275 OA
ATOM      2  C   LIG    1       25.661   2.734  16.345  0.00  0.00    +0.228 C 
ATOM      3  C   LIG    1       25.960   1.379  16.934  0.00  0.00    +0.172 C 
ATOM      4  S   LIG    1       26.376   1.684  18.674  0.00  0.00    -0.093 S 
ATOM      5  C   LIG    1       26.150   3.405  18.534  0.00  0.00    +0.113 C 
ATOM      6  S   LIG    1       26.338   4.519  19.745  0.00  0.00    -0.028 S 
ATOM      7  N   LIG    1       25.788   3.732  17.268  0.00  0.00    -0.274 N 
ATOM      8  H   LIG    1       25.614   4.689  17.002  0.00  0.00    +0.156 HD
ENDROOT
TORSDOF 0
ENDMDL
MODEL 5
REMARK VINA RESULT:      -3.6      2.975      3.355
REMARK  Name = 
REMARK                            x       y       z     vdW  Elec       q    Type
REMARK                         _______ _______ _______ _____ _____    ______ ____
ROOT
ATOM      1  O   LIG    1       25.935   2.985  17.260  0.00  0.00    -0.275 OA
ATOM      2  C   LIG    1       25.354   3.308  16.232  0.00  0.00    +0.228 C 
ATOM      3  C   LIG    1       23.871   3.555  16.127  0.00  0.00    +0.172 C 
ATOM      4  S   LIG    1       23.572   4.001  14.394  0.00  0.00    -0.093 S 
ATOM      5  C   LIG    1       25.251   3.848  13.956  0.00  0.00    +0.113 C 
ATOM      6  S   LIG    1       25.898   4.096  12.453  0.00  0.00    -0.028 S 
ATOM      7  N   LIG    1       25.989   3.487  15.037  0.00  0.00    -0.274 N 
ATOM      8  H   LIG    1       26.986   3.351  14.970  0.00  0.00    +0.156 HD
ENDROOT
TORSDOF 0
ENDMDL
MODEL 6
REMARK VINA RESULT:      -3.5      3.443      4.551
REMARK  Name = 
REMARK                            x       y       z     vdW  Elec       q    Type
REMARK                         _______ _______ _______ _____ _____    ______ ____
ROOT
ATOM      1  O   LIG    1       27.029  -1.299  17.573  0.00  0.00    -0.275 OA
ATOM      2  C   LIG    1       27.028  -0.620  18.591  0.00  0.00    +0.228 C 
ATOM      3  C   LIG    1       26.325   0.705  18.736  0.00  0.00    +0.172 C 
ATOM      4  S   LIG    1       26.656   1.251  20.434  0.00  0.00    -0.093 S 
ATOM      5  C   LIG    1       27.609  -0.158  20.811  0.00  0.00    +0.113 C 
ATOM      6  S   LIG    1       28.347  -0.482  22.257  0.00  0.00    -0.028 S 
ATOM      7  N   LIG    1       27.674  -0.983  19.737  0.00  0.00    -0.274 N 
ATOM      8  H   LIG    1       28.186  -1.852  19.773  0.00  0.00    +0.156 HD
ENDROOT
TORSDOF 0
ENDMDL
MODEL 7
REMARK VINA RESULT:      -3.4      6.380      7.024
REMARK  Name = 
REMARK                            x       y       z     vdW  Elec       q    Type
REMARK                         _______ _______ _______ _____ _____    ______ ____
ROOT
ATOM      1  O   LIG    1       31.821  -1.265  23.315  0.00  0.00    -0.275 OA
ATOM      2  C   LIG    1       30.765  -0.833  22.873  0.00  0.00    +0.228 C 
ATOM      3  C   LIG    1       29.409  -1.425  23.160  0.00  0.00    +0.172 C 
ATOM      4  S   LIG    1       28.223  -0.389  22.258  0.00  0.00    -0.093 S 
ATOM      5  C   LIG    1       29.463   0.654  21.618  0.00  0.00    +0.113 C 
ATOM      6  S   LIG    1       29.229   1.955  20.621  0.00  0.00    -0.028 S 
ATOM      7  N   LIG    1       30.684   0.255  22.052  0.00  0.00    -0.274 N 
ATOM      8  H   LIG    1       31.524   0.745  21.780  0.00  0.00    +0.156 HD
ENDROOT
TORSDOF 0
ENDMDL
MODEL 8
REMARK VINA RESULT:      -3.4      3.084      3.961
REMARK  Name = 
REMARK                            x       y       z     vdW  Elec       q    Type
REMARK                         _______ _______ _______ _____ _____    ______ ____
ROOT
ATOM      1  O   LIG    1       25.705   3.362  17.795  0.00  0.00    -0.275 OA
ATOM      2  C   LIG    1       26.012   2.190  17.965  0.00  0.00    +0.228 C 
ATOM      3  C   LIG    1       26.079   1.155  16.871  0.00  0.00    +0.172 C 
ATOM      4  S   LIG    1       26.583  -0.385  17.687  0.00  0.00    -0.093 S 
ATOM      5  C   LIG    1       26.664   0.354  19.263  0.00  0.00    +0.113 C 
ATOM      6  S   LIG    1       27.076  -0.400  20.678  0.00  0.00    -0.028 S 
ATOM      7  N   LIG    1       26.336   1.668  19.184  0.00  0.00    -0.274 N 
ATOM      8  H   LIG    1       26.330   2.258  20.002  0.00  0.00    +0.156 HD
ENDROOT
TORSDOF 0
ENDMDL
MODEL 9
REMARK VINA RESULT:      -3.4      1.769      2.588
REMARK  Name = 
REMARK                            x       y       z     vdW  Elec       q    Type
REMARK                         _______ _______ _______ _____ _____    ______ ____
ROOT
ATOM      1  O   LIG    1       27.247  -0.223  18.608  0.00  0.00    -0.275 OA
ATOM      2  C   LIG    1       26.779   0.875  18.337  0.00  0.00    +0.228 C 
ATOM      3  C   LIG    1       25.980   1.184  17.097  0.00  0.00    +0.172 C 
ATOM      4  S   LIG    1       25.547   2.942  17.221  0.00  0.00    -0.093 S 
ATOM      5  C   LIG    1       26.367   3.144  18.745  0.00  0.00    +0.113 C 
ATOM      6  S   LIG    1       26.473   4.543  19.622  0.00  0.00    -0.028 S 
ATOM      7  N   LIG    1       26.927   1.972  19.137  0.00  0.00    -0.274 N 
ATOM      8  H   LIG    1       27.444   1.900  20.000  0.00  0.00    +0.156 HD
ENDROOT
TORSDOF 0
ENDMDL
