MODEL 1
REMARK VINA RESULT:      -4.0      0.000      0.000
REMARK  Name = 
REMARK                            x       y       z     vdW  Elec       q    Type
REMARK                         _______ _______ _______ _____ _____    ______ ____
ROOT
ATOM      1  O   LIG    1       10.474  20.866  23.845  0.00  0.00    -0.275 OA
ATOM      2  C   LIG    1        9.594  21.226  24.615  0.00  0.00    +0.228 C 
ATOM      3  C   LIG    1        9.360  22.653  25.041  0.00  0.00    +0.172 C 
ATOM      4  S   LIG    1        7.942  22.598  26.171  0.00  0.00    -0.093 S 
ATOM      5  C   LIG    1        7.764  20.871  26.031  0.00  0.00    +0.113 C 
ATOM      6  S   LIG    1        6.628  19.939  26.793  0.00  0.00    -0.028 S 
ATOM      7  N   LIG    1        8.703  20.368  25.192  0.00  0.00    -0.274 N 
ATOM      8  H   LIG    1        8.752  19.380  24.990  0.00  0.00    +0.156 HD
ENDROOT
TORSDOF 0
ENDMDL
MODEL 2
REMARK VINA RESULT:      -4.0      1.491      2.552
REMARK  Name = 
REMARK                            x       y       z     vdW  Elec       q    Type
REMARK                         _______ _______ _______ _____ _____    ______ ____
ROOT
ATOM      1  O   LIG    1       10.400  21.052  23.992  0.00  0.00    -0.275 OA
ATOM      2  C   LIG    1        9.529  21.523  24.712  0.00  0.00    +0.228 C 
ATOM      3  C   LIG    1        8.472  20.715  25.419  0.00  0.00    +0.172 C 
ATOM      4  S   LIG    1        7.468  21.919  26.333  0.00  0.00    -0.093 S 
ATOM      5  C   LIG    1        8.406  23.278  25.779  0.00  0.00    +0.113 C 
ATOM      6  S   LIG    1        8.149  24.867  26.166  0.00  0.00    -0.028 S 
ATOM      7  N   LIG    1        9.407  22.859  24.965  0.00  0.00    -0.274 N 
ATOM      8  H   LIG    1       10.054  23.512  24.549  0.00  0.00    +0.156 HD
ENDROOT
TORSDOF 0
ENDMDL
MODEL 3
REMARK VINA RESULT:      -3.9      3.395      4.337
REMARK  Name = 
REMARK                            x       y       z     vdW  Elec       q    Type
REMARK                         _______ _______ _______ _____ _____    ______ ____
ROOT
ATOM      1  O   LIG    1        7.922  20.247  30.200  0.00  0.00    -0.275 OA
ATOM      2  C   LIG    1        7.488  20.199  29.057  0.00  0.00    +0.228 C 
ATOM      3  C   LIG    1        6.118  19.695  28.681  0.00  0.00    +0.172 C 
ATOM      4  S   LIG    1        6.017  19.856  26.877  0.00  0.00    -0.093 S 
ATOM      5  C   LIG    1        7.626  20.509  26.740  0.00  0.00    +0.113 C 
ATOM      6  S   LIG    1        8.383  20.964  25.340  0.00  0.00    -0.028 S 
ATOM      7  N   LIG    1        8.201  20.603  27.965  0.00  0.00    -0.274 N 
ATOM      8  H   LIG    1        9.137  20.962  28.080  0.00  0.00    +0.156 HD
ENDROOT
TORSDOF 0
ENDMDL
MODEL 4
REMARK VINA RESULT:      -3.9      2.751      3.258
REMARK  Name = 
REMARK                            x       y       z     vdW  Elec       q    Type
REMARK                         _______ _______ _______ _____ _____    ______ ____
ROOT
ATOM      1  O   LIG    1        6.679  19.885  26.569  0.00  0.00    -0.275 OA
ATOM      2  C   LIG    1        7.422  20.754  26.135  0.00  0.00    +0.228 C 
ATOM      3  C   LIG    1        8.630  20.497  25.270  0.00  0.00    +0.172 C 
ATOM      4  S   LIG    1        9.341  22.130  24.927  0.00  0.00    -0.093 S 
ATOM      5  C   LIG    1        8.129  22.969  25.855  0.00  0.00    +0.113 C 
ATOM      6  S   LIG    1        8.028  24.605  26.082  0.00  0.00    -0.028 S 
ATOM      7  N   LIG    1        7.247  22.085  26.386  0.00  0.00    -0.274 N 
ATOM      8  H   LIG    1        6.474  22.393  26.955  0.00  0.00    +0.156 HD
ENDROOT
TORSDOF 0
ENDMDL
MODEL 5
REMARK VINA RESULT:      -3.8      2.441      3.165
REMARK  Name = 
REMARK                            x       y       z     vdW  Elec       q    Type
REMARK                         _______ _______ _______ _____ _____    ______ ____
ROOT
ATOM      1  O   LIG    1        6.586  19.516  26.878  0.00  0.00    -0.275 OA
ATOM      2  C   LIG    1        7.245  20.457  26.457  0.00  0.00    +0.228 C 
ATOM      3  C   LIG    1        6.999  21.902  26.808  0.00  0.00    +0.172 C 
ATOM      4  S   LIG    1        8.264  22.845  25.912  0.00  0.00    -0.093 S 
ATOM      5  C   LIG    1        8.969  21.420  25.198  0.00  0.00    +0.113 C 
ATOM      6  S   LIG    1       10.264  21.380  24.168  0.00  0.00    -0.028 S 
ATOM      7  N   LIG    1        8.302  20.311  25.604  0.00  0.00    -0.274 N 
ATOM      8  H   LIG    1        8.572  19.391  25.290  0.00  0.00    +0.156 HD
ENDROOT
TORSDOF 0
ENDMDL
MODEL 6
REMARK VINA RESULT:      -3.8      2.872      3.427
REMARK  Name = 
REMARK                            x       y       z     vdW  Elec       q    Type
REMARK                         _______ _______ _______ _____ _____    ______ ____
ROOT
ATOM      1  O   LIG    1        7.950  24.731  26.271  0.00  0.00    -0.275 OA
ATOM      2  C   LIG    1        8.154  23.552  26.016  0.00  0.00    +0.228 C 
ATOM      3  C   LIG    1        7.327  22.406  26.541  0.00  0.00    +0.172 C 
ATOM      4  S   LIG    1        8.074  20.906  25.845  0.00  0.00    -0.093 S 
ATOM      5  C   LIG    1        9.309  21.791  24.993  0.00  0.00    +0.113 C 
ATOM      6  S   LIG    1       10.499  21.142  24.042  0.00  0.00    -0.028 S 
ATOM      7  N   LIG    1        9.171  23.122  25.214  0.00  0.00    -0.274 N 
ATOM      8  H   LIG    1        9.802  23.791  24.798  0.00  0.00    +0.156 HD
ENDROOT
TORSDOF 0
ENDMDL
MODEL 7
REMARK VINA RESULT:      -3.7      4.260      5.180
REMARK  Name = 
REMARK                            x       y       z     vdW  Elec       q    Type
REMARK                         _______ _______ _______ _____ _____    ______ ____
ROOT
ATOM      1  O   LIG    1        3.131  19.324  25.941  0.00  0.00    -0.275 OA
ATOM      2  C   LIG    1        3.943  19.761  26.745  0.00  0.00    +0.228 C 
ATOM      3  C   LIG    1        3.637  20.073  28.188  0.00  0.00    +0.172 C 
ATOM      4  S   LIG    1        5.194  20.679  28.897  0.00  0.00    -0.093 S 
ATOM      5  C   LIG    1        6.065  20.505  27.398  0.00  0.00    +0.113 C 
ATOM      6  S   LIG    1        7.661  20.863  27.147  0.00  0.00    -0.028 S 
ATOM      7  N   LIG    1        5.245  20.023  26.431  0.00  0.00    -0.274 N 
ATOM      8  H   LIG    1        5.580  19.858  25.493  0.00  0.00    +0.156 HD
ENDROOT
TORSDOF 0
ENDMDL
MODEL 8
REMARK VINA RESULT:      -3.7      2.811      3.234
REMARK  Name = 
REMARK                            x       y       z     vdW  Elec       q    Type
REMARK                         _______ _______ _______ _____ _____    ______ ____
ROOT
ATOM      1  O   LIG    1        8.336  20.490  25.648  0.00  0.00    -0.275 OA
ATOM      2  C   LIG    1        7.453  20.399  26.489  0.00  0.00    +0.228 C 
ATOM      3  C   LIG    1        7.670  20.514  27.976  0.00  0.00    +0.172 C 
ATOM      4  S   LIG    1        6.031  20.305  28.727  0.00  0.00    -0.093 S 
ATOM      5  C   LIG    1        5.239  20.097  27.189  0.00  0.00    +0.113 C 
ATOM      6  S   LIG    1        3.622  19.835  26.948  0.00  0.00    -0.028 S 
ATOM      7  N   LIG    1        6.141  20.180  26.180  0.00  0.00    -0.274 N 
ATOM      8  H   LIG    1        5.860  20.083  25.215  0.00  0.00    +0.156 HD
ENDROOT
TORSDOF 0
ENDMDL
MODEL 9
REMARK VINA RESULT:      -3.6      2.920      3.561
REMARK  Name = 
REMARK                            x       y       z     vdW  Elec       q    Type
REMARK                         _______ _______ _______ _____ _____    ______ ____
ROOT
ATOM      1  O   LIG    1        8.250  20.520  25.656  0.00  0.00    -0.275 OA
ATOM      2  C   LIG    1        7.525  20.298  26.617  0.00  0.00    +0.228 C 
ATOM      3  C   LIG    1        6.088  19.854  26.521  0.00  0.00    +0.172 C 
ATOM      4  S   LIG    1        5.517  19.675  28.235  0.00  0.00    -0.093 S 
ATOM      5  C   LIG    1        7.053  20.152  28.905  0.00  0.00    +0.113 C 
ATOM      6  S   LIG    1        7.425  20.269  30.514  0.00  0.00    -0.028 S 
ATOM      7  N   LIG    1        7.936  20.426  27.912  0.00  0.00    -0.274 N 
ATOM      8  H   LIG    1        8.880  20.719  28.115  0.00  0.00    +0.156 HD
ENDROOT
TORSDOF 0
ENDMDL
