MODEL 1
REMARK VINA RESULT:      -3.7      0.000      0.000
REMARK  Name = 
REMARK                            x       y       z     vdW  Elec       q    Type
REMARK                         _______ _______ _______ _____ _____    ______ ____
ROOT
ATOM      1  O   LIG    1       17.253   1.855  -1.550  0.00  0.00    -0.275 OA
ATOM      2  C   LIG    1       16.187   2.111  -2.093  0.00  0.00    +0.228 C 
ATOM      3  C   LIG    1       15.254   3.217  -1.671  0.00  0.00    +0.172 C 
ATOM      4  S   LIG    1       13.849   3.135  -2.817  0.00  0.00    -0.093 S 
ATOM      5  C   LIG    1       14.509   1.782  -3.693  0.00  0.00    +0.113 C 
ATOM      6  S   LIG    1       13.815   1.021  -4.989  0.00  0.00    -0.028 S 
ATOM      7  N   LIG    1       15.703   1.415  -3.164  0.00  0.00    -0.274 N 
ATOM      8  H   LIG    1       16.233   0.646  -3.545  0.00  0.00    +0.156 HD
ENDROOT
TORSDOF 0
ENDMDL
MODEL 2
REMARK VINA RESULT:      -3.6      2.763      3.323
REMARK  Name = 
REMARK                            x       y       z     vdW  Elec       q    Type
REMARK                         _______ _______ _______ _____ _____    ______ ____
ROOT
ATOM      1  O   LIG    1       14.992   3.631  -2.488  0.00  0.00    -0.275 OA
ATOM      2  C   LIG    1       13.981   3.117  -2.949  0.00  0.00    +0.228 C 
ATOM      3  C   LIG    1       13.956   1.839  -3.746  0.00  0.00    +0.172 C 
ATOM      4  S   LIG    1       12.213   1.556  -4.161  0.00  0.00    -0.093 S 
ATOM      5  C   LIG    1       11.676   2.998  -3.344  0.00  0.00    +0.113 C 
ATOM      6  S   LIG    1       10.115   3.535  -3.229  0.00  0.00    -0.028 S 
ATOM      7  N   LIG    1       12.733   3.648  -2.794  0.00  0.00    -0.274 N 
ATOM      8  H   LIG    1       12.611   4.507  -2.279  0.00  0.00    +0.156 HD
ENDROOT
TORSDOF 0
ENDMDL
MODEL 3
REMARK VINA RESULT:      -3.6     12.995     13.347
REMARK  Name = 
REMARK                            x       y       z     vdW  Elec       q    Type
REMARK                         _______ _______ _______ _____ _____    ______ ____
ROOT
ATOM      1  O   LIG    1        4.073   9.669  -1.445  0.00  0.00    -0.275 OA
ATOM      2  C   LIG    1        3.599   8.647  -0.967  0.00  0.00    +0.228 C 
ATOM      3  C   LIG    1        2.310   8.584  -0.187  0.00  0.00    +0.172 C 
ATOM      4  S   LIG    1        2.100   6.840   0.269  0.00  0.00    -0.093 S 
ATOM      5  C   LIG    1        3.578   6.350  -0.514  0.00  0.00    +0.113 C 
ATOM      6  S   LIG    1        4.187   4.813  -0.581  0.00  0.00    -0.028 S 
ATOM      7  N   LIG    1        4.187   7.421  -1.081  0.00  0.00    -0.274 N 
ATOM      8  H   LIG    1        5.059   7.325  -1.580  0.00  0.00    +0.156 HD
ENDROOT
TORSDOF 0
ENDMDL
MODEL 4
REMARK VINA RESULT:      -3.5     13.388     13.609
REMARK  Name = 
REMARK                            x       y       z     vdW  Elec       q    Type
REMARK                         _______ _______ _______ _____ _____    ______ ____
ROOT
ATOM      1  O   LIG    1        2.680   6.993   0.923  0.00  0.00    -0.275 OA
ATOM      2  C   LIG    1        3.085   7.542  -0.093  0.00  0.00    +0.228 C 
ATOM      3  C   LIG    1        2.784   7.079  -1.495  0.00  0.00    +0.172 C 
ATOM      4  S   LIG    1        3.627   8.255  -2.589  0.00  0.00    -0.093 S 
ATOM      5  C   LIG    1        4.265   9.190  -1.265  0.00  0.00    +0.113 C 
ATOM      6  S   LIG    1        5.216  10.538  -1.387  0.00  0.00    -0.028 S 
ATOM      7  N   LIG    1        3.871   8.658  -0.080  0.00  0.00    -0.274 N 
ATOM      8  H   LIG    1        4.147   9.070   0.798  0.00  0.00    +0.156 HD
ENDROOT
TORSDOF 0
ENDMDL
MODEL 5
REMARK VINA RESULT:      -3.5      2.880      3.497
REMARK  Name = 
REMARK                            x       y       z     vdW  Elec       q    Type
REMARK                         _______ _______ _______ _____ _____    ______ ____
ROOT
ATOM      1  O   LIG    1       11.870   2.152  -1.404  0.00  0.00    -0.275 OA
ATOM      2  C   LIG    1       12.943   2.140  -1.993  0.00  0.00    +0.228 C 
ATOM      3  C   LIG    1       13.104   1.926  -3.476  0.00  0.00    +0.172 C 
ATOM      4  S   LIG    1       14.889   2.011  -3.791  0.00  0.00    -0.093 S 
ATOM      5  C   LIG    1       15.276   2.291  -2.116  0.00  0.00    +0.113 C 
ATOM      6  S   LIG    1       16.791   2.497  -1.482  0.00  0.00    -0.028 S 
ATOM      7  N   LIG    1       14.144   2.321  -1.369  0.00  0.00    -0.274 N 
ATOM      8  H   LIG    1       14.176   2.474  -0.372  0.00  0.00    +0.156 HD
ENDROOT
TORSDOF 0
ENDMDL
MODEL 6
REMARK VINA RESULT:      -3.5     13.146     13.423
REMARK  Name = 
REMARK                            x       y       z     vdW  Elec       q    Type
REMARK                         _______ _______ _______ _____ _____    ______ ____
ROOT
ATOM      1  O   LIG    1        5.414  10.745  -1.147  0.00  0.00    -0.275 OA
ATOM      2  C   LIG    1        4.721   9.749  -1.303  0.00  0.00    +0.228 C 
ATOM      3  C   LIG    1        4.425   9.112  -2.636  0.00  0.00    +0.172 C 
ATOM      4  S   LIG    1        3.365   7.685  -2.271  0.00  0.00    -0.093 S 
ATOM      5  C   LIG    1        3.373   7.987  -0.555  0.00  0.00    +0.113 C 
ATOM      6  S   LIG    1        2.595   7.092   0.600  0.00  0.00    -0.028 S 
ATOM      7  N   LIG    1        4.121   9.083  -0.274  0.00  0.00    -0.274 N 
ATOM      8  H   LIG    1        4.239   9.409   0.674  0.00  0.00    +0.156 HD
ENDROOT
TORSDOF 0
ENDMDL
MODEL 7
REMARK VINA RESULT:      -3.5     14.105     14.399
REMARK  Name = 
REMARK                            x       y       z     vdW  Elec       q    Type
REMARK                         _______ _______ _______ _____ _____    ______ ____
ROOT
ATOM      1  O   LIG    1       -0.368   5.447  -0.594  0.00  0.00    -0.275 OA
ATOM      2  C   LIG    1        0.740   5.894  -0.857  0.00  0.00    +0.228 C 
ATOM      3  C   LIG    1        1.695   6.473   0.156  0.00  0.00    +0.172 C 
ATOM      4  S   LIG    1        3.165   6.968  -0.785  0.00  0.00    -0.093 S 
ATOM      5  C   LIG    1        2.498   6.439  -2.305  0.00  0.00    +0.113 C 
ATOM      6  S   LIG    1        3.236   6.533  -3.783  0.00  0.00    -0.028 S 
ATOM      7  N   LIG    1        1.257   5.924  -2.121  0.00  0.00    -0.274 N 
ATOM      8  H   LIG    1        0.717   5.566  -2.894  0.00  0.00    +0.156 HD
ENDROOT
TORSDOF 0
ENDMDL
MODEL 8
REMARK VINA RESULT:      -3.4      3.914      4.621
REMARK  Name = 
REMARK                            x       y       z     vdW  Elec       q    Type
REMARK                         _______ _______ _______ _____ _____    ______ ____
ROOT
ATOM      1  O   LIG    1       10.077   3.987  -3.289  0.00  0.00    -0.275 OA
ATOM      2  C   LIG    1       11.102   3.332  -3.420  0.00  0.00    +0.228 C 
ATOM      3  C   LIG    1       11.206   2.053  -4.211  0.00  0.00    +0.172 C 
ATOM      4  S   LIG    1       12.937   1.528  -4.063  0.00  0.00    -0.093 S 
ATOM      5  C   LIG    1       13.373   2.887  -3.065  0.00  0.00    +0.113 C 
ATOM      6  S   LIG    1       14.873   3.202  -2.440  0.00  0.00    -0.028 S 
ATOM      7  N   LIG    1       12.295   3.683  -2.857  0.00  0.00    -0.274 N 
ATOM      8  H   LIG    1       12.361   4.522  -2.299  0.00  0.00    +0.156 HD
ENDROOT
TORSDOF 0
ENDMDL
MODEL 9
REMARK VINA RESULT:      -3.4     11.655     12.050
REMARK  Name = 
REMARK                            x       y       z     vdW  Elec       q    Type
REMARK                         _______ _______ _______ _____ _____    ______ ____
ROOT
ATOM      1  O   LIG    1        5.391   4.550  -0.563  0.00  0.00    -0.275 OA
ATOM      2  C   LIG    1        4.648   5.333  -1.137  0.00  0.00    +0.228 C 
ATOM      3  C   LIG    1        3.190   5.078  -1.425  0.00  0.00    +0.172 C 
ATOM      4  S   LIG    1        2.594   6.562  -2.282  0.00  0.00    -0.093 S 
ATOM      5  C   LIG    1        4.147   7.349  -2.219  0.00  0.00    +0.113 C 
ATOM      6  S   LIG    1        4.511   8.848  -2.819  0.00  0.00    -0.028 S 
ATOM      7  N   LIG    1        5.053   6.554  -1.596  0.00  0.00    -0.274 N 
ATOM      8  H   LIG    1        6.010   6.848  -1.468  0.00  0.00    +0.156 HD
ENDROOT
TORSDOF 0
ENDMDL
