MODEL 1
REMARK VINA RESULT:      -4.2      0.000      0.000
REMARK  Name = 
REMARK                            x       y       z     vdW  Elec       q    Type
REMARK                         _______ _______ _______ _____ _____    ______ ____
ROOT
ATOM      1  O   LIG    1        3.266  20.930   6.488  0.00  0.00    -0.275 OA
ATOM      2  C   LIG    1        2.996  21.189   7.653  0.00  0.00    +0.228 C 
ATOM      3  C   LIG    1        1.819  20.623   8.406  0.00  0.00    +0.172 C 
ATOM      4  S   LIG    1        1.915  21.340  10.071  0.00  0.00    -0.093 S 
ATOM      5  C   LIG    1        3.353  22.254   9.708  0.00  0.00    +0.113 C 
ATOM      6  S   LIG    1        4.164  23.255  10.746  0.00  0.00    -0.028 S 
ATOM      7  N   LIG    1        3.738  22.036   8.425  0.00  0.00    -0.274 N 
ATOM      8  H   LIG    1        4.555  22.484   8.039  0.00  0.00    +0.156 HD
ENDROOT
TORSDOF 0
ENDMDL
MODEL 2
REMARK VINA RESULT:      -4.0      7.379      7.802
REMARK  Name = 
REMARK                            x       y       z     vdW  Elec       q    Type
REMARK                         _______ _______ _______ _____ _____    ______ ____
ROOT
ATOM      1  O   LIG    1        3.859  26.167   5.205  0.00  0.00    -0.275 OA
ATOM      2  C   LIG    1        3.574  27.339   5.411  0.00  0.00    +0.228 C 
ATOM      3  C   LIG    1        4.557  28.481   5.364  0.00  0.00    +0.172 C 
ATOM      4  S   LIG    1        3.592  29.971   5.742  0.00  0.00    -0.093 S 
ATOM      5  C   LIG    1        2.103  29.086   5.925  0.00  0.00    +0.113 C 
ATOM      6  S   LIG    1        0.623  29.727   6.299  0.00  0.00    -0.028 S 
ATOM      7  N   LIG    1        2.312  27.762   5.715  0.00  0.00    -0.274 N 
ATOM      8  H   LIG    1        1.558  27.095   5.779  0.00  0.00    +0.156 HD
ENDROOT
TORSDOF 0
ENDMDL
MODEL 3
REMARK VINA RESULT:      -4.0      3.653      4.458
REMARK  Name = 
REMARK                            x       y       z     vdW  Elec       q    Type
REMARK                         _______ _______ _______ _____ _____    ______ ____
ROOT
ATOM      1  O   LIG    1        5.316  21.570  13.502  0.00  0.00    -0.275 OA
ATOM      2  C   LIG    1        4.929  21.878  12.382  0.00  0.00    +0.228 C 
ATOM      3  C   LIG    1        4.453  23.253  11.989  0.00  0.00    +0.172 C 
ATOM      4  S   LIG    1        4.013  23.133  10.233  0.00  0.00    -0.093 S 
ATOM      5  C   LIG    1        4.437  21.447  10.134  0.00  0.00    +0.113 C 
ATOM      6  S   LIG    1        4.331  20.487   8.790  0.00  0.00    -0.028 S 
ATOM      7  N   LIG    1        4.881  21.002  11.337  0.00  0.00    -0.274 N 
ATOM      8  H   LIG    1        5.173  20.045  11.468  0.00  0.00    +0.156 HD
ENDROOT
TORSDOF 0
ENDMDL
MODEL 4
REMARK VINA RESULT:      -3.8      2.569      2.950
REMARK  Name = 
REMARK                            x       y       z     vdW  Elec       q    Type
REMARK                         _______ _______ _______ _____ _____    ______ ____
ROOT
ATOM      1  O   LIG    1        5.333  19.491   9.339  0.00  0.00    -0.275 OA
ATOM      2  C   LIG    1        4.941  20.516   9.879  0.00  0.00    +0.228 C 
ATOM      3  C   LIG    1        4.096  21.569   9.208  0.00  0.00    +0.172 C 
ATOM      4  S   LIG    1        3.814  22.845  10.467  0.00  0.00    -0.093 S 
ATOM      5  C   LIG    1        4.738  22.000  11.679  0.00  0.00    +0.113 C 
ATOM      6  S   LIG    1        5.009  22.505  13.231  0.00  0.00    -0.028 S 
ATOM      7  N   LIG    1        5.224  20.838  11.175  0.00  0.00    -0.274 N 
ATOM      8  H   LIG    1        5.785  20.216  11.737  0.00  0.00    +0.156 HD
ENDROOT
TORSDOF 0
ENDMDL
MODEL 5
REMARK VINA RESULT:      -3.8      7.626      7.851
REMARK  Name = 
REMARK                            x       y       z     vdW  Elec       q    Type
REMARK                         _______ _______ _______ _____ _____    ______ ____
ROOT
ATOM      1  O   LIG    1        3.914  26.139   5.250  0.00  0.00    -0.275 OA
ATOM      2  C   LIG    1        3.394  27.247   5.276  0.00  0.00    +0.228 C 
ATOM      3  C   LIG    1        1.916  27.496   5.438  0.00  0.00    +0.172 C 
ATOM      4  S   LIG    1        1.719  29.299   5.410  0.00  0.00    -0.093 S 
ATOM      5  C   LIG    1        3.425  29.587   5.202  0.00  0.00    +0.113 C 
ATOM      6  S   LIG    1        4.160  31.064   5.072  0.00  0.00    -0.028 S 
ATOM      7  N   LIG    1        4.098  28.410   5.159  0.00  0.00    -0.274 N 
ATOM      8  H   LIG    1        5.100  28.383   5.043  0.00  0.00    +0.156 HD
ENDROOT
TORSDOF 0
ENDMDL
MODEL 6
REMARK VINA RESULT:      -3.8      3.458      4.115
REMARK  Name = 
REMARK                            x       y       z     vdW  Elec       q    Type
REMARK                         _______ _______ _______ _____ _____    ______ ____
ROOT
ATOM      1  O   LIG    1        5.211  21.384  13.055  0.00  0.00    -0.275 OA
ATOM      2  C   LIG    1        4.801  21.194  11.918  0.00  0.00    +0.228 C 
ATOM      3  C   LIG    1        5.629  20.633  10.791  0.00  0.00    +0.172 C 
ATOM      4  S   LIG    1        4.520  20.569   9.356  0.00  0.00    -0.093 S 
ATOM      5  C   LIG    1        3.169  21.225  10.239  0.00  0.00    +0.113 C 
ATOM      6  S   LIG    1        1.655  21.518   9.638  0.00  0.00    -0.028 S 
ATOM      7  N   LIG    1        3.524  21.474  11.525  0.00  0.00    -0.274 N 
ATOM      8  H   LIG    1        2.865  21.857  12.186  0.00  0.00    +0.156 HD
ENDROOT
TORSDOF 0
ENDMDL
MODEL 7
REMARK VINA RESULT:      -3.8      9.246      9.496
REMARK  Name = 
REMARK                            x       y       z     vdW  Elec       q    Type
REMARK                         _______ _______ _______ _____ _____    ______ ____
ROOT
ATOM      1  O   LIG    1        0.458  27.327   5.538  0.00  0.00    -0.275 OA
ATOM      2  C   LIG    1        0.850  28.416   5.138  0.00  0.00    +0.228 C 
ATOM      3  C   LIG    1        2.234  28.686   4.605  0.00  0.00    +0.172 C 
ATOM      4  S   LIG    1        2.251  30.446   4.162  0.00  0.00    -0.093 S 
ATOM      5  C   LIG    1        0.600  30.694   4.660  0.00  0.00    +0.113 C 
ATOM      6  S   LIG    1       -0.239  32.119   4.592  0.00  0.00    -0.028 S 
ATOM      7  N   LIG    1        0.069  29.536   5.126  0.00  0.00    -0.274 N 
ATOM      8  H   LIG    1       -0.882  29.491   5.459  0.00  0.00    +0.156 HD
ENDROOT
TORSDOF 0
ENDMDL
MODEL 8
REMARK VINA RESULT:      -3.7      7.867      8.089
REMARK  Name = 
REMARK                            x       y       z     vdW  Elec       q    Type
REMARK                         _______ _______ _______ _____ _____    ______ ____
ROOT
ATOM      1  O   LIG    1        5.335  28.948   5.371  0.00  0.00    -0.275 OA
ATOM      2  C   LIG    1        4.138  28.731   5.508  0.00  0.00    +0.228 C 
ATOM      3  C   LIG    1        3.451  27.447   5.119  0.00  0.00    +0.172 C 
ATOM      4  S   LIG    1        1.703  27.680   5.546  0.00  0.00    -0.093 S 
ATOM      5  C   LIG    1        1.958  29.295   6.147  0.00  0.00    +0.113 C 
ATOM      6  S   LIG    1        0.801  30.302   6.771  0.00  0.00    -0.028 S 
ATOM      7  N   LIG    1        3.266  29.637   6.037  0.00  0.00    -0.274 N 
ATOM      8  H   LIG    1        3.599  30.541   6.338  0.00  0.00    +0.156 HD
ENDROOT
TORSDOF 0
ENDMDL
MODEL 9
REMARK VINA RESULT:      -3.7      7.860      8.155
REMARK  Name = 
REMARK                            x       y       z     vdW  Elec       q    Type
REMARK                         _______ _______ _______ _____ _____    ______ ____
ROOT
ATOM      1  O   LIG    1        0.358  27.118   5.709  0.00  0.00    -0.275 OA
ATOM      2  C   LIG    1        1.128  28.067   5.650  0.00  0.00    +0.228 C 
ATOM      3  C   LIG    1        0.710  29.515   5.703  0.00  0.00    +0.172 C 
ATOM      4  S   LIG    1        2.247  30.472   5.578  0.00  0.00    -0.093 S 
ATOM      5  C   LIG    1        3.247  29.049   5.471  0.00  0.00    +0.113 C 
ATOM      6  S   LIG    1        4.895  29.020   5.323  0.00  0.00    -0.028 S 
ATOM      7  N   LIG    1        2.481  27.930   5.527  0.00  0.00    -0.274 N 
ATOM      8  H   LIG    1        2.892  27.010   5.479  0.00  0.00    +0.156 HD
ENDROOT
TORSDOF 0
ENDMDL
