MODEL 1
REMARK VINA RESULT:      -3.7      0.000      0.000
REMARK  Name = 
REMARK                            x       y       z     vdW  Elec       q    Type
REMARK                         _______ _______ _______ _____ _____    ______ ____
ROOT
ATOM      1  O   LIG    1      -47.276  14.041 -35.202  0.00  0.00    -0.275 OA
ATOM      2  C   LIG    1      -46.800  14.784 -34.354  0.00  0.00    +0.228 C 
ATOM      3  C   LIG    1      -46.990  16.278 -34.320  0.00  0.00    +0.172 C 
ATOM      4  S   LIG    1      -46.076  16.853 -32.862  0.00  0.00    -0.093 S 
ATOM      5  C   LIG    1      -45.548  15.250 -32.432  0.00  0.00    +0.113 C 
ATOM      6  S   LIG    1      -44.600  14.846 -31.136  0.00  0.00    -0.028 S 
ATOM      7  N   LIG    1      -46.026  14.343 -33.320  0.00  0.00    -0.274 N 
ATOM      8  H   LIG    1      -45.820  13.359 -33.228  0.00  0.00    +0.156 HD
ENDROOT
TORSDOF 0
ENDMDL
MODEL 2
REMARK VINA RESULT:      -3.7     14.916     15.228
REMARK  Name = 
REMARK                            x       y       z     vdW  Elec       q    Type
REMARK                         _______ _______ _______ _____ _____    ______ ____
ROOT
ATOM      1  O   LIG    1      -36.690   9.358 -43.398  0.00  0.00    -0.275 OA
ATOM      2  C   LIG    1      -36.119   8.696 -42.542  0.00  0.00    +0.228 C 
ATOM      3  C   LIG    1      -36.071   7.190 -42.515  0.00  0.00    +0.172 C 
ATOM      4  S   LIG    1      -35.100   6.759 -41.044  0.00  0.00    -0.093 S 
ATOM      5  C   LIG    1      -34.846   8.423 -40.596  0.00  0.00    +0.113 C 
ATOM      6  S   LIG    1      -34.001   8.965 -39.280  0.00  0.00    -0.028 S 
ATOM      7  N   LIG    1      -35.447   9.248 -41.490  0.00  0.00    -0.274 N 
ATOM      8  H   LIG    1      -35.404  10.251 -41.390  0.00  0.00    +0.156 HD
ENDROOT
TORSDOF 0
ENDMDL
MODEL 3
REMARK VINA RESULT:      -3.7      2.584      3.283
REMARK  Name = 
REMARK                            x       y       z     vdW  Elec       q    Type
REMARK                         _______ _______ _______ _____ _____    ______ ____
ROOT
ATOM      1  O   LIG    1      -44.340  14.384 -30.515  0.00  0.00    -0.275 OA
ATOM      2  C   LIG    1      -44.955  14.992 -31.381  0.00  0.00    +0.228 C 
ATOM      3  C   LIG    1      -45.252  16.469 -31.342  0.00  0.00    +0.172 C 
ATOM      4  S   LIG    1      -46.174  16.822 -32.865  0.00  0.00    -0.093 S 
ATOM      5  C   LIG    1      -46.121  15.166 -33.404  0.00  0.00    +0.113 C 
ATOM      6  S   LIG    1      -46.774  14.571 -34.803  0.00  0.00    -0.028 S 
ATOM      7  N   LIG    1      -45.455  14.400 -32.504  0.00  0.00    -0.274 N 
ATOM      8  H   LIG    1      -45.325  13.410 -32.652  0.00  0.00    +0.156 HD
ENDROOT
TORSDOF 0
ENDMDL
MODEL 4
REMARK VINA RESULT:      -3.7      2.948      3.640
REMARK  Name = 
REMARK                            x       y       z     vdW  Elec       q    Type
REMARK                         _______ _______ _______ _____ _____    ______ ____
ROOT
ATOM      1  O   LIG    1      -46.065  18.604 -31.512  0.00  0.00    -0.275 OA
ATOM      2  C   LIG    1      -45.820  17.426 -31.738  0.00  0.00    +0.228 C 
ATOM      3  C   LIG    1      -45.442  16.414 -30.687  0.00  0.00    +0.172 C 
ATOM      4  S   LIG    1      -45.200  14.852 -31.579  0.00  0.00    -0.093 S 
ATOM      5  C   LIG    1      -45.570  15.559 -33.128  0.00  0.00    +0.113 C 
ATOM      6  S   LIG    1      -45.581  14.774 -34.585  0.00  0.00    -0.028 S 
ATOM      7  N   LIG    1      -45.858  16.877 -32.987  0.00  0.00    -0.274 N 
ATOM      8  H   LIG    1      -46.097  17.450 -33.782  0.00  0.00    +0.156 HD
ENDROOT
TORSDOF 0
ENDMDL
MODEL 5
REMARK VINA RESULT:      -3.6     13.822     14.264
REMARK  Name = 
REMARK                            x       y       z     vdW  Elec       q    Type
REMARK                         _______ _______ _______ _____ _____    ______ ____
ROOT
ATOM      1  O   LIG    1      -37.664   7.432 -36.758  0.00  0.00    -0.275 OA
ATOM      2  C   LIG    1      -36.697   7.225 -37.479  0.00  0.00    +0.228 C 
ATOM      3  C   LIG    1      -35.638   6.186 -37.214  0.00  0.00    +0.172 C 
ATOM      4  S   LIG    1      -34.468   6.319 -38.595  0.00  0.00    -0.093 S 
ATOM      5  C   LIG    1      -35.355   7.609 -39.358  0.00  0.00    +0.113 C 
ATOM      6  S   LIG    1      -34.950   8.375 -40.769  0.00  0.00    -0.028 S 
ATOM      7  N   LIG    1      -36.456   7.919 -38.629  0.00  0.00    -0.274 N 
ATOM      8  H   LIG    1      -37.091   8.647 -38.921  0.00  0.00    +0.156 HD
ENDROOT
TORSDOF 0
ENDMDL
MODEL 6
REMARK VINA RESULT:      -3.6     15.249     15.517
REMARK  Name = 
REMARK                            x       y       z     vdW  Elec       q    Type
REMARK                         _______ _______ _______ _____ _____    ______ ____
ROOT
ATOM      1  O   LIG    1      -33.965   9.430 -39.273  0.00  0.00    -0.275 OA
ATOM      2  C   LIG    1      -34.525   8.761 -40.131  0.00  0.00    +0.228 C 
ATOM      3  C   LIG    1      -34.623   7.257 -40.118  0.00  0.00    +0.172 C 
ATOM      4  S   LIG    1      -35.553   6.815 -41.612  0.00  0.00    -0.093 S 
ATOM      5  C   LIG    1      -35.735   8.473 -42.115  0.00  0.00    +0.113 C 
ATOM      6  S   LIG    1      -36.514   9.003 -43.476  0.00  0.00    -0.028 S 
ATOM      7  N   LIG    1      -35.141   9.304 -41.223  0.00  0.00    -0.274 N 
ATOM      8  H   LIG    1      -35.147  10.304 -41.352  0.00  0.00    +0.156 HD
ENDROOT
TORSDOF 0
ENDMDL
MODEL 7
REMARK VINA RESULT:      -3.6     14.098     14.480
REMARK  Name = 
REMARK                            x       y       z     vdW  Elec       q    Type
REMARK                         _______ _______ _______ _____ _____    ______ ____
ROOT
ATOM      1  O   LIG    1      -37.576   7.852 -37.155  0.00  0.00    -0.275 OA
ATOM      2  C   LIG    1      -36.590   7.222 -37.512  0.00  0.00    +0.228 C 
ATOM      3  C   LIG    1      -35.789   7.517 -38.755  0.00  0.00    +0.172 C 
ATOM      4  S   LIG    1      -34.456   6.285 -38.780  0.00  0.00    -0.093 S 
ATOM      5  C   LIG    1      -34.985   5.531 -37.302  0.00  0.00    +0.113 C 
ATOM      6  S   LIG    1      -34.276   4.233 -36.558  0.00  0.00    -0.028 S 
ATOM      7  N   LIG    1      -36.085   6.160 -36.819  0.00  0.00    -0.274 N 
ATOM      8  H   LIG    1      -36.531   5.857 -35.966  0.00  0.00    +0.156 HD
ENDROOT
TORSDOF 0
ENDMDL
MODEL 8
REMARK VINA RESULT:      -3.5      3.054      3.557
REMARK  Name = 
REMARK                            x       y       z     vdW  Elec       q    Type
REMARK                         _______ _______ _______ _____ _____    ______ ____
ROOT
ATOM      1  O   LIG    1      -44.256  14.498 -30.534  0.00  0.00    -0.275 OA
ATOM      2  C   LIG    1      -44.860  15.295 -31.240  0.00  0.00    +0.228 C 
ATOM      3  C   LIG    1      -45.242  15.050 -32.677  0.00  0.00    +0.172 C 
ATOM      4  S   LIG    1      -46.112  16.549 -33.214  0.00  0.00    -0.093 S 
ATOM      5  C   LIG    1      -45.934  17.331 -31.668  0.00  0.00    +0.113 C 
ATOM      6  S   LIG    1      -46.482  18.840 -31.265  0.00  0.00    -0.028 S 
ATOM      7  N   LIG    1      -45.269  16.523 -30.805  0.00  0.00    -0.274 N 
ATOM      8  H   LIG    1      -45.074  16.813 -29.858  0.00  0.00    +0.156 HD
ENDROOT
TORSDOF 0
ENDMDL
MODEL 9
REMARK VINA RESULT:      -3.5     14.454     14.923
REMARK  Name = 
REMARK                            x       y       z     vdW  Elec       q    Type
REMARK                         _______ _______ _______ _____ _____    ______ ____
ROOT
ATOM      1  O   LIG    1      -37.571  19.994 -47.044  0.00  0.00    -0.275 OA
ATOM      2  C   LIG    1      -38.504  19.668 -46.323  0.00  0.00    +0.228 C 
ATOM      3  C   LIG    1      -38.808  18.253 -45.902  0.00  0.00    +0.172 C 
ATOM      4  S   LIG    1      -40.281  18.363 -44.848  0.00  0.00    -0.093 S 
ATOM      5  C   LIG    1      -40.398  20.094 -45.013  0.00  0.00    +0.113 C 
ATOM      6  S   LIG    1      -41.544  21.068 -44.323  0.00  0.00    -0.028 S 
ATOM      7  N   LIG    1      -39.398  20.559 -45.803  0.00  0.00    -0.274 N 
ATOM      8  H   LIG    1      -39.307  21.543 -46.010  0.00  0.00    +0.156 HD
ENDROOT
TORSDOF 0
ENDMDL
