MODEL 1
REMARK VINA RESULT:      -3.8      0.000      0.000
REMARK  Name = 
REMARK                            x       y       z     vdW  Elec       q    Type
REMARK                         _______ _______ _______ _____ _____    ______ ____
ROOT
ATOM      1  O   LIG    1       23.019  51.883  12.465  0.00  0.00    -0.275 OA
ATOM      2  C   LIG    1       22.470  50.849  12.823  0.00  0.00    +0.228 C 
ATOM      3  C   LIG    1       22.867  49.468  12.370  0.00  0.00    +0.172 C 
ATOM      4  S   LIG    1       21.728  48.333  13.211  0.00  0.00    -0.093 S 
ATOM      5  C   LIG    1       20.881  49.619  14.024  0.00  0.00    +0.113 C 
ATOM      6  S   LIG    1       19.603  49.447  15.062  0.00  0.00    -0.028 S 
ATOM      7  N   LIG    1       21.416  50.820  13.690  0.00  0.00    -0.274 N 
ATOM      8  H   LIG    1       21.050  51.681  14.068  0.00  0.00    +0.156 HD
ENDROOT
TORSDOF 0
ENDMDL
MODEL 2
REMARK VINA RESULT:      -3.6      5.608      6.544
REMARK  Name = 
REMARK                            x       y       z     vdW  Elec       q    Type
REMARK                         _______ _______ _______ _____ _____    ______ ____
ROOT
ATOM      1  O   LIG    1       16.676  51.195  18.555  0.00  0.00    -0.275 OA
ATOM      2  C   LIG    1       17.417  50.226  18.459  0.00  0.00    +0.228 C 
ATOM      3  C   LIG    1       17.111  48.855  19.006  0.00  0.00    +0.172 C 
ATOM      4  S   LIG    1       18.542  47.827  18.575  0.00  0.00    -0.093 S 
ATOM      5  C   LIG    1       19.376  49.135  17.783  0.00  0.00    +0.113 C 
ATOM      6  S   LIG    1       20.861  49.054  17.058  0.00  0.00    -0.028 S 
ATOM      7  N   LIG    1       18.631  50.268  17.835  0.00  0.00    -0.274 N 
ATOM      8  H   LIG    1       18.957  51.130  17.425  0.00  0.00    +0.156 HD
ENDROOT
TORSDOF 0
ENDMDL
MODEL 3
REMARK VINA RESULT:      -3.5      2.532      3.311
REMARK  Name = 
REMARK                            x       y       z     vdW  Elec       q    Type
REMARK                         _______ _______ _______ _____ _____    ______ ____
ROOT
ATOM      1  O   LIG    1       19.362  50.006  15.824  0.00  0.00    -0.275 OA
ATOM      2  C   LIG    1       20.174  49.510  15.055  0.00  0.00    +0.228 C 
ATOM      3  C   LIG    1       20.134  48.083  14.570  0.00  0.00    +0.172 C 
ATOM      4  S   LIG    1       21.561  47.904  13.464  0.00  0.00    -0.093 S 
ATOM      5  C   LIG    1       22.075  49.553  13.689  0.00  0.00    +0.113 C 
ATOM      6  S   LIG    1       23.392  50.272  12.991  0.00  0.00    -0.028 S 
ATOM      7  N   LIG    1       21.232  50.197  14.535  0.00  0.00    -0.274 N 
ATOM      8  H   LIG    1       21.375  51.165  14.782  0.00  0.00    +0.156 HD
ENDROOT
TORSDOF 0
ENDMDL
MODEL 4
REMARK VINA RESULT:      -3.5      6.639      7.728
REMARK  Name = 
REMARK                            x       y       z     vdW  Elec       q    Type
REMARK                         _______ _______ _______ _____ _____    ______ ____
ROOT
ATOM      1  O   LIG    1       16.106  46.588  18.587  0.00  0.00    -0.275 OA
ATOM      2  C   LIG    1       16.585  47.713  18.645  0.00  0.00    +0.228 C 
ATOM      3  C   LIG    1       16.069  48.820  19.528  0.00  0.00    +0.172 C 
ATOM      4  S   LIG    1       17.150  50.242  19.209  0.00  0.00    -0.093 S 
ATOM      5  C   LIG    1       18.116  49.380  18.045  0.00  0.00    +0.113 C 
ATOM      6  S   LIG    1       19.411  49.983  17.207  0.00  0.00    -0.028 S 
ATOM      7  N   LIG    1       17.662  48.109  17.905  0.00  0.00    -0.274 N 
ATOM      8  H   LIG    1       18.103  47.461  17.270  0.00  0.00    +0.156 HD
ENDROOT
TORSDOF 0
ENDMDL
MODEL 5
REMARK VINA RESULT:      -3.5      7.045      7.799
REMARK  Name = 
REMARK                            x       y       z     vdW  Elec       q    Type
REMARK                         _______ _______ _______ _____ _____    ______ ____
ROOT
ATOM      1  O   LIG    1       15.062  48.301  19.953  0.00  0.00    -0.275 OA
ATOM      2  C   LIG    1       15.975  48.117  19.159  0.00  0.00    +0.228 C 
ATOM      3  C   LIG    1       16.292  46.794  18.509  0.00  0.00    +0.172 C 
ATOM      4  S   LIG    1       17.724  47.106  17.440  0.00  0.00    -0.093 S 
ATOM      5  C   LIG    1       17.812  48.791  17.874  0.00  0.00    +0.113 C 
ATOM      6  S   LIG    1       18.914  49.890  17.311  0.00  0.00    -0.028 S 
ATOM      7  N   LIG    1       16.833  49.101  18.760  0.00  0.00    -0.274 N 
ATOM      8  H   LIG    1       16.731  50.036  19.123  0.00  0.00    +0.156 HD
ENDROOT
TORSDOF 0
ENDMDL
MODEL 6
REMARK VINA RESULT:      -3.5      5.723      6.247
REMARK  Name = 
REMARK                            x       y       z     vdW  Elec       q    Type
REMARK                         _______ _______ _______ _____ _____    ______ ____
ROOT
ATOM      1  O   LIG    1       20.549  48.132  17.469  0.00  0.00    -0.275 OA
ATOM      2  C   LIG    1       19.455  48.630  17.697  0.00  0.00    +0.228 C 
ATOM      3  C   LIG    1       19.072  50.048  17.361  0.00  0.00    +0.172 C 
ATOM      4  S   LIG    1       17.355  50.235  17.916  0.00  0.00    -0.093 S 
ATOM      5  C   LIG    1       17.257  48.598  18.502  0.00  0.00    +0.113 C 
ATOM      6  S   LIG    1       15.941  47.890  19.215  0.00  0.00    -0.028 S 
ATOM      7  N   LIG    1       18.432  47.952  18.295  0.00  0.00    -0.274 N 
ATOM      8  H   LIG    1       18.559  46.991  18.573  0.00  0.00    +0.156 HD
ENDROOT
TORSDOF 0
ENDMDL
MODEL 7
REMARK VINA RESULT:      -3.4     14.840     15.042
REMARK  Name = 
REMARK                            x       y       z     vdW  Elec       q    Type
REMARK                         _______ _______ _______ _____ _____    ______ ____
ROOT
ATOM      1  O   LIG    1       22.594  36.421  19.583  0.00  0.00    -0.275 OA
ATOM      2  C   LIG    1       23.742  36.501  19.167  0.00  0.00    +0.228 C 
ATOM      3  C   LIG    1       24.280  35.736  17.985  0.00  0.00    +0.172 C 
ATOM      4  S   LIG    1       26.015  36.244  17.825  0.00  0.00    -0.093 S 
ATOM      5  C   LIG    1       25.935  37.322  19.191  0.00  0.00    +0.113 C 
ATOM      6  S   LIG    1       27.172  38.251  19.779  0.00  0.00    -0.028 S 
ATOM      7  N   LIG    1       24.690  37.305  19.731  0.00  0.00    -0.274 N 
ATOM      8  H   LIG    1       24.458  37.871  20.533  0.00  0.00    +0.156 HD
ENDROOT
TORSDOF 0
ENDMDL
MODEL 8
REMARK VINA RESULT:      -3.4      7.585      8.099
REMARK  Name = 
REMARK                            x       y       z     vdW  Elec       q    Type
REMARK                         _______ _______ _______ _____ _____    ______ ____
ROOT
ATOM      1  O   LIG    1       15.050  48.296  20.178  0.00  0.00    -0.275 OA
ATOM      2  C   LIG    1       16.027  48.189  19.450  0.00  0.00    +0.228 C 
ATOM      3  C   LIG    1       17.322  48.938  19.637  0.00  0.00    +0.172 C 
ATOM      4  S   LIG    1       18.402  48.391  18.286  0.00  0.00    -0.093 S 
ATOM      5  C   LIG    1       17.201  47.319  17.620  0.00  0.00    +0.113 C 
ATOM      6  S   LIG    1       17.376  46.365  16.279  0.00  0.00    -0.028 S 
ATOM      7  N   LIG    1       16.066  47.366  18.361  0.00  0.00    -0.274 N 
ATOM      8  H   LIG    1       15.260  46.807  18.123  0.00  0.00    +0.156 HD
ENDROOT
TORSDOF 0
ENDMDL
MODEL 9
REMARK VINA RESULT:      -3.3      2.990      3.691
REMARK  Name = 
REMARK                            x       y       z     vdW  Elec       q    Type
REMARK                         _______ _______ _______ _____ _____    ______ ____
ROOT
ATOM      1  O   LIG    1       21.264  46.167  13.265  0.00  0.00    -0.275 OA
ATOM      2  C   LIG    1       21.176  47.359  13.527  0.00  0.00    +0.228 C 
ATOM      3  C   LIG    1       20.175  47.955  14.483  0.00  0.00    +0.172 C 
ATOM      4  S   LIG    1       20.503  49.740  14.483  0.00  0.00    -0.093 S 
ATOM      5  C   LIG    1       21.806  49.606  13.334  0.00  0.00    +0.113 C 
ATOM      6  S   LIG    1       22.720  50.852  12.740  0.00  0.00    -0.028 S 
ATOM      7  N   LIG    1       21.986  48.310  12.975  0.00  0.00    -0.274 N 
ATOM      8  H   LIG    1       22.701  48.042  12.315  0.00  0.00    +0.156 HD
ENDROOT
TORSDOF 0
ENDMDL
