REMARK  Name = 
REMARK                            x       y       z     vdW  Elec       q    Type
REMARK                         _______ _______ _______ _____ _____    ______ ____
ROOT
ATOM      1  O   LIG    1        1.295   0.170   0.694  0.00  0.00    -0.275 OA
ATOM      2  C   LIG    1        2.413   0.074   0.206  0.00  0.00    +0.228 C 
ATOM      3  C   LIG    1        3.143  -1.226  -0.015  0.00  0.00    +0.172 C 
ATOM      4  S   LIG    1        4.734  -0.772  -0.760  0.00  0.00    -0.093 S 
ATOM      5  C   LIG    1        4.378   0.933  -0.734  0.00  0.00    +0.113 C 
ATOM      6  S   LIG    1        5.367   2.148  -1.268  0.00  0.00    -0.028 S 
ATOM      7  N   LIG    1        3.148   1.149  -0.204  0.00  0.00    -0.274 N 
ATOM      8  H   LIG    1        2.773   2.081  -0.110  0.00  0.00    +0.156 HD
ENDROOT
TORSDOF 0
