MODEL 1
REMARK VINA RESULT:      -4.8      0.000      0.000
REMARK  Name = 
REMARK                            x       y       z     vdW  Elec       q    Type
REMARK                         _______ _______ _______ _____ _____    ______ ____
ROOT
ATOM      1  C   LIG    1       -4.443  -4.525  14.187  0.00  0.00    +0.000 A 
ATOM      2  C   LIG    1       -4.197  -4.882  15.513  0.00  0.00    +0.004 A 
ATOM      3  C   LIG    1       -5.189  -4.704  16.477  0.00  0.00    +0.045 A 
ATOM      4  C   LIG    1       -6.420  -4.172  16.108  0.00  0.00    +0.117 A 
ATOM      5  C   LIG    1       -6.676  -3.814  14.788  0.00  0.00    +0.045 A 
ATOM      6  C   LIG    1       -5.682  -3.991  13.824  0.00  0.00    +0.004 A 
ENDROOT
BRANCH   4   7
ATOM      7  O   LIG    1       -7.360  -4.013  17.082  0.00  0.00    -0.507 OA
ATOM      8  H   LIG    1       -7.050  -3.333  17.703  0.00  0.00    +0.292 HD
ENDBRANCH   4   7
TORSDOF 1
ENDMDL
MODEL 2
REMARK VINA RESULT:      -4.8      1.349      1.897
REMARK  Name = 
REMARK                            x       y       z     vdW  Elec       q    Type
REMARK                         _______ _______ _______ _____ _____    ______ ____
ROOT
ATOM      1  C   LIG    1       -5.841  -4.271  14.499  0.00  0.00    +0.000 A 
ATOM      2  C   LIG    1       -4.549  -4.674  14.838  0.00  0.00    +0.004 A 
ATOM      3  C   LIG    1       -4.259  -5.054  16.148  0.00  0.00    +0.045 A 
ATOM      4  C   LIG    1       -5.263  -5.028  17.109  0.00  0.00    +0.117 A 
ATOM      5  C   LIG    1       -6.556  -4.630  16.782  0.00  0.00    +0.045 A 
ATOM      6  C   LIG    1       -6.844  -4.249  15.470  0.00  0.00    +0.004 A 
ENDROOT
BRANCH   4   7
ATOM      7  O   LIG    1       -4.937  -5.406  18.378  0.00  0.00    -0.507 OA
ATOM      8  H   LIG    1       -4.008  -5.171  18.540  0.00  0.00    +0.292 HD
ENDBRANCH   4   7
TORSDOF 1
ENDMDL
MODEL 3
REMARK VINA RESULT:      -4.8      1.346      2.270
REMARK  Name = 
REMARK                            x       y       z     vdW  Elec       q    Type
REMARK                         _______ _______ _______ _____ _____    ______ ____
ROOT
ATOM      1  C   LIG    1       -5.944  -4.251  14.512  0.00  0.00    +0.000 A 
ATOM      2  C   LIG    1       -6.898  -4.240  15.529  0.00  0.00    +0.004 A 
ATOM      3  C   LIG    1       -6.547  -4.637  16.819  0.00  0.00    +0.045 A 
ATOM      4  C   LIG    1       -5.242  -5.043  17.082  0.00  0.00    +0.117 A 
ATOM      5  C   LIG    1       -4.282  -5.058  16.075  0.00  0.00    +0.045 A 
ATOM      6  C   LIG    1       -4.636  -4.660  14.784  0.00  0.00    +0.004 A 
ENDROOT
BRANCH   4   7
ATOM      7  O   LIG    1       -4.941  -5.425  18.356  0.00  0.00    -0.507 OA
ATOM      8  H   LIG    1       -5.356  -6.287  18.525  0.00  0.00    +0.292 HD
ENDBRANCH   4   7
TORSDOF 1
ENDMDL
MODEL 4
REMARK VINA RESULT:      -4.7      8.258      8.757
REMARK  Name = 
REMARK                            x       y       z     vdW  Elec       q    Type
REMARK                         _______ _______ _______ _____ _____    ______ ____
ROOT
ATOM      1  C   LIG    1       -1.005   1.950  20.283  0.00  0.00    +0.000 A 
ATOM      2  C   LIG    1       -1.732   1.441  21.360  0.00  0.00    +0.004 A 
ATOM      3  C   LIG    1       -1.634   0.090  21.690  0.00  0.00    +0.045 A 
ATOM      4  C   LIG    1       -0.810  -0.743  20.941  0.00  0.00    +0.117 A 
ATOM      5  C   LIG    1       -0.080  -0.246  19.865  0.00  0.00    +0.045 A 
ATOM      6  C   LIG    1       -0.180   1.107  19.536  0.00  0.00    +0.004 A 
ENDROOT
BRANCH   4   7
ATOM      7  O   LIG    1       -0.744  -2.058  21.296  0.00  0.00    -0.507 OA
ATOM      8  H   LIG    1       -0.336  -2.119  22.176  0.00  0.00    +0.292 HD
ENDBRANCH   4   7
TORSDOF 1
ENDMDL
MODEL 5
REMARK VINA RESULT:      -4.7      0.160      1.831
REMARK  Name = 
REMARK                            x       y       z     vdW  Elec       q    Type
REMARK                         _______ _______ _______ _____ _____    ______ ____
ROOT
ATOM      1  C   LIG    1       -4.468  -4.506  14.214  0.00  0.00    +0.000 A 
ATOM      2  C   LIG    1       -5.670  -3.897  13.853  0.00  0.00    +0.004 A 
ATOM      3  C   LIG    1       -6.700  -3.782  14.785  0.00  0.00    +0.045 A 
ATOM      4  C   LIG    1       -6.520  -4.276  16.073  0.00  0.00    +0.117 A 
ATOM      5  C   LIG    1       -5.325  -4.883  16.445  0.00  0.00    +0.045 A 
ATOM      6  C   LIG    1       -4.295  -4.999  15.509  0.00  0.00    +0.004 A 
ENDROOT
BRANCH   4   7
ATOM      7  O   LIG    1       -7.553  -4.143  16.954  0.00  0.00    -0.507 OA
ATOM      8  H   LIG    1       -7.814  -3.208  16.984  0.00  0.00    +0.292 HD
ENDBRANCH   4   7
TORSDOF 1
ENDMDL
MODEL 6
REMARK VINA RESULT:      -4.5      8.482      8.785
REMARK  Name = 
REMARK                            x       y       z     vdW  Elec       q    Type
REMARK                         _______ _______ _______ _____ _____    ______ ____
ROOT
ATOM      1  C   LIG    1       -1.373   1.555  20.373  0.00  0.00    +0.000 A 
ATOM      2  C   LIG    1       -0.316   1.193  19.538  0.00  0.00    +0.004 A 
ATOM      3  C   LIG    1        0.283  -0.058  19.675  0.00  0.00    +0.045 A 
ATOM      4  C   LIG    1       -0.179  -0.939  20.647  0.00  0.00    +0.117 A 
ATOM      5  C   LIG    1       -1.233  -0.589  21.485  0.00  0.00    +0.045 A 
ATOM      6  C   LIG    1       -1.832   0.665  21.347  0.00  0.00    +0.004 A 
ENDROOT
BRANCH   4   7
ATOM      7  O   LIG    1        0.436  -2.152  20.748  0.00  0.00    -0.507 OA
ATOM      8  H   LIG    1        0.751  -2.412  19.867  0.00  0.00    +0.292 HD
ENDBRANCH   4   7
TORSDOF 1
ENDMDL
MODEL 7
REMARK VINA RESULT:      -4.5      2.007      3.263
REMARK  Name = 
REMARK                            x       y       z     vdW  Elec       q    Type
REMARK                         _______ _______ _______ _____ _____    ______ ____
ROOT
ATOM      1  C   LIG    1       -6.667  -4.563  16.585  0.00  0.00    +0.000 A 
ATOM      2  C   LIG    1       -6.715  -4.107  15.267  0.00  0.00    +0.004 A 
ATOM      3  C   LIG    1       -5.564  -4.129  14.480  0.00  0.00    +0.045 A 
ATOM      4  C   LIG    1       -4.373  -4.606  15.017  0.00  0.00    +0.117 A 
ATOM      5  C   LIG    1       -4.314  -5.064  16.330  0.00  0.00    +0.045 A 
ATOM      6  C   LIG    1       -5.468  -5.040  17.117  0.00  0.00    +0.004 A 
ENDROOT
BRANCH   4   7
ATOM      7  O   LIG    1       -3.271  -4.609  14.214  0.00  0.00    -0.507 OA
ATOM      8  H   LIG    1       -3.179  -3.728  13.815  0.00  0.00    +0.292 HD
ENDBRANCH   4   7
TORSDOF 1
ENDMDL
MODEL 8
REMARK VINA RESULT:      -4.4      1.088      1.679
REMARK  Name = 
REMARK                            x       y       z     vdW  Elec       q    Type
REMARK                         _______ _______ _______ _____ _____    ______ ____
ROOT
ATOM      1  C   LIG    1       -4.330  -4.930  15.871  0.00  0.00    +0.000 A 
ATOM      2  C   LIG    1       -5.345  -4.856  16.824  0.00  0.00    +0.004 A 
ATOM      3  C   LIG    1       -6.660  -4.620  16.425  0.00  0.00    +0.045 A 
ATOM      4  C   LIG    1       -6.950  -4.460  15.074  0.00  0.00    +0.117 A 
ATOM      5  C   LIG    1       -5.945  -4.533  14.114  0.00  0.00    +0.045 A 
ATOM      6  C   LIG    1       -4.629  -4.769  14.516  0.00  0.00    +0.004 A 
ENDROOT
BRANCH   4   7
ATOM      7  O   LIG    1       -8.248  -4.229  14.727  0.00  0.00    -0.507 OA
ATOM      8  H   LIG    1       -8.573  -4.993  14.223  0.00  0.00    +0.292 HD
ENDBRANCH   4   7
TORSDOF 1
ENDMDL
MODEL 9
REMARK VINA RESULT:      -4.4      8.036      8.318
REMARK  Name = 
REMARK                            x       y       z     vdW  Elec       q    Type
REMARK                         _______ _______ _______ _____ _____    ______ ____
ROOT
ATOM      1  C   LIG    1        0.492  -1.443  19.929  0.00  0.00    +0.000 A 
ATOM      2  C   LIG    1        0.410  -0.546  18.863  0.00  0.00    +0.004 A 
ATOM      3  C   LIG    1       -0.460   0.542  18.933  0.00  0.00    +0.045 A 
ATOM      4  C   LIG    1       -1.241   0.726  20.070  0.00  0.00    +0.117 A 
ATOM      5  C   LIG    1       -1.166  -0.161  21.139  0.00  0.00    +0.045 A 
ATOM      6  C   LIG    1       -0.295  -1.251  21.067  0.00  0.00    +0.004 A 
ENDROOT
BRANCH   4   7
ATOM      7  O   LIG    1       -2.078   1.802  20.096  0.00  0.00    -0.507 OA
ATOM      8  H   LIG    1       -2.986   1.489  19.952  0.00  0.00    +0.292 HD
ENDBRANCH   4   7
TORSDOF 1
ENDMDL
