MODEL 1
REMARK VINA RESULT:      -5.1      0.000      0.000
REMARK  Name = 
REMARK                            x       y       z     vdW  Elec       q    Type
REMARK                         _______ _______ _______ _____ _____    ______ ____
ROOT
ATOM      1  C   LIG    1        2.682  29.755   4.532  0.00  0.00    +0.000 A 
ATOM      2  C   LIG    1        1.894  28.615   4.368  0.00  0.00    +0.004 A 
ATOM      3  C   LIG    1        2.365  27.375   4.796  0.00  0.00    +0.045 A 
ATOM      4  C   LIG    1        3.621  27.283   5.386  0.00  0.00    +0.117 A 
ATOM      5  C   LIG    1        4.415  28.412   5.556  0.00  0.00    +0.045 A 
ATOM      6  C   LIG    1        3.942  29.654   5.125  0.00  0.00    +0.004 A 
ENDROOT
BRANCH   4   7
ATOM      7  O   LIG    1        4.044  26.050   5.789  0.00  0.00    -0.507 OA
ATOM      8  H   LIG    1        4.220  25.512   5.000  0.00  0.00    +0.292 HD
ENDBRANCH   4   7
TORSDOF 1
ENDMDL
MODEL 2
REMARK VINA RESULT:      -5.1      0.049      1.829
REMARK  Name = 
REMARK                            x       y       z     vdW  Elec       q    Type
REMARK                         _______ _______ _______ _____ _____    ______ ____
ROOT
ATOM      1  C   LIG    1        2.712  29.786   4.558  0.00  0.00    +0.000 A 
ATOM      2  C   LIG    1        3.972  29.635   5.139  0.00  0.00    +0.004 A 
ATOM      3  C   LIG    1        4.407  28.372   5.539  0.00  0.00    +0.045 A 
ATOM      4  C   LIG    1        3.580  27.269   5.353  0.00  0.00    +0.117 A 
ATOM      5  C   LIG    1        2.323  27.408   4.773  0.00  0.00    +0.045 A 
ATOM      6  C   LIG    1        1.888  28.673   4.375  0.00  0.00    +0.004 A 
ENDROOT
BRANCH   4   7
ATOM      7  O   LIG    1        4.045  26.052   5.759  0.00  0.00    -0.507 OA
ATOM      8  H   LIG    1        3.770  25.909   6.679  0.00  0.00    +0.292 HD
ENDBRANCH   4   7
TORSDOF 1
ENDMDL
MODEL 3
REMARK VINA RESULT:      -5.0      8.122      9.366
REMARK  Name = 
REMARK                            x       y       z     vdW  Elec       q    Type
REMARK                         _______ _______ _______ _____ _____    ______ ____
ROOT
ATOM      1  C   LIG    1        4.546  21.911  13.403  0.00  0.00    +0.000 A 
ATOM      2  C   LIG    1        5.146  22.982  12.739  0.00  0.00    +0.004 A 
ATOM      3  C   LIG    1        4.754  23.303  11.440  0.00  0.00    +0.045 A 
ATOM      4  C   LIG    1        3.766  22.551  10.814  0.00  0.00    +0.117 A 
ATOM      5  C   LIG    1        3.160  21.482  11.467  0.00  0.00    +0.045 A 
ATOM      6  C   LIG    1        3.554  21.161  12.768  0.00  0.00    +0.004 A 
ENDROOT
BRANCH   4   7
ATOM      7  O   LIG    1        3.414  22.898   9.543  0.00  0.00    -0.507 OA
ATOM      8  H   LIG    1        3.901  23.702   9.297  0.00  0.00    +0.292 HD
ENDBRANCH   4   7
TORSDOF 1
ENDMDL
MODEL 4
REMARK VINA RESULT:      -4.6      1.930      2.646
REMARK  Name = 
REMARK                            x       y       z     vdW  Elec       q    Type
REMARK                         _______ _______ _______ _____ _____    ______ ____
ROOT
ATOM      1  C   LIG    1        4.048  28.596   5.367  0.00  0.00    +0.000 A 
ATOM      2  C   LIG    1        3.315  27.415   5.480  0.00  0.00    +0.004 A 
ATOM      3  C   LIG    1        1.953  27.410   5.181  0.00  0.00    +0.045 A 
ATOM      4  C   LIG    1        1.334  28.586   4.771  0.00  0.00    +0.117 A 
ATOM      5  C   LIG    1        2.056  29.770   4.654  0.00  0.00    +0.045 A 
ATOM      6  C   LIG    1        3.420  29.773   4.955  0.00  0.00    +0.004 A 
ENDROOT
BRANCH   4   7
ATOM      7  O   LIG    1        0.000  28.537   4.491  0.00  0.00    -0.507 OA
ATOM      8  H   LIG    1       -0.479  29.013   5.188  0.00  0.00    +0.292 HD
ENDBRANCH   4   7
TORSDOF 1
ENDMDL
MODEL 5
REMARK VINA RESULT:      -4.5      8.535      9.565
REMARK  Name = 
REMARK                            x       y       z     vdW  Elec       q    Type
REMARK                         _______ _______ _______ _____ _____    ______ ____
ROOT
ATOM      1  C   LIG    1        4.155  23.447  12.820  0.00  0.00    +0.000 A 
ATOM      2  C   LIG    1        4.472  22.317  13.574  0.00  0.00    +0.004 A 
ATOM      3  C   LIG    1        4.985  21.182  12.945  0.00  0.00    +0.045 A 
ATOM      4  C   LIG    1        5.178  21.187  11.568  0.00  0.00    +0.117 A 
ATOM      5  C   LIG    1        4.866  22.309  10.807  0.00  0.00    +0.045 A 
ATOM      6  C   LIG    1        4.351  23.444  11.437  0.00  0.00    +0.004 A 
ENDROOT
BRANCH   4   7
ATOM      7  O   LIG    1        5.680  20.057  10.993  0.00  0.00    -0.507 OA
ATOM      8  H   LIG    1        6.011  20.282  10.109  0.00  0.00    +0.292 HD
ENDBRANCH   4   7
TORSDOF 1
ENDMDL
MODEL 6
REMARK VINA RESULT:      -4.4      7.506      8.616
REMARK  Name = 
REMARK                            x       y       z     vdW  Elec       q    Type
REMARK                         _______ _______ _______ _____ _____    ______ ____
ROOT
ATOM      1  C   LIG    1        5.097  20.968  11.065  0.00  0.00    +0.000 A 
ATOM      2  C   LIG    1        5.357  20.145   9.969  0.00  0.00    +0.004 A 
ATOM      3  C   LIG    1        4.788  20.435   8.729  0.00  0.00    +0.045 A 
ATOM      4  C   LIG    1        3.963  21.547   8.595  0.00  0.00    +0.117 A 
ATOM      5  C   LIG    1        3.698  22.375   9.681  0.00  0.00    +0.045 A 
ATOM      6  C   LIG    1        4.268  22.082  10.922  0.00  0.00    +0.004 A 
ENDROOT
BRANCH   4   7
ATOM      7  O   LIG    1        3.426  21.794   7.366  0.00  0.00    -0.507 OA
ATOM      8  H   LIG    1        3.026  20.973   7.034  0.00  0.00    +0.292 HD
ENDBRANCH   4   7
TORSDOF 1
ENDMDL
MODEL 7
REMARK VINA RESULT:      -4.4      1.789      2.183
REMARK  Name = 
REMARK                            x       y       z     vdW  Elec       q    Type
REMARK                         _______ _______ _______ _____ _____    ______ ____
ROOT
ATOM      1  C   LIG    1        2.577  29.896   4.451  0.00  0.00    +0.000 A 
ATOM      2  C   LIG    1        1.213  29.807   4.170  0.00  0.00    +0.004 A 
ATOM      3  C   LIG    1        0.473  28.725   4.646  0.00  0.00    +0.045 A 
ATOM      4  C   LIG    1        1.103  27.740   5.401  0.00  0.00    +0.117 A 
ATOM      5  C   LIG    1        2.462  27.820   5.688  0.00  0.00    +0.045 A 
ATOM      6  C   LIG    1        3.201  28.904   5.210  0.00  0.00    +0.004 A 
ENDROOT
BRANCH   4   7
ATOM      7  O   LIG    1        0.342  26.699   5.845  0.00  0.00    -0.507 OA
ATOM      8  H   LIG    1       -0.487  26.686   5.340  0.00  0.00    +0.292 HD
ENDBRANCH   4   7
TORSDOF 1
ENDMDL
MODEL 8
REMARK VINA RESULT:      -4.4      7.936      8.989
REMARK  Name = 
REMARK                            x       y       z     vdW  Elec       q    Type
REMARK                         _______ _______ _______ _____ _____    ______ ____
ROOT
ATOM      1  C   LIG    1        5.515  20.406  10.595  0.00  0.00    +0.000 A 
ATOM      2  C   LIG    1        5.065  21.315  11.553  0.00  0.00    +0.004 A 
ATOM      3  C   LIG    1        3.996  22.163  11.260  0.00  0.00    +0.045 A 
ATOM      4  C   LIG    1        3.386  22.094  10.012  0.00  0.00    +0.117 A 
ATOM      5  C   LIG    1        3.826  21.190   9.051  0.00  0.00    +0.045 A 
ATOM      6  C   LIG    1        4.896  20.343   9.345  0.00  0.00    +0.004 A 
ENDROOT
BRANCH   4   7
ATOM      7  O   LIG    1        2.346  22.942   9.768  0.00  0.00    -0.507 OA
ATOM      8  H   LIG    1        1.711  22.869  10.499  0.00  0.00    +0.292 HD
ENDBRANCH   4   7
TORSDOF 1
ENDMDL
MODEL 9
REMARK VINA RESULT:      -4.4      7.392      8.561
REMARK  Name = 
REMARK                            x       y       z     vdW  Elec       q    Type
REMARK                         _______ _______ _______ _____ _____    ______ ____
ROOT
ATOM      1  C   LIG    1        4.591  20.586   9.432  0.00  0.00    +0.000 A 
ATOM      2  C   LIG    1        3.854  21.674   8.964  0.00  0.00    +0.004 A 
ATOM      3  C   LIG    1        3.767  22.837   9.729  0.00  0.00    +0.045 A 
ATOM      4  C   LIG    1        4.419  22.903  10.956  0.00  0.00    +0.117 A 
ATOM      5  C   LIG    1        5.158  21.824  11.432  0.00  0.00    +0.045 A 
ATOM      6  C   LIG    1        5.242  20.660  10.665  0.00  0.00    +0.004 A 
ENDROOT
BRANCH   4   7
ATOM      7  O   LIG    1        4.307  24.058  11.673  0.00  0.00    -0.507 OA
ATOM      8  H   LIG    1        4.618  23.891  12.578  0.00  0.00    +0.292 HD
ENDBRANCH   4   7
TORSDOF 1
ENDMDL
