MODEL 1
REMARK VINA RESULT:      -4.9      0.000      0.000
REMARK  Name = 
REMARK                            x       y       z     vdW  Elec       q    Type
REMARK                         _______ _______ _______ _____ _____    ______ ____
ROOT
ATOM      1  O   LIG    1       -8.798   9.343  21.240  0.00  0.00    -0.293 OA
ATOM      2  C   LIG    1       -9.286   9.166  20.127  0.00  0.00    +0.157 C 
ATOM      3  C   LIG    1       -8.490   9.276  18.835  0.00  0.00    +0.083 C 
ATOM      4  C   LIG    1       -9.426   9.562  17.634  0.00  0.00    +0.043 C 
ATOM      5  C   LIG    1      -10.532   8.527  17.575  0.00  0.00    -0.044 C 
ATOM      6  C   LIG    1      -11.181   8.036  16.483  0.00  0.00    -0.055 C 
ATOM      7  C   LIG    1      -12.116   6.808  16.728  0.00  0.00    +0.020 C 
ATOM      8  C   LIG    1      -12.396   6.348  18.171  0.00  0.00    +0.013 C 
ATOM      9  C   LIG    1      -11.172   6.562  19.025  0.00  0.00    +0.036 C 
ATOM     10  C   LIG    1      -13.462   6.636  15.901  0.00  0.00    +0.006 C 
ATOM     11  C   LIG    1      -14.609   5.644  15.670  0.00  0.00    +0.008 C 
ATOM     12  C   LIG    1      -14.170   5.064  14.255  0.00  0.00    +0.049 C 
ATOM     13  C   LIG    1      -12.992   6.041  13.743  0.00  0.00    +0.132 C 
ATOM     14  C   LIG    1      -13.421   7.359  14.498  0.00  0.00    +0.012 C 
ATOM     15  C   LIG    1      -14.784   7.866  13.901  0.00  0.00    +0.015 C 
ATOM     16  C   LIG    1      -12.777   8.734  14.872  0.00  0.00    +0.023 C 
ATOM     17  C   LIG    1      -11.276   8.765  15.111  0.00  0.00    +0.046 C 
ATOM     18  C   LIG    1      -10.844   8.012  18.914  0.00  0.00    -0.041 C 
ATOM     19  C   LIG    1      -10.734   8.779  20.013  0.00  0.00    +0.050 C 
ENDROOT
BRANCH  17  20
ATOM     20  C   LIG    1      -10.612   8.491  13.741  0.00  0.00    -0.040 A 
ATOM     21  C   LIG    1       -9.484   7.723  13.478  0.00  0.00    +0.006 A 
ATOM     22  C   LIG    1       -8.968   7.604  12.140  0.00  0.00    +0.023 A 
ATOM     23  C   LIG    1       -9.545   8.233  11.014  0.00  0.00    +0.029 A 
ATOM     24  C   LIG    1      -10.607   9.066  11.307  0.00  0.00    +0.023 A 
ATOM     25  C   LIG    1      -11.094   9.205  12.608  0.00  0.00    +0.006 A 
BRANCH  23  26
ATOM     26  N   LIG    1       -9.103   8.115   9.705  0.00  0.00    -0.336 N 
ATOM     27  C   LIG    1       -9.943   8.437   8.564  0.00  0.00    +0.129 C 
ATOM     28  C   LIG    1       -7.687   7.889   9.386  0.00  0.00    +0.129 C 
ENDBRANCH  23  26
ENDBRANCH  17  20
BRANCH  13  29
ATOM     29  C   LIG    1      -12.784   5.849  12.319  0.00  0.00    -0.067 C 
ATOM     30  C   LIG    1      -12.129   5.550  11.371  0.00  0.00    -0.103 C 
ATOM     31  C   LIG    1      -11.335   5.186  10.221  0.00  0.00    +0.106 C 
ENDBRANCH  13  29
BRANCH  13  32
ATOM     32  O   LIG    1      -11.743   5.526  14.251  0.00  0.00    -0.376 OA
ATOM     33  H   LIG    1      -11.314   5.057  13.515  0.00  0.00    +0.211 HD
ENDBRANCH  13  32
TORSDOF 4
ENDMDL
MODEL 2
REMARK VINA RESULT:      -4.5     11.008     13.153
REMARK  Name = 
REMARK                            x       y       z     vdW  Elec       q    Type
REMARK                         _______ _______ _______ _____ _____    ______ ____
ROOT
ATOM      1  O   LIG    1       -2.445  -4.173  17.592  0.00  0.00    -0.293 OA
ATOM      2  C   LIG    1       -3.405  -4.261  16.830  0.00  0.00    +0.157 C 
ATOM      3  C   LIG    1       -4.556  -3.267  16.813  0.00  0.00    +0.083 C 
ATOM      4  C   LIG    1       -5.828  -3.907  16.201  0.00  0.00    +0.043 C 
ATOM      5  C   LIG    1       -5.515  -4.490  14.838  0.00  0.00    -0.044 C 
ATOM      6  C   LIG    1       -6.332  -4.609  13.755  0.00  0.00    -0.055 C 
ATOM      7  C   LIG    1       -5.649  -5.044  12.418  0.00  0.00    +0.020 C 
ATOM      8  C   LIG    1       -4.173  -5.486  12.431  0.00  0.00    +0.013 C 
ATOM      9  C   LIG    1       -3.409  -4.689  13.459  0.00  0.00    +0.036 C 
ATOM     10  C   LIG    1       -6.416  -5.973  11.380  0.00  0.00    +0.006 C 
ATOM     11  C   LIG    1       -6.279  -6.565   9.972  0.00  0.00    +0.008 C 
ATOM     12  C   LIG    1       -7.269  -5.599   9.186  0.00  0.00    +0.049 C 
ATOM     13  C   LIG    1       -8.066  -4.786  10.330  0.00  0.00    +0.132 C 
ATOM     14  C   LIG    1       -7.987  -5.854  11.490  0.00  0.00    +0.012 C 
ATOM     15  C   LIG    1       -8.841  -7.109  11.084  0.00  0.00    +0.015 C 
ATOM     16  C   LIG    1       -8.197  -5.890  13.039  0.00  0.00    +0.023 C 
ATOM     17  C   LIG    1       -7.886  -4.622  13.820  0.00  0.00    +0.046 C 
ATOM     18  C   LIG    1       -4.111  -4.913  14.754  0.00  0.00    -0.041 C 
ATOM     19  C   LIG    1       -3.445  -5.379  15.827  0.00  0.00    +0.050 C 
ENDROOT
BRANCH  17  20
ATOM     20  C   LIG    1       -8.952  -3.582  13.401  0.00  0.00    -0.040 A 
ATOM     21  C   LIG    1      -10.261  -3.818  12.999  0.00  0.00    +0.006 A 
ATOM     22  C   LIG    1      -11.117  -2.732  12.599  0.00  0.00    +0.023 A 
ATOM     23  C   LIG    1      -10.717  -1.377  12.583  0.00  0.00    +0.029 A 
ATOM     24  C   LIG    1       -9.387  -1.171  12.896  0.00  0.00    +0.023 A 
ATOM     25  C   LIG    1       -8.546  -2.225  13.259  0.00  0.00    +0.006 A 
BRANCH  23  26
ATOM     26  N   LIG    1      -11.519  -0.300  12.241  0.00  0.00    -0.336 N 
ATOM     27  C   LIG    1      -12.930  -0.445  11.924  0.00  0.00    +0.129 C 
ATOM     28  C   LIG    1      -11.063   1.086  12.409  0.00  0.00    +0.129 C 
ENDBRANCH  23  26
ENDBRANCH  17  20
BRANCH  13  29
ATOM     29  C   LIG    1       -9.248  -4.170   9.756  0.00  0.00    -0.067 C 
ATOM     30  C   LIG    1      -10.309  -4.202   9.218  0.00  0.00    -0.103 C 
ATOM     31  C   LIG    1      -11.597  -4.242   8.566  0.00  0.00    +0.106 C 
ENDBRANCH  13  29
BRANCH  13  32
ATOM     32  O   LIG    1       -7.296  -3.607  10.646  0.00  0.00    -0.376 OA
ATOM     33  H   LIG    1       -7.831  -3.081  11.265  0.00  0.00    +0.211 HD
ENDBRANCH  13  32
TORSDOF 4
ENDMDL
MODEL 3
REMARK VINA RESULT:      -4.4      5.318     10.199
REMARK  Name = 
REMARK                            x       y       z     vdW  Elec       q    Type
REMARK                         _______ _______ _______ _____ _____    ______ ____
ROOT
ATOM      1  O   LIG    1      -16.722   3.627  12.696  0.00  0.00    -0.293 OA
ATOM      2  C   LIG    1      -16.547   3.860  13.889  0.00  0.00    +0.157 C 
ATOM      3  C   LIG    1      -16.648   2.800  14.975  0.00  0.00    +0.083 C 
ATOM      4  C   LIG    1      -16.941   3.448  16.352  0.00  0.00    +0.043 C 
ATOM      5  C   LIG    1      -15.914   4.522  16.652  0.00  0.00    -0.044 C 
ATOM      6  C   LIG    1      -15.427   4.920  17.860  0.00  0.00    -0.055 C 
ATOM      7  C   LIG    1      -14.206   5.896  17.825  0.00  0.00    +0.020 C 
ATOM      8  C   LIG    1      -13.751   6.490  16.479  0.00  0.00    +0.013 C 
ATOM      9  C   LIG    1      -13.957   5.481  15.378  0.00  0.00    +0.036 C 
ATOM     10  C   LIG    1      -14.044   7.030  18.928  0.00  0.00    +0.006 C 
ATOM     11  C   LIG    1      -13.060   8.106  19.405  0.00  0.00    +0.008 C 
ATOM     12  C   LIG    1      -12.475   7.372  20.689  0.00  0.00    +0.049 C 
ATOM     13  C   LIG    1      -13.441   6.103  20.930  0.00  0.00    +0.132 C 
ATOM     14  C   LIG    1      -14.764   6.676  20.288  0.00  0.00    +0.012 C 
ATOM     15  C   LIG    1      -15.281   7.871  21.169  0.00  0.00    +0.015 C 
ATOM     16  C   LIG    1      -16.134   6.119  19.781  0.00  0.00    +0.023 C 
ATOM     17  C   LIG    1      -16.154   4.706  19.219  0.00  0.00    +0.046 C 
ATOM     18  C   LIG    1      -15.403   5.124  15.414  0.00  0.00    -0.041 C 
ATOM     19  C   LIG    1      -16.172   5.251  14.317  0.00  0.00    +0.050 C 
ENDROOT
BRANCH  17  20
ATOM     20  C   LIG    1      -15.873   3.761  20.411  0.00  0.00    -0.040 A 
ATOM     21  C   LIG    1      -16.298   3.898  21.726  0.00  0.00    +0.006 A 
ATOM     22  C   LIG    1      -15.911   2.943  22.730  0.00  0.00    +0.023 A 
ATOM     23  C   LIG    1      -15.094   1.818  22.476  0.00  0.00    +0.029 A 
ATOM     24  C   LIG    1      -14.605   1.749  21.185  0.00  0.00    +0.023 A 
ATOM     25  C   LIG    1      -14.958   2.689  20.215  0.00  0.00    +0.006 A 
BRANCH  23  26
ATOM     26  N   LIG    1      -14.729   0.856  23.404  0.00  0.00    -0.336 N 
ATOM     27  C   LIG    1      -14.828   1.074  24.837  0.00  0.00    +0.129 C 
ATOM     28  C   LIG    1      -14.446  -0.530  23.008  0.00  0.00    +0.129 C 
ENDBRANCH  23  26
ENDBRANCH  17  20
BRANCH  13  29
ATOM     29  C   LIG    1      -13.246   5.589  22.274  0.00  0.00    -0.067 C 
ATOM     30  C   LIG    1      -12.813   4.809  23.061  0.00  0.00    -0.103 C 
ATOM     31  C   LIG    1      -12.287   3.862  24.016  0.00  0.00    +0.106 C 
ENDBRANCH  13  29
BRANCH  13  32
ATOM     32  O   LIG    1      -12.917   5.000  20.161  0.00  0.00    -0.376 OA
ATOM     33  H   LIG    1      -12.009   4.848  20.473  0.00  0.00    +0.211 HD
ENDBRANCH  13  32
TORSDOF 4
ENDMDL
MODEL 4
REMARK VINA RESULT:      -4.2      5.325      9.945
REMARK  Name = 
REMARK                            x       y       z     vdW  Elec       q    Type
REMARK                         _______ _______ _______ _____ _____    ______ ____
ROOT
ATOM      1  O   LIG    1      -14.092   5.453  12.532  0.00  0.00    -0.293 OA
ATOM      2  C   LIG    1      -14.326   5.441  13.738  0.00  0.00    +0.157 C 
ATOM      3  C   LIG    1      -14.928   4.248  14.464  0.00  0.00    +0.083 C 
ATOM      4  C   LIG    1      -15.614   4.693  15.780  0.00  0.00    +0.043 C 
ATOM      5  C   LIG    1      -14.646   5.490  16.631  0.00  0.00    -0.044 C 
ATOM      6  C   LIG    1      -14.577   5.577  17.988  0.00  0.00    -0.055 C 
ATOM      7  C   LIG    1      -13.320   6.300  18.571  0.00  0.00    +0.020 C 
ATOM      8  C   LIG    1      -12.350   7.021  17.616  0.00  0.00    +0.013 C 
ATOM      9  C   LIG    1      -12.266   6.272  16.310  0.00  0.00    +0.036 C 
ATOM     10  C   LIG    1      -13.430   7.178  19.893  0.00  0.00    +0.006 C 
ATOM     11  C   LIG    1      -12.564   7.955  20.892  0.00  0.00    +0.008 C 
ATOM     12  C   LIG    1      -12.562   6.916  22.097  0.00  0.00    +0.049 C 
ATOM     13  C   LIG    1      -13.690   5.826  21.719  0.00  0.00    +0.132 C 
ATOM     14  C   LIG    1      -14.623   6.737  20.829  0.00  0.00    +0.012 C 
ATOM     15  C   LIG    1      -15.278   7.837  21.740  0.00  0.00    +0.015 C 
ATOM     16  C   LIG    1      -15.778   6.539  19.794  0.00  0.00    +0.023 C 
ATOM     17  C   LIG    1      -15.759   5.272  18.952  0.00  0.00    +0.046 C 
ATOM     18  C   LIG    1      -13.662   6.190  15.794  0.00  0.00    -0.041 C 
ATOM     19  C   LIG    1      -13.970   6.644  14.566  0.00  0.00    +0.050 C 
ENDROOT
BRANCH  17  20
ATOM     20  C   LIG    1      -16.030   4.101  19.926  0.00  0.00    -0.040 A 
ATOM     21  C   LIG    1      -16.928   4.064  20.986  0.00  0.00    +0.006 A 
ATOM     22  C   LIG    1      -17.029   2.901  21.827  0.00  0.00    +0.023 A 
ATOM     23  C   LIG    1      -16.254   1.732  21.653  0.00  0.00    +0.029 A 
ATOM     24  C   LIG    1      -15.304   1.821  20.654  0.00  0.00    +0.023 A 
ATOM     25  C   LIG    1      -15.185   2.959  19.853  0.00  0.00    +0.006 A 
BRANCH  23  26
ATOM     26  N   LIG    1      -16.346   0.578  22.416  0.00  0.00    -0.336 N 
ATOM     27  C   LIG    1      -15.178  -0.188  22.817  0.00  0.00    +0.129 C 
ATOM     28  C   LIG    1      -17.599   0.185  23.071  0.00  0.00    +0.129 C 
ENDBRANCH  23  26
ENDBRANCH  17  20
BRANCH  13  29
ATOM     29  C   LIG    1      -14.045   5.062  22.901  0.00  0.00    -0.067 C 
ATOM     30  C   LIG    1      -14.028   4.085  23.581  0.00  0.00    -0.103 C 
ATOM     31  C   LIG    1      -14.006   2.900  24.406  0.00  0.00    +0.106 C 
ENDBRANCH  13  29
BRANCH  13  32
ATOM     32  O   LIG    1      -13.057   4.793  20.933  0.00  0.00    -0.376 OA
ATOM     33  H   LIG    1      -13.439   3.947  21.224  0.00  0.00    +0.211 HD
ENDBRANCH  13  32
TORSDOF 4
ENDMDL
MODEL 5
REMARK VINA RESULT:      -4.0      3.940      5.638
REMARK  Name = 
REMARK                            x       y       z     vdW  Elec       q    Type
REMARK                         _______ _______ _______ _____ _____    ______ ____
ROOT
ATOM      1  O   LIG    1       -5.815   8.424  12.687  0.00  0.00    -0.293 OA
ATOM      2  C   LIG    1       -6.999   8.424  12.357  0.00  0.00    +0.157 C 
ATOM      3  C   LIG    1       -7.469   8.581  10.919  0.00  0.00    +0.083 C 
ATOM      4  C   LIG    1       -8.928   9.100  10.870  0.00  0.00    +0.043 C 
ATOM      5  C   LIG    1       -9.827   8.209  11.703  0.00  0.00    -0.044 C 
ATOM      6  C   LIG    1      -11.144   7.915  11.517  0.00  0.00    -0.055 C 
ATOM      7  C   LIG    1      -11.733   6.781  12.417  0.00  0.00    +0.020 C 
ATOM      8  C   LIG    1      -10.879   6.203  13.562  0.00  0.00    +0.013 C 
ATOM      9  C   LIG    1       -9.427   6.185  13.158  0.00  0.00    +0.036 C 
ATOM     10  C   LIG    1      -13.236   6.853  12.931  0.00  0.00    +0.006 C 
ATOM     11  C   LIG    1      -14.285   6.027  13.686  0.00  0.00    +0.008 C 
ATOM     12  C   LIG    1      -15.180   5.557  12.458  0.00  0.00    +0.049 C 
ATOM     13  C   LIG    1      -14.680   6.444  11.205  0.00  0.00    +0.132 C 
ATOM     14  C   LIG    1      -14.169   7.713  11.992  0.00  0.00    +0.012 C 
ATOM     15  C   LIG    1      -15.401   8.432  12.652  0.00  0.00    +0.015 C 
ATOM     16  C   LIG    1      -13.266   8.958  11.709  0.00  0.00    +0.023 C 
ATOM     17  C   LIG    1      -12.137   8.793  10.703  0.00  0.00    +0.046 C 
ATOM     18  C   LIG    1       -9.081   7.591  12.807  0.00  0.00    -0.041 C 
ATOM     19  C   LIG    1       -8.053   8.218  13.408  0.00  0.00    +0.050 C 
ENDROOT
BRANCH  17  20
ATOM     20  C   LIG    1      -12.810   8.595   9.324  0.00  0.00    -0.040 A 
ATOM     21  C   LIG    1      -12.415   7.745   8.297  0.00  0.00    +0.006 A 
ATOM     22  C   LIG    1      -13.133   7.712   7.051  0.00  0.00    +0.023 A 
ATOM     23  C   LIG    1      -14.265   8.511   6.770  0.00  0.00    +0.029 A 
ATOM     24  C   LIG    1      -14.586   9.414   7.765  0.00  0.00    +0.023 A 
ATOM     25  C   LIG    1      -13.875   9.468   8.966  0.00  0.00    +0.006 A 
BRANCH  23  26
ATOM     26  N   LIG    1      -15.006   8.483   5.599  0.00  0.00    -0.336 N 
ATOM     27  C   LIG    1      -14.562   7.776   4.410  0.00  0.00    +0.129 C 
ATOM     28  C   LIG    1      -16.394   8.959   5.554  0.00  0.00    +0.129 C 
ENDBRANCH  23  26
ENDBRANCH  17  20
BRANCH  13  29
ATOM     29  C   LIG    1      -15.667   6.384  10.141  0.00  0.00    -0.067 C 
ATOM     30  C   LIG    1      -16.035   6.091   9.048  0.00  0.00    -0.103 C 
ATOM     31  C   LIG    1      -16.481   5.735   7.722  0.00  0.00    +0.106 C 
ENDBRANCH  13  29
BRANCH  13  32
ATOM     32  O   LIG    1      -13.589   5.739  10.577  0.00  0.00    -0.376 OA
ATOM     33  H   LIG    1      -12.864   5.712  11.224  0.00  0.00    +0.211 HD
ENDBRANCH  13  32
TORSDOF 4
ENDMDL
MODEL 6
REMARK VINA RESULT:      -3.9      1.611      2.302
REMARK  Name = 
REMARK                            x       y       z     vdW  Elec       q    Type
REMARK                         _______ _______ _______ _____ _____    ______ ____
ROOT
ATOM      1  O   LIG    1       -8.062   9.443  20.350  0.00  0.00    -0.293 OA
ATOM      2  C   LIG    1       -8.924   9.212  19.504  0.00  0.00    +0.157 C 
ATOM      3  C   LIG    1       -8.686   9.341  18.007  0.00  0.00    +0.083 C 
ATOM      4  C   LIG    1      -10.024   9.546  17.253  0.00  0.00    +0.043 C 
ATOM      5  C   LIG    1      -11.001   8.446  17.615  0.00  0.00    -0.044 C 
ATOM      6  C   LIG    1      -11.983   7.893  16.851  0.00  0.00    -0.055 C 
ATOM      7  C   LIG    1      -12.675   6.617  17.430  0.00  0.00    +0.020 C 
ATOM      8  C   LIG    1      -12.358   6.172  18.870  0.00  0.00    +0.013 C 
ATOM      9  C   LIG    1      -10.918   6.478  19.195  0.00  0.00    +0.036 C 
ATOM     10  C   LIG    1      -14.221   6.347  17.176  0.00  0.00    +0.006 C 
ATOM     11  C   LIG    1      -15.305   5.284  17.395  0.00  0.00    +0.008 C 
ATOM     12  C   LIG    1      -15.399   4.700  15.918  0.00  0.00    +0.049 C 
ATOM     13  C   LIG    1      -14.568   5.734  15.000  0.00  0.00    +0.132 C 
ATOM     14  C   LIG    1      -14.762   7.041  15.864  0.00  0.00    +0.012 C 
ATOM     15  C   LIG    1      -16.278   7.452  15.831  0.00  0.00    +0.015 C 
ATOM     16  C   LIG    1      -14.112   8.459  15.969  0.00  0.00    +0.023 C 
ATOM     17  C   LIG    1      -12.637   8.585  15.620  0.00  0.00    +0.046 C 
ATOM     18  C   LIG    1      -10.749   7.942  18.972  0.00  0.00    -0.041 C 
ATOM     19  C   LIG    1      -10.278   8.738  19.949  0.00  0.00    +0.050 C 
ENDROOT
BRANCH  17  20
ATOM     20  C   LIG    1      -12.527   8.321  14.099  0.00  0.00    -0.040 A 
ATOM     21  C   LIG    1      -13.336   8.823  13.087  0.00  0.00    +0.006 A 
ATOM     22  C   LIG    1      -13.122   8.443  11.715  0.00  0.00    +0.023 A 
ATOM     23  C   LIG    1      -12.104   7.559  11.292  0.00  0.00    +0.029 A 
ATOM     24  C   LIG    1      -11.370   6.999  12.320  0.00  0.00    +0.023 A 
ATOM     25  C   LIG    1      -11.593   7.345  13.654  0.00  0.00    +0.006 A 
BRANCH  23  26
ATOM     26  N   LIG    1      -11.840   7.196   9.980  0.00  0.00    -0.336 N 
ATOM     27  C   LIG    1      -12.569   6.139   9.300  0.00  0.00    +0.129 C 
ATOM     28  C   LIG    1      -10.979   8.010   9.113  0.00  0.00    +0.129 C 
ENDBRANCH  23  26
ENDBRANCH  17  20
BRANCH  13  29
ATOM     29  C   LIG    1      -14.904   5.524  13.603  0.00  0.00    -0.067 C 
ATOM     30  C   LIG    1      -15.436   5.822  12.581  0.00  0.00    -0.103 C 
ATOM     31  C   LIG    1      -16.082   6.184  11.341  0.00  0.00    +0.106 C 
ENDBRANCH  13  29
BRANCH  13  32
ATOM     32  O   LIG    1      -13.189   5.306  14.994  0.00  0.00    -0.376 OA
ATOM     33  H   LIG    1      -13.065   4.777  14.188  0.00  0.00    +0.211 HD
ENDBRANCH  13  32
TORSDOF 4
ENDMDL
MODEL 7
REMARK VINA RESULT:      -3.8      4.095      5.724
REMARK  Name = 
REMARK                            x       y       z     vdW  Elec       q    Type
REMARK                         _______ _______ _______ _____ _____    ______ ____
ROOT
ATOM      1  O   LIG    1       -5.403   8.143  14.256  0.00  0.00    -0.293 OA
ATOM      2  C   LIG    1       -6.350   8.269  13.483  0.00  0.00    +0.157 C 
ATOM      3  C   LIG    1       -6.188   8.542  11.995  0.00  0.00    +0.083 C 
ATOM      4  C   LIG    1       -7.466   9.195  11.412  0.00  0.00    +0.043 C 
ATOM      5  C   LIG    1       -8.681   8.351  11.741  0.00  0.00    -0.044 C 
ATOM      6  C   LIG    1       -9.826   8.189  11.022  0.00  0.00    -0.055 C 
ATOM      7  C   LIG    1      -10.800   7.071  11.514  0.00  0.00    +0.020 C 
ATOM      8  C   LIG    1      -10.521   6.359  12.851  0.00  0.00    +0.013 C 
ATOM      9  C   LIG    1       -9.033   6.226  13.060  0.00  0.00    +0.036 C 
ATOM     10  C   LIG    1      -12.374   7.255  11.390  0.00  0.00    +0.006 C 
ATOM     11  C   LIG    1      -13.690   6.493  11.593  0.00  0.00    +0.008 C 
ATOM     12  C   LIG    1      -14.040   6.170  10.075  0.00  0.00    +0.049 C 
ATOM     13  C   LIG    1      -13.022   7.069   9.204  0.00  0.00    +0.132 C 
ATOM     14  C   LIG    1      -12.791   8.245  10.233  0.00  0.00    +0.012 C 
ATOM     15  C   LIG    1      -14.136   9.040  10.405  0.00  0.00    +0.015 C 
ATOM     16  C   LIG    1      -11.773   9.413  10.438  0.00  0.00    +0.023 C 
ATOM     17  C   LIG    1      -10.347   9.196   9.956  0.00  0.00    +0.046 C 
ATOM     18  C   LIG    1       -8.486   7.611  12.995  0.00  0.00    -0.041 C 
ATOM     19  C   LIG    1       -7.750   8.109  14.005  0.00  0.00    +0.050 C 
ENDROOT
BRANCH  17  20
ATOM     20  C   LIG    1      -10.416   9.131   8.411  0.00  0.00    -0.040 A 
ATOM     21  C   LIG    1      -11.448   9.561   7.586  0.00  0.00    +0.006 A 
ATOM     22  C   LIG    1      -11.371   9.389   6.159  0.00  0.00    +0.023 A 
ATOM     23  C   LIG    1      -10.277   8.790   5.494  0.00  0.00    +0.029 A 
ATOM     24  C   LIG    1       -9.305   8.286   6.336  0.00  0.00    +0.023 A 
ATOM     25  C   LIG    1       -9.388   8.428   7.723  0.00  0.00    +0.006 A 
BRANCH  23  26
ATOM     26  N   LIG    1      -10.147   8.638   4.123  0.00  0.00    -0.336 N 
ATOM     27  C   LIG    1       -8.995   9.133   3.388  0.00  0.00    +0.129 C 
ATOM     28  C   LIG    1      -11.040   7.761   3.356  0.00  0.00    +0.129 C 
ENDBRANCH  23  26
ENDBRANCH  17  20
BRANCH  13  29
ATOM     29  C   LIG    1      -13.495   7.155   7.835  0.00  0.00    -0.067 C 
ATOM     30  C   LIG    1      -14.095   6.750   6.890  0.00  0.00    -0.103 C 
ATOM     31  C   LIG    1      -14.822   6.259   5.743  0.00  0.00    +0.106 C 
ENDBRANCH  13  29
BRANCH  13  32
ATOM     32  O   LIG    1      -11.817   6.300   9.006  0.00  0.00    -0.376 OA
ATOM     33  H   LIG    1      -11.520   6.013   9.887  0.00  0.00    +0.211 HD
ENDBRANCH  13  32
TORSDOF 4
ENDMDL
MODEL 8
REMARK VINA RESULT:      -3.7      2.980      7.041
REMARK  Name = 
REMARK                            x       y       z     vdW  Elec       q    Type
REMARK                         _______ _______ _______ _____ _____    ______ ____
ROOT
ATOM      1  O   LIG    1       -7.312   8.063   9.292  0.00  0.00    -0.293 OA
ATOM      2  C   LIG    1       -8.154   7.788  10.144  0.00  0.00    +0.157 C 
ATOM      3  C   LIG    1       -7.969   8.070  11.627  0.00  0.00    +0.083 C 
ATOM      4  C   LIG    1       -8.875   7.148  12.481  0.00  0.00    +0.043 C 
ATOM      5  C   LIG    1      -10.315   7.259  12.021  0.00  0.00    -0.044 C 
ATOM      6  C   LIG    1      -11.455   7.130  12.754  0.00  0.00    -0.055 C 
ATOM      7  C   LIG    1      -12.787   7.527  12.037  0.00  0.00    +0.020 C 
ATOM      8  C   LIG    1      -12.768   7.852  10.532  0.00  0.00    +0.013 C 
ATOM      9  C   LIG    1      -11.470   8.530  10.170  0.00  0.00    +0.036 C 
ATOM     10  C   LIG    1      -14.136   6.743  12.341  0.00  0.00    +0.006 C 
ATOM     11  C   LIG    1      -15.638   6.778  12.034  0.00  0.00    +0.008 C 
ATOM     12  C   LIG    1      -16.172   7.363  13.413  0.00  0.00    +0.049 C 
ATOM     13  C   LIG    1      -14.915   7.286  14.422  0.00  0.00    +0.132 C 
ATOM     14  C   LIG    1      -14.151   6.068  13.768  0.00  0.00    +0.012 C 
ATOM     15  C   LIG    1      -15.016   4.769  13.950  0.00  0.00    +0.015 C 
ATOM     16  C   LIG    1      -12.722   5.437  13.832  0.00  0.00    +0.023 C 
ATOM     17  C   LIG    1      -11.553   6.370  14.108  0.00  0.00    +0.046 C 
ATOM     18  C   LIG    1      -10.389   7.597  10.593  0.00  0.00    -0.041 C 
ATOM     19  C   LIG    1       -9.459   7.177   9.716  0.00  0.00    +0.050 C 
ENDROOT
BRANCH  17  20
ATOM     20  C   LIG    1      -11.724   6.861  15.565  0.00  0.00    -0.040 A 
ATOM     21  C   LIG    1      -11.443   8.121  16.079  0.00  0.00    +0.006 A 
ATOM     22  C   LIG    1      -11.621   8.404  17.479  0.00  0.00    +0.023 A 
ATOM     23  C   LIG    1      -12.083   7.458  18.422  0.00  0.00    +0.029 A 
ATOM     24  C   LIG    1      -12.268   6.188  17.912  0.00  0.00    +0.023 A 
ATOM     25  C   LIG    1      -12.071   5.903  16.559  0.00  0.00    +0.006 A 
BRANCH  23  26
ATOM     26  N   LIG    1      -12.303   7.699  19.769  0.00  0.00    -0.336 N 
ATOM     27  C   LIG    1      -12.950   6.732  20.640  0.00  0.00    +0.129 C 
ATOM     28  C   LIG    1      -11.687   8.838  20.460  0.00  0.00    +0.129 C 
ENDBRANCH  23  26
ENDBRANCH  17  20
BRANCH  13  29
ATOM     29  C   LIG    1      -15.378   7.425  15.791  0.00  0.00    -0.067 C 
ATOM     30  C   LIG    1      -15.428   7.973  16.845  0.00  0.00    -0.103 C 
ATOM     31  C   LIG    1      -15.488   8.639  18.126  0.00  0.00    +0.106 C 
ENDBRANCH  13  29
BRANCH  13  32
ATOM     32  O   LIG    1      -14.166   8.512  14.284  0.00  0.00    -0.376 OA
ATOM     33  H   LIG    1      -13.619   8.418  13.485  0.00  0.00    +0.211 HD
ENDBRANCH  13  32
TORSDOF 4
ENDMDL
MODEL 9
REMARK VINA RESULT:      -3.7      4.002      6.380
REMARK  Name = 
REMARK                            x       y       z     vdW  Elec       q    Type
REMARK                         _______ _______ _______ _____ _____    ______ ____
ROOT
ATOM      1  O   LIG    1       -6.649   8.470  10.993  0.00  0.00    -0.293 OA
ATOM      2  C   LIG    1       -7.873   8.364  10.973  0.00  0.00    +0.157 C 
ATOM      3  C   LIG    1       -8.659   7.951   9.738  0.00  0.00    +0.083 C 
ATOM      4  C   LIG    1      -10.127   8.439   9.830  0.00  0.00    +0.043 C 
ATOM      5  C   LIG    1      -10.753   7.969  11.127  0.00  0.00    -0.044 C 
ATOM      6  C   LIG    1      -12.053   7.654  11.380  0.00  0.00    -0.055 C 
ATOM      7  C   LIG    1      -12.346   6.980  12.760  0.00  0.00    +0.020 C 
ATOM      8  C   LIG    1      -11.221   6.883  13.808  0.00  0.00    +0.013 C 
ATOM      9  C   LIG    1       -9.896   6.676  13.119  0.00  0.00    +0.036 C 
ATOM     10  C   LIG    1      -13.699   7.281  13.539  0.00  0.00    +0.006 C 
ATOM     11  C   LIG    1      -14.493   6.843  14.776  0.00  0.00    +0.008 C 
ATOM     12  C   LIG    1      -15.600   5.945  14.070  0.00  0.00    +0.049 C 
ATOM     13  C   LIG    1      -15.456   6.254  12.493  0.00  0.00    +0.132 C 
ATOM     14  C   LIG    1      -14.877   7.720  12.582  0.00  0.00    +0.012 C 
ATOM     15  C   LIG    1      -15.981   8.668  13.177  0.00  0.00    +0.015 C 
ATOM     16  C   LIG    1      -14.151   8.732  11.637  0.00  0.00    +0.023 C 
ATOM     17  C   LIG    1      -13.263   8.160  10.543  0.00  0.00    +0.046 C 
ATOM     18  C   LIG    1       -9.739   7.821  12.180  0.00  0.00    -0.041 C 
ATOM     19  C   LIG    1       -8.652   8.613  12.234  0.00  0.00    +0.050 C 
ENDROOT
BRANCH  17  20
ATOM     20  C   LIG    1      -14.207   7.448   9.545  0.00  0.00    -0.040 A 
ATOM     21  C   LIG    1      -13.982   6.261   8.857  0.00  0.00    +0.006 A 
ATOM     22  C   LIG    1      -14.955   5.753   7.927  0.00  0.00    +0.023 A 
ATOM     23  C   LIG    1      -16.183   6.391   7.641  0.00  0.00    +0.029 A 
ATOM     24  C   LIG    1      -16.348   7.614   8.263  0.00  0.00    +0.023 A 
ATOM     25  C   LIG    1      -15.394   8.123   9.147  0.00  0.00    +0.006 A 
BRANCH  23  26
ATOM     26  N   LIG    1      -17.161   5.918   6.781  0.00  0.00    -0.336 N 
ATOM     27  C   LIG    1      -16.932   4.807   5.873  0.00  0.00    +0.129 C 
ATOM     28  C   LIG    1      -18.562   6.343   6.898  0.00  0.00    +0.129 C 
ENDBRANCH  23  26
ENDBRANCH  17  20
BRANCH  13  29
ATOM     29  C   LIG    1      -16.645   5.800  11.795  0.00  0.00    -0.067 C 
ATOM     30  C   LIG    1      -17.223   5.109  11.018  0.00  0.00    -0.103 C 
ATOM     31  C   LIG    1      -17.923   4.269  10.074  0.00  0.00    +0.106 C 
ENDBRANCH  13  29
BRANCH  13  32
ATOM     32  O   LIG    1      -14.482   5.336  11.953  0.00  0.00    -0.376 OA
ATOM     33  H   LIG    1      -13.606   5.705  12.159  0.00  0.00    +0.211 HD
ENDBRANCH  13  32
TORSDOF 4
ENDMDL
