MODEL 1
REMARK VINA RESULT:      -5.4      0.000      0.000
REMARK  Name = 
REMARK                            x       y       z     vdW  Elec       q    Type
REMARK                         _______ _______ _______ _____ _____    ______ ____
ROOT
ATOM      1  O   LIG    1       54.246  45.063  31.058  0.00  0.00    -0.293 OA
ATOM      2  C   LIG    1       55.439  45.355  31.027  0.00  0.00    +0.157 C 
ATOM      3  C   LIG    1       56.463  44.803  32.007  0.00  0.00    +0.083 C 
ATOM      4  C   LIG    1       57.699  45.734  32.096  0.00  0.00    +0.043 C 
ATOM      5  C   LIG    1       58.263  45.986  30.712  0.00  0.00    -0.044 C 
ATOM      6  C   LIG    1       59.555  46.215  30.348  0.00  0.00    -0.055 C 
ATOM      7  C   LIG    1       59.853  46.210  28.814  0.00  0.00    +0.020 C 
ATOM      8  C   LIG    1       58.682  46.139  27.816  0.00  0.00    +0.013 C 
ATOM      9  C   LIG    1       57.575  45.287  28.385  0.00  0.00    +0.036 C 
ATOM     10  C   LIG    1       60.947  47.185  28.197  0.00  0.00    +0.006 C 
ATOM     11  C   LIG    1       61.670  47.497  26.880  0.00  0.00    +0.008 C 
ATOM     12  C   LIG    1       63.072  46.811  27.184  0.00  0.00    +0.049 C 
ATOM     13  C   LIG    1       63.046  46.473  28.762  0.00  0.00    +0.132 C 
ATOM     14  C   LIG    1       62.056  47.606  29.239  0.00  0.00    +0.012 C 
ATOM     15  C   LIG    1       62.748  49.003  29.040  0.00  0.00    +0.015 C 
ATOM     16  C   LIG    1       61.193  47.925  30.504  0.00  0.00    +0.023 C 
ATOM     17  C   LIG    1       60.660  46.748  31.306  0.00  0.00    +0.046 C 
ATOM     18  C   LIG    1       57.211  45.907  29.690  0.00  0.00    -0.041 C 
ATOM     19  C   LIG    1       55.942  46.273  29.949  0.00  0.00    +0.050 C 
ENDROOT
BRANCH  17  20
ATOM     20  C   LIG    1       61.891  46.069  31.951  0.00  0.00    -0.040 A 
ATOM     21  C   LIG    1       62.353  44.774  31.751  0.00  0.00    +0.006 A 
ATOM     22  C   LIG    1       63.499  44.281  32.468  0.00  0.00    +0.023 A 
ATOM     23  C   LIG    1       64.232  45.044  33.405  0.00  0.00    +0.029 A 
ATOM     24  C   LIG    1       63.704  46.294  33.660  0.00  0.00    +0.023 A 
ATOM     25  C   LIG    1       62.576  46.767  32.985  0.00  0.00    +0.006 A 
BRANCH  23  26
ATOM     26  N   LIG    1       65.362  44.620  34.088  0.00  0.00    -0.336 N 
ATOM     27  C   LIG    1       65.489  43.279  34.631  0.00  0.00    +0.129 C 
ATOM     28  C   LIG    1       66.597  45.413  34.102  0.00  0.00    +0.129 C 
ENDBRANCH  23  26
ENDBRANCH  17  20
BRANCH  13  29
ATOM     29  C   LIG    1       64.396  46.207  29.226  0.00  0.00    -0.067 C 
ATOM     30  C   LIG    1       65.230  45.529  29.738  0.00  0.00    -0.103 C 
ATOM     31  C   LIG    1       66.241  44.706  30.359  0.00  0.00    +0.106 C 
ENDBRANCH  13  29
BRANCH  13  32
ATOM     32  O   LIG    1       62.462  45.163  28.920  0.00  0.00    -0.376 OA
ATOM     33  H   LIG    1       61.551  45.299  29.231  0.00  0.00    +0.211 HD
ENDBRANCH  13  32
TORSDOF 4
ENDMDL
