MODEL 1
REMARK VINA RESULT:     -11.9      0.000      0.000
REMARK  Name = 
REMARK                            x       y       z     vdW  Elec       q    Type
REMARK                         _______ _______ _______ _____ _____    ______ ____
ROOT
ATOM      1  O   LIG    1       45.862  -2.831  19.351  0.00  0.00    -0.293 OA
ATOM      2  C   LIG    1       44.822  -2.462  18.810  0.00  0.00    +0.157 C 
ATOM      3  C   LIG    1       43.984  -1.295  19.310  0.00  0.00    +0.083 C 
ATOM      4  C   LIG    1       42.520  -1.418  18.819  0.00  0.00    +0.043 C 
ATOM      5  C   LIG    1       42.486  -1.583  17.313  0.00  0.00    -0.044 C 
ATOM      6  C   LIG    1       41.532  -1.170  16.433  0.00  0.00    -0.055 C 
ATOM      7  C   LIG    1       41.894  -1.286  14.917  0.00  0.00    +0.020 C 
ATOM      8  C   LIG    1       43.188  -2.012  14.501  0.00  0.00    +0.013 C 
ATOM      9  C   LIG    1       44.263  -1.771  15.530  0.00  0.00    +0.036 C 
ATOM     10  C   LIG    1       40.778  -1.645  13.842  0.00  0.00    +0.006 C 
ATOM     11  C   LIG    1       40.568  -1.767  12.327  0.00  0.00    +0.008 C 
ATOM     12  C   LIG    1       39.776  -0.412  12.065  0.00  0.00    +0.049 C 
ATOM     13  C   LIG    1       39.381   0.139  13.529  0.00  0.00    +0.132 C 
ATOM     14  C   LIG    1       39.324  -1.236  14.302  0.00  0.00    +0.012 C 
ATOM     15  C   LIG    1       38.121  -2.082  13.746  0.00  0.00    +0.015 C 
ATOM     16  C   LIG    1       39.317  -1.724  15.787  0.00  0.00    +0.023 C 
ATOM     17  C   LIG    1       40.053  -0.872  16.810  0.00  0.00    +0.046 C 
ATOM     18  C   LIG    1       43.703  -2.245  16.827  0.00  0.00    -0.041 C 
ATOM     19  C   LIG    1       44.355  -3.162  17.564  0.00  0.00    +0.050 C 
ENDROOT
BRANCH  17  20
ATOM     20  C   LIG    1       39.256   0.449  16.929  0.00  0.00    -0.040 A 
ATOM     21  C   LIG    1       39.744   1.714  17.235  0.00  0.00    +0.006 A 
ATOM     22  C   LIG    1       38.855   2.840  17.347  0.00  0.00    +0.023 A 
ATOM     23  C   LIG    1       37.456   2.762  17.161  0.00  0.00    +0.029 A 
ATOM     24  C   LIG    1       36.979   1.483  16.950  0.00  0.00    +0.023 A 
ATOM     25  C   LIG    1       37.836   0.384  16.866  0.00  0.00    +0.006 A 
BRANCH  23  26
ATOM     26  N   LIG    1       36.570   3.827  17.223  0.00  0.00    -0.336 N 
ATOM     27  C   LIG    1       35.352   3.783  18.013  0.00  0.00    +0.129 C 
ATOM     28  C   LIG    1       36.917   5.151  16.694  0.00  0.00    +0.129 C 
ENDBRANCH  23  26
ENDBRANCH  17  20
BRANCH  13  29
ATOM     29  C   LIG    1       38.341   1.144  13.407  0.00  0.00    -0.067 C 
ATOM     30  C   LIG    1       37.908   2.246  13.527  0.00  0.00    -0.103 C 
ATOM     31  C   LIG    1       37.384   3.584  13.672  0.00  0.00    +0.106 C 
ENDBRANCH  13  29
BRANCH  13  32
ATOM     32  O   LIG    1       40.472   0.961  13.997  0.00  0.00    -0.376 OA
ATOM     33  H   LIG    1       40.821   1.431  13.220  0.00  0.00    +0.211 HD
ENDBRANCH  13  32
TORSDOF 4
ENDMDL
MODEL 2
REMARK VINA RESULT:     -11.3      2.751      7.048
REMARK  Name = 
REMARK                            x       y       z     vdW  Elec       q    Type
REMARK                         _______ _______ _______ _____ _____    ______ ____
ROOT
ATOM      1  O   LIG    1       36.719   6.028  16.256  0.00  0.00    -0.293 OA
ATOM      2  C   LIG    1       37.429   5.035  16.109  0.00  0.00    +0.157 C 
ATOM      3  C   LIG    1       38.514   4.626  17.093  0.00  0.00    +0.083 C 
ATOM      4  C   LIG    1       39.573   3.729  16.404  0.00  0.00    +0.043 C 
ATOM      5  C   LIG    1       38.900   2.553  15.726  0.00  0.00    -0.044 C 
ATOM      6  C   LIG    1       39.383   1.296  15.525  0.00  0.00    -0.055 C 
ATOM      7  C   LIG    1       38.359   0.238  14.997  0.00  0.00    +0.020 C 
ATOM      8  C   LIG    1       36.954   0.696  14.565  0.00  0.00    +0.013 C 
ATOM      9  C   LIG    1       36.496   1.837  15.438  0.00  0.00    +0.036 C 
ATOM     10  C   LIG    1       38.820  -0.905  13.993  0.00  0.00    +0.006 C 
ATOM     11  C   LIG    1       38.304  -2.172  13.301  0.00  0.00    +0.008 C 
ATOM     12  C   LIG    1       39.019  -3.271  14.203  0.00  0.00    +0.049 C 
ATOM     13  C   LIG    1       40.091  -2.457  15.092  0.00  0.00    +0.132 C 
ATOM     14  C   LIG    1       40.357  -1.249  14.112  0.00  0.00    +0.012 C 
ATOM     15  C   LIG    1       41.083  -1.788  12.826  0.00  0.00    +0.015 C 
ATOM     16  C   LIG    1       40.992   0.178  14.187  0.00  0.00    +0.023 C 
ATOM     17  C   LIG    1       40.893   0.923  15.509  0.00  0.00    +0.046 C 
ATOM     18  C   LIG    1       37.535   2.897  15.305  0.00  0.00    -0.041 C 
ATOM     19  C   LIG    1       37.204   4.143  14.921  0.00  0.00    +0.050 C 
ENDROOT
BRANCH  17  20
ATOM     20  C   LIG    1       41.783   0.150  16.511  0.00  0.00    -0.040 A 
ATOM     21  C   LIG    1       41.497  -0.173  17.832  0.00  0.00    +0.006 A 
ATOM     22  C   LIG    1       42.460  -0.866  18.646  0.00  0.00    +0.023 A 
ATOM     23  C   LIG    1       43.736  -1.268  18.190  0.00  0.00    +0.029 A 
ATOM     24  C   LIG    1       44.038  -0.857  16.907  0.00  0.00    +0.023 A 
ATOM     25  C   LIG    1       43.116  -0.161  16.122  0.00  0.00    +0.006 A 
BRANCH  23  26
ATOM     26  N   LIG    1       44.677  -1.968  18.929  0.00  0.00    -0.336 N 
ATOM     27  C   LIG    1       45.748  -2.729  18.309  0.00  0.00    +0.129 C 
ATOM     28  C   LIG    1       44.801  -1.795  20.382  0.00  0.00    +0.129 C 
ENDBRANCH  23  26
ENDBRANCH  17  20
BRANCH  13  29
ATOM     29  C   LIG    1       41.056  -3.381  15.660  0.00  0.00    -0.067 C 
ATOM     30  C   LIG    1       42.157  -3.803  15.820  0.00  0.00    -0.103 C 
ATOM     31  C   LIG    1       43.494  -4.314  16.014  0.00  0.00    +0.106 C 
ENDBRANCH  13  29
BRANCH  13  32
ATOM     32  O   LIG    1       39.422  -2.021  16.295  0.00  0.00    -0.376 OA
ATOM     33  H   LIG    1       38.527  -2.400  16.269  0.00  0.00    +0.211 HD
ENDBRANCH  13  32
TORSDOF 4
ENDMDL
