MODEL 1
REMARK VINA RESULT:      -6.8      0.000      0.000
REMARK  Name = 
REMARK                            x       y       z     vdW  Elec       q    Type
REMARK                         _______ _______ _______ _____ _____    ______ ____
ROOT
ATOM      1  O   LIG    1       30.224  33.224  10.566  0.00  0.00    -0.293 OA
ATOM      2  C   LIG    1       29.461  32.708   9.752  0.00  0.00    +0.157 C 
ATOM      3  C   LIG    1       29.368  33.143   8.297  0.00  0.00    +0.083 C 
ATOM      4  C   LIG    1       27.999  32.746   7.690  0.00  0.00    +0.043 C 
ATOM      5  C   LIG    1       27.747  31.266   7.894  0.00  0.00    -0.044 C 
ATOM      6  C   LIG    1       27.049  30.404   7.103  0.00  0.00    -0.055 C 
ATOM      7  C   LIG    1       27.162  28.888   7.465  0.00  0.00    +0.020 C 
ATOM      8  C   LIG    1       27.877  28.471   8.764  0.00  0.00    +0.013 C 
ATOM      9  C   LIG    1       29.019  29.414   9.045  0.00  0.00    +0.036 C 
ATOM     10  C   LIG    1       25.922  27.912   7.267  0.00  0.00    +0.006 C 
ATOM     11  C   LIG    1       25.539  26.429   7.345  0.00  0.00    +0.008 C 
ATOM     12  C   LIG    1       25.508  26.086   5.792  0.00  0.00    +0.049 C 
ATOM     13  C   LIG    1       25.579  27.513   5.041  0.00  0.00    +0.132 C 
ATOM     14  C   LIG    1       24.915  28.411   6.158  0.00  0.00    +0.012 C 
ATOM     15  C   LIG    1       23.405  28.001   6.309  0.00  0.00    +0.015 C 
ATOM     16  C   LIG    1       24.804  29.933   6.497  0.00  0.00    +0.023 C 
ATOM     17  C   LIG    1       25.958  30.832   6.080  0.00  0.00    +0.046 C 
ATOM     18  C   LIG    1       28.421  30.777   9.104  0.00  0.00    -0.041 C 
ATOM     19  C   LIG    1       28.594  31.559  10.184  0.00  0.00    +0.050 C 
ENDROOT
BRANCH  17  20
ATOM     20  C   LIG    1       25.941  30.872   4.534  0.00  0.00    -0.040 A 
ATOM     21  C   LIG    1       27.027  30.822   3.668  0.00  0.00    +0.006 A 
ATOM     22  C   LIG    1       26.840  30.912   2.244  0.00  0.00    +0.023 A 
ATOM     23  C   LIG    1       25.579  31.053   1.621  0.00  0.00    +0.029 A 
ATOM     24  C   LIG    1       24.522  31.194   2.499  0.00  0.00    +0.023 A 
ATOM     25  C   LIG    1       24.703  31.133   3.883  0.00  0.00    +0.006 A 
BRANCH  23  26
ATOM     26  N   LIG    1       25.352  31.106   0.255  0.00  0.00    -0.336 N 
ATOM     27  C   LIG    1       26.396  30.846  -0.721  0.00  0.00    +0.129 C 
ATOM     28  C   LIG    1       23.995  31.190  -0.298  0.00  0.00    +0.129 C 
ENDBRANCH  23  26
ENDBRANCH  17  20
BRANCH  13  29
ATOM     29  C   LIG    1       25.172  27.356   3.657  0.00  0.00    -0.067 C 
ATOM     30  C   LIG    1       25.353  27.416   2.482  0.00  0.00    -0.103 C 
ATOM     31  C   LIG    1       25.574  27.488   1.057  0.00  0.00    +0.106 C 
ENDBRANCH  13  29
BRANCH  13  32
ATOM     32  O   LIG    1       26.972  27.844   4.859  0.00  0.00    -0.376 OA
ATOM     33  H   LIG    1       27.039  28.305   4.005  0.00  0.00    +0.211 HD
ENDBRANCH  13  32
TORSDOF 4
ENDMDL
MODEL 2
REMARK VINA RESULT:      -6.6      3.488      6.187
REMARK  Name = 
REMARK                            x       y       z     vdW  Elec       q    Type
REMARK                         _______ _______ _______ _____ _____    ______ ____
ROOT
ATOM      1  O   LIG    1       23.419  27.505   7.824  0.00  0.00    -0.293 OA
ATOM      2  C   LIG    1       23.906  28.281   7.005  0.00  0.00    +0.157 C 
ATOM      3  C   LIG    1       23.074  29.180   6.104  0.00  0.00    +0.083 C 
ATOM      4  C   LIG    1       23.878  29.593   4.845  0.00  0.00    +0.043 C 
ATOM      5  C   LIG    1       25.203  30.207   5.250  0.00  0.00    -0.044 C 
ATOM      6  C   LIG    1       25.924  31.171   4.615  0.00  0.00    -0.055 C 
ATOM      7  C   LIG    1       27.141  31.757   5.403  0.00  0.00    +0.020 C 
ATOM      8  C   LIG    1       27.565  31.105   6.733  0.00  0.00    +0.013 C 
ATOM      9  C   LIG    1       26.349  30.598   7.466  0.00  0.00    +0.036 C 
ATOM     10  C   LIG    1       28.466  32.195   4.641  0.00  0.00    +0.006 C 
ATOM     11  C   LIG    1       29.816  32.882   4.882  0.00  0.00    +0.008 C 
ATOM     12  C   LIG    1       29.497  34.309   4.256  0.00  0.00    +0.049 C 
ATOM     13  C   LIG    1       28.100  34.124   3.468  0.00  0.00    +0.132 C 
ATOM     14  C   LIG    1       28.210  32.586   3.133  0.00  0.00    +0.012 C 
ATOM     15  C   LIG    1       29.388  32.370   2.115  0.00  0.00    +0.015 C 
ATOM     16  C   LIG    1       27.255  31.437   2.669  0.00  0.00    +0.023 C 
ATOM     17  C   LIG    1       25.800  31.514   3.103  0.00  0.00    +0.046 C 
ATOM     18  C   LIG    1       25.669  29.658   6.531  0.00  0.00    -0.041 C 
ATOM     19  C   LIG    1       25.401  28.392   6.900  0.00  0.00    +0.050 C 
ENDROOT
BRANCH  17  20
ATOM     20  C   LIG    1       25.188  32.725   2.358  0.00  0.00    -0.040 A 
ATOM     21  C   LIG    1       25.331  33.062   1.018  0.00  0.00    +0.006 A 
ATOM     22  C   LIG    1       24.725  34.255   0.489  0.00  0.00    +0.023 A 
ATOM     23  C   LIG    1       23.956  35.158   1.258  0.00  0.00    +0.029 A 
ATOM     24  C   LIG    1       23.903  34.857   2.606  0.00  0.00    +0.023 A 
ATOM     25  C   LIG    1       24.512  33.713   3.127  0.00  0.00    +0.006 A 
BRANCH  23  26
ATOM     26  N   LIG    1       23.326  36.296   0.782  0.00  0.00    -0.336 N 
ATOM     27  C   LIG    1       22.405  36.267  -0.342  0.00  0.00    +0.129 C 
ATOM     28  C   LIG    1       23.355  37.562   1.524  0.00  0.00    +0.129 C 
ENDBRANCH  23  26
ENDBRANCH  17  20
BRANCH  13  29
ATOM     29  C   LIG    1       27.908  35.232   2.550  0.00  0.00    -0.067 C 
ATOM     30  C   LIG    1       27.418  36.264   2.216  0.00  0.00    -0.103 C 
ATOM     31  C   LIG    1       26.823  37.516   1.812  0.00  0.00    +0.106 C 
ENDBRANCH  13  29
BRANCH  13  32
ATOM     32  O   LIG    1       27.032  34.385   4.403  0.00  0.00    -0.376 OA
ATOM     33  H   LIG    1       26.538  33.553   4.502  0.00  0.00    +0.211 HD
ENDBRANCH  13  32
TORSDOF 4
ENDMDL
MODEL 3
REMARK VINA RESULT:      -6.0      4.001      7.315
REMARK  Name = 
REMARK                            x       y       z     vdW  Elec       q    Type
REMARK                         _______ _______ _______ _____ _____    ______ ____
ROOT
ATOM      1  O   LIG    1       19.301  29.147   8.606  0.00  0.00    -0.293 OA
ATOM      2  C   LIG    1       20.452  28.758   8.422  0.00  0.00    +0.157 C 
ATOM      3  C   LIG    1       20.825  27.293   8.257  0.00  0.00    +0.083 C 
ATOM      4  C   LIG    1       22.318  27.063   8.606  0.00  0.00    +0.043 C 
ATOM      5  C   LIG    1       23.193  28.002   7.800  0.00  0.00    -0.044 C 
ATOM      6  C   LIG    1       24.460  27.803   7.344  0.00  0.00    -0.055 C 
ATOM      7  C   LIG    1       25.011  28.873   6.345  0.00  0.00    +0.020 C 
ATOM      8  C   LIG    1       24.196  30.153   6.083  0.00  0.00    +0.013 C 
ATOM      9  C   LIG    1       22.722  29.843   6.138  0.00  0.00    +0.036 C 
ATOM     10  C   LIG    1       26.548  29.278   6.358  0.00  0.00    +0.006 C 
ATOM     11  C   LIG    1       27.573  30.120   5.587  0.00  0.00    +0.008 C 
ATOM     12  C   LIG    1       28.328  28.958   4.805  0.00  0.00    +0.049 C 
ATOM     13  C   LIG    1       27.818  27.587   5.487  0.00  0.00    +0.132 C 
ATOM     14  C   LIG    1       27.482  28.139   6.927  0.00  0.00    +0.012 C 
ATOM     15  C   LIG    1       28.819  28.577   7.628  0.00  0.00    +0.015 C 
ATOM     16  C   LIG    1       26.676  27.669   8.182  0.00  0.00    +0.023 C 
ATOM     17  C   LIG    1       25.465  26.780   7.947  0.00  0.00    +0.046 C 
ATOM     18  C   LIG    1       22.478  29.245   7.480  0.00  0.00    -0.041 C 
ATOM     19  C   LIG    1       21.559  29.768   8.311  0.00  0.00    +0.050 C 
ENDROOT
BRANCH  17  20
ATOM     20  C   LIG    1       26.013  25.430   7.425  0.00  0.00    -0.040 A 
ATOM     21  C   LIG    1       25.637  24.745   6.275  0.00  0.00    +0.006 A 
ATOM     22  C   LIG    1       26.221  23.470   5.954  0.00  0.00    +0.023 A 
ATOM     23  C   LIG    1       27.194  22.824   6.750  0.00  0.00    +0.029 A 
ATOM     24  C   LIG    1       27.485  23.473   7.933  0.00  0.00    +0.023 A 
ATOM     25  C   LIG    1       26.902  24.699   8.261  0.00  0.00    +0.006 A 
BRANCH  23  26
ATOM     26  N   LIG    1       27.806  21.615   6.458  0.00  0.00    -0.336 N 
ATOM     27  C   LIG    1       27.712  20.460   7.334  0.00  0.00    +0.129 C 
ATOM     28  C   LIG    1       28.388  21.344   5.137  0.00  0.00    +0.129 C 
ENDBRANCH  23  26
ENDBRANCH  17  20
BRANCH  13  29
ATOM     29  C   LIG    1       28.713  26.502   5.127  0.00  0.00    -0.067 C 
ATOM     30  C   LIG    1       29.446  25.600   5.382  0.00  0.00    -0.103 C 
ATOM     31  C   LIG    1       30.337  24.506   5.692  0.00  0.00    +0.106 C 
ENDBRANCH  13  29
BRANCH  13  32
ATOM     32  O   LIG    1       26.624  27.169   4.791  0.00  0.00    -0.376 OA
ATOM     33  H   LIG    1       26.311  26.362   5.235  0.00  0.00    +0.211 HD
ENDBRANCH  13  32
TORSDOF 4
ENDMDL
MODEL 4
REMARK VINA RESULT:      -5.9      3.566      6.218
REMARK  Name = 
REMARK                            x       y       z     vdW  Elec       q    Type
REMARK                         _______ _______ _______ _____ _____    ______ ____
ROOT
ATOM      1  O   LIG    1       27.781  28.028   9.178  0.00  0.00    -0.293 OA
ATOM      2  C   LIG    1       27.853  28.859   8.276  0.00  0.00    +0.157 C 
ATOM      3  C   LIG    1       26.727  29.127   7.289  0.00  0.00    +0.083 C 
ATOM      4  C   LIG    1       27.276  29.763   5.987  0.00  0.00    +0.043 C 
ATOM      5  C   LIG    1       28.097  30.994   6.312  0.00  0.00    -0.044 C 
ATOM      6  C   LIG    1       28.270  32.123   5.571  0.00  0.00    -0.055 C 
ATOM      7  C   LIG    1       28.993  33.313   6.281  0.00  0.00    +0.020 C 
ATOM      8  C   LIG    1       29.623  33.095   7.670  0.00  0.00    +0.013 C 
ATOM      9  C   LIG    1       28.789  32.121   8.463  0.00  0.00    +0.036 C 
ATOM     10  C   LIG    1       29.957  34.279   5.465  0.00  0.00    +0.006 C 
ATOM     11  C   LIG    1       30.771  35.570   5.619  0.00  0.00    +0.008 C 
ATOM     12  C   LIG    1       29.812  36.576   4.845  0.00  0.00    +0.049 C 
ATOM     13  C   LIG    1       28.733  35.641   4.094  0.00  0.00    +0.132 C 
ATOM     14  C   LIG    1       29.611  34.340   3.925  0.00  0.00    +0.012 C 
ATOM     15  C   LIG    1       30.786  34.646   2.928  0.00  0.00    +0.015 C 
ATOM     16  C   LIG    1       29.380  32.829   3.596  0.00  0.00    +0.023 C 
ATOM     17  C   LIG    1       28.062  32.208   4.031  0.00  0.00    +0.046 C 
ATOM     18  C   LIG    1       28.714  30.881   7.640  0.00  0.00    -0.041 C 
ATOM     19  C   LIG    1       29.096  29.694   8.146  0.00  0.00    +0.050 C 
ENDROOT
BRANCH  17  20
ATOM     20  C   LIG    1       26.964  32.870   3.165  0.00  0.00    -0.040 A 
ATOM     21  C   LIG    1       25.667  33.199   3.540  0.00  0.00    +0.006 A 
ATOM     22  C   LIG    1       24.750  33.778   2.592  0.00  0.00    +0.023 A 
ATOM     23  C   LIG    1       25.077  34.054   1.246  0.00  0.00    +0.029 A 
ATOM     24  C   LIG    1       26.338  33.635   0.868  0.00  0.00    +0.023 A 
ATOM     25  C   LIG    1       27.221  33.050   1.778  0.00  0.00    +0.006 A 
BRANCH  23  26
ATOM     26  N   LIG    1       24.238  34.643   0.313  0.00  0.00    -0.336 N 
ATOM     27  C   LIG    1       23.205  35.595   0.683  0.00  0.00    +0.129 C 
ATOM     28  C   LIG    1       24.490  34.533  -1.129  0.00  0.00    +0.129 C 
ENDBRANCH  23  26
ENDBRANCH  17  20
BRANCH  13  29
ATOM     29  C   LIG    1       28.057  36.408   3.062  0.00  0.00    -0.067 C 
ATOM     30  C   LIG    1       27.104  36.929   2.579  0.00  0.00    -0.103 C 
ATOM     31  C   LIG    1       25.946  37.562   1.992  0.00  0.00    +0.106 C 
ENDBRANCH  13  29
BRANCH  13  32
ATOM     32  O   LIG    1       27.634  35.421   5.004  0.00  0.00    -0.376 OA
ATOM     33  H   LIG    1       26.868  35.892   4.635  0.00  0.00    +0.211 HD
ENDBRANCH  13  32
TORSDOF 4
ENDMDL
MODEL 5
REMARK VINA RESULT:      -5.9      3.071      6.150
REMARK  Name = 
REMARK                            x       y       z     vdW  Elec       q    Type
REMARK                         _______ _______ _______ _____ _____    ______ ____
ROOT
ATOM      1  O   LIG    1       18.812  29.260   9.072  0.00  0.00    -0.293 OA
ATOM      2  C   LIG    1       19.932  29.280   8.565  0.00  0.00    +0.157 C 
ATOM      3  C   LIG    1       20.849  30.493   8.607  0.00  0.00    +0.083 C 
ATOM      4  C   LIG    1       21.887  30.437   7.458  0.00  0.00    +0.043 C 
ATOM      5  C   LIG    1       22.631  29.117   7.490  0.00  0.00    -0.044 C 
ATOM      6  C   LIG    1       23.913  28.853   7.113  0.00  0.00    -0.055 C 
ATOM      7  C   LIG    1       24.463  27.437   7.481  0.00  0.00    +0.020 C 
ATOM      8  C   LIG    1       23.505  26.379   8.059  0.00  0.00    +0.013 C 
ATOM      9  C   LIG    1       22.468  27.047   8.926  0.00  0.00    +0.036 C 
ATOM     10  C   LIG    1       25.477  26.685   6.514  0.00  0.00    +0.006 C 
ATOM     11  C   LIG    1       26.353  25.428   6.438  0.00  0.00    +0.008 C 
ATOM     12  C   LIG    1       27.775  26.085   6.715  0.00  0.00    +0.049 C 
ATOM     13  C   LIG    1       27.536  27.677   6.603  0.00  0.00    +0.132 C 
ATOM     14  C   LIG    1       26.312  27.672   5.606  0.00  0.00    +0.012 C 
ATOM     15  C   LIG    1       26.797  27.141   4.209  0.00  0.00    +0.015 C 
ATOM     16  C   LIG    1       25.208  28.672   5.133  0.00  0.00    +0.023 C 
ATOM     17  C   LIG    1       24.740  29.725   6.126  0.00  0.00    +0.046 C 
ATOM     18  C   LIG    1       21.794  28.053   8.058  0.00  0.00    -0.041 C 
ATOM     19  C   LIG    1       20.458  28.040   7.899  0.00  0.00    +0.050 C 
ENDROOT
BRANCH  17  20
ATOM     20  C   LIG    1       25.936  30.684   6.337  0.00  0.00    -0.040 A 
ATOM     21  C   LIG    1       26.776  31.224   5.371  0.00  0.00    +0.006 A 
ATOM     22  C   LIG    1       27.877  32.073   5.743  0.00  0.00    +0.023 A 
ATOM     23  C   LIG    1       28.190  32.422   7.076  0.00  0.00    +0.029 A 
ATOM     24  C   LIG    1       27.403  31.802   8.027  0.00  0.00    +0.023 A 
ATOM     25  C   LIG    1       26.349  30.957   7.671  0.00  0.00    +0.006 A 
BRANCH  23  26
ATOM     26  N   LIG    1       29.216  33.264   7.474  0.00  0.00    -0.336 N 
ATOM     27  C   LIG    1       29.578  34.460   6.731  0.00  0.00    +0.129 C 
ATOM     28  C   LIG    1       29.846  33.142   8.794  0.00  0.00    +0.129 C 
ENDBRANCH  23  26
ENDBRANCH  17  20
BRANCH  13  29
ATOM     29  C   LIG    1       28.813  28.353   6.453  0.00  0.00    -0.067 C 
ATOM     30  C   LIG    1       29.723  29.006   6.854  0.00  0.00    -0.103 C 
ATOM     31  C   LIG    1       30.828  29.798   7.340  0.00  0.00    +0.106 C 
ENDBRANCH  13  29
BRANCH  13  32
ATOM     32  O   LIG    1       27.150  28.156   7.909  0.00  0.00    -0.376 OA
ATOM     33  H   LIG    1       26.888  27.375   8.426  0.00  0.00    +0.211 HD
ENDBRANCH  13  32
TORSDOF 4
ENDMDL
MODEL 6
REMARK VINA RESULT:      -5.8      2.974      5.376
REMARK  Name = 
REMARK                            x       y       z     vdW  Elec       q    Type
REMARK                         _______ _______ _______ _____ _____    ______ ____
ROOT
ATOM      1  O   LIG    1       22.469  27.059   8.723  0.00  0.00    -0.293 OA
ATOM      2  C   LIG    1       23.005  27.654   7.791  0.00  0.00    +0.157 C 
ATOM      3  C   LIG    1       22.441  28.924   7.171  0.00  0.00    +0.083 C 
ATOM      4  C   LIG    1       22.973  29.116   5.729  0.00  0.00    +0.043 C 
ATOM      5  C   LIG    1       24.487  29.062   5.718  0.00  0.00    -0.044 C 
ATOM      6  C   LIG    1       25.356  29.707   4.892  0.00  0.00    -0.055 C 
ATOM      7  C   LIG    1       26.868  29.626   5.280  0.00  0.00    +0.020 C 
ATOM      8  C   LIG    1       27.306  28.697   6.428  0.00  0.00    +0.013 C 
ATOM      9  C   LIG    1       26.238  28.659   7.492  0.00  0.00    +0.036 C 
ATOM     10  C   LIG    1       27.991  29.560   4.157  0.00  0.00    +0.006 C 
ATOM     11  C   LIG    1       29.515  29.582   3.982  0.00  0.00    +0.008 C 
ATOM     12  C   LIG    1       29.696  31.078   3.470  0.00  0.00    +0.049 C 
ATOM     13  C   LIG    1       28.205  31.594   3.134  0.00  0.00    +0.132 C 
ATOM     14  C   LIG    1       27.536  30.206   2.790  0.00  0.00    +0.012 C 
ATOM     15  C   LIG    1       28.179  29.645   1.470  0.00  0.00    +0.015 C 
ATOM     16  C   LIG    1       26.091  29.630   2.637  0.00  0.00    +0.023 C 
ATOM     17  C   LIG    1       24.992  30.255   3.483  0.00  0.00    +0.046 C 
ATOM     18  C   LIG    1       24.992  28.214   6.806  0.00  0.00    -0.041 C 
ATOM     19  C   LIG    1       24.309  27.142   7.246  0.00  0.00    +0.050 C 
ENDROOT
BRANCH  17  20
ATOM     20  C   LIG    1       24.796  31.693   2.946  0.00  0.00    -0.040 A 
ATOM     21  C   LIG    1       24.654  32.865   3.680  0.00  0.00    +0.006 A 
ATOM     22  C   LIG    1       24.436  34.126   3.021  0.00  0.00    +0.023 A 
ATOM     23  C   LIG    1       24.351  34.279   1.618  0.00  0.00    +0.029 A 
ATOM     24  C   LIG    1       24.401  33.093   0.911  0.00  0.00    +0.023 A 
ATOM     25  C   LIG    1       24.587  31.865   1.549  0.00  0.00    +0.006 A 
BRANCH  23  26
ATOM     26  N   LIG    1       24.180  35.477   0.943  0.00  0.00    -0.336 N 
ATOM     27  C   LIG    1       23.222  35.633  -0.139  0.00  0.00    +0.129 C 
ATOM     28  C   LIG    1       24.774  36.728   1.429  0.00  0.00    +0.129 C 
ENDBRANCH  23  26
ENDBRANCH  17  20
BRANCH  13  29
ATOM     29  C   LIG    1       28.277  32.785   2.306  0.00  0.00    -0.067 C 
ATOM     30  C   LIG    1       27.997  33.432   1.347  0.00  0.00    -0.103 C 
ATOM     31  C   LIG    1       27.657  34.216   0.183  0.00  0.00    +0.106 C 
ENDBRANCH  13  29
BRANCH  13  32
ATOM     32  O   LIG    1       27.654  32.160   4.342  0.00  0.00    -0.376 OA
ATOM     33  H   LIG    1       28.303  32.806   4.669  0.00  0.00    +0.211 HD
ENDBRANCH  13  32
TORSDOF 4
ENDMDL
MODEL 7
REMARK VINA RESULT:      -5.7      2.505      5.880
REMARK  Name = 
REMARK                            x       y       z     vdW  Elec       q    Type
REMARK                         _______ _______ _______ _____ _____    ______ ____
ROOT
ATOM      1  O   LIG    1       26.020  23.614   6.668  0.00  0.00    -0.293 OA
ATOM      2  C   LIG    1       26.394  24.769   6.479  0.00  0.00    +0.157 C 
ATOM      3  C   LIG    1       25.689  25.736   5.540  0.00  0.00    +0.083 C 
ATOM      4  C   LIG    1       26.654  26.857   5.078  0.00  0.00    +0.043 C 
ATOM      5  C   LIG    1       27.282  27.534   6.280  0.00  0.00    -0.044 C 
ATOM      6  C   LIG    1       27.686  28.827   6.414  0.00  0.00    -0.055 C 
ATOM      7  C   LIG    1       28.085  29.281   7.855  0.00  0.00    +0.020 C 
ATOM      8  C   LIG    1       28.182  28.232   8.979  0.00  0.00    +0.013 C 
ATOM      9  C   LIG    1       27.139  27.163   8.773  0.00  0.00    +0.036 C 
ATOM     10  C   LIG    1       29.258  30.331   8.079  0.00  0.00    +0.006 C 
ATOM     11  C   LIG    1       29.939  31.151   9.182  0.00  0.00    +0.008 C 
ATOM     12  C   LIG    1       29.300  32.576   8.879  0.00  0.00    +0.049 C 
ATOM     13  C   LIG    1       28.578  32.421   7.444  0.00  0.00    +0.132 C 
ATOM     14  C   LIG    1       29.483  31.279   6.836  0.00  0.00    +0.012 C 
ATOM     15  C   LIG    1       30.931  31.846   6.607  0.00  0.00    +0.015 C 
ATOM     16  C   LIG    1       29.414  30.263   5.650  0.00  0.00    +0.023 C 
ATOM     17  C   LIG    1       28.039  29.769   5.227  0.00  0.00    +0.046 C 
ATOM     18  C   LIG    1       27.386  26.606   7.414  0.00  0.00    -0.041 C 
ATOM     19  C   LIG    1       27.585  25.287   7.235  0.00  0.00    +0.050 C 
ENDROOT
BRANCH  17  20
ATOM     20  C   LIG    1       27.310  30.988   4.615  0.00  0.00    -0.040 A 
ATOM     21  C   LIG    1       25.968  31.329   4.739  0.00  0.00    +0.006 A 
ATOM     22  C   LIG    1       25.436  32.484   4.065  0.00  0.00    +0.023 A 
ATOM     23  C   LIG    1       26.203  33.344   3.248  0.00  0.00    +0.029 A 
ATOM     24  C   LIG    1       27.510  32.938   3.061  0.00  0.00    +0.023 A 
ATOM     25  C   LIG    1       28.024  31.803   3.692  0.00  0.00    +0.006 A 
BRANCH  23  26
ATOM     26  N   LIG    1       25.739  34.485   2.612  0.00  0.00    -0.336 N 
ATOM     27  C   LIG    1       24.330  34.840   2.574  0.00  0.00    +0.129 C 
ATOM     28  C   LIG    1       26.654  35.534   2.145  0.00  0.00    +0.129 C 
ENDBRANCH  23  26
ENDBRANCH  17  20
BRANCH  13  29
ATOM     29  C   LIG    1       28.300  33.735   6.893  0.00  0.00    -0.067 C 
ATOM     30  C   LIG    1       28.500  34.637   6.144  0.00  0.00    -0.103 C 
ATOM     31  C   LIG    1       28.743  35.732   5.233  0.00  0.00    +0.106 C 
ENDBRANCH  13  29
BRANCH  13  32
ATOM     32  O   LIG    1       27.232  31.956   7.679  0.00  0.00    -0.376 OA
ATOM     33  H   LIG    1       27.130  31.129   7.177  0.00  0.00    +0.211 HD
ENDBRANCH  13  32
TORSDOF 4
ENDMDL
MODEL 8
REMARK VINA RESULT:      -5.5      4.454      7.743
REMARK  Name = 
REMARK                            x       y       z     vdW  Elec       q    Type
REMARK                         _______ _______ _______ _____ _____    ______ ____
ROOT
ATOM      1  O   LIG    1       19.478  28.955   8.606  0.00  0.00    -0.293 OA
ATOM      2  C   LIG    1       20.601  28.479   8.456  0.00  0.00    +0.157 C 
ATOM      3  C   LIG    1       20.939  27.023   8.735  0.00  0.00    +0.083 C 
ATOM      4  C   LIG    1       22.455  26.851   9.006  0.00  0.00    +0.043 C 
ATOM      5  C   LIG    1       23.260  27.449   7.870  0.00  0.00    -0.044 C 
ATOM      6  C   LIG    1       24.474  27.063   7.391  0.00  0.00    -0.055 C 
ATOM      7  C   LIG    1       24.939  27.737   6.060  0.00  0.00    +0.020 C 
ATOM      8  C   LIG    1       24.120  28.903   5.476  0.00  0.00    +0.013 C 
ATOM      9  C   LIG    1       22.653  28.688   5.756  0.00  0.00    +0.036 C 
ATOM     10  C   LIG    1       26.476  28.060   5.809  0.00  0.00    +0.006 C 
ATOM     11  C   LIG    1       27.432  28.570   4.723  0.00  0.00    +0.008 C 
ATOM     12  C   LIG    1       28.093  27.190   4.289  0.00  0.00    +0.049 C 
ATOM     13  C   LIG    1       27.634  26.128   5.414  0.00  0.00    +0.132 C 
ATOM     14  C   LIG    1       27.446  27.120   6.627  0.00  0.00    +0.012 C 
ATOM     15  C   LIG    1       28.850  27.700   7.031  0.00  0.00    +0.015 C 
ATOM     16  C   LIG    1       26.759  27.106   8.031  0.00  0.00    +0.023 C 
ATOM     17  C   LIG    1       25.520  26.240   8.199  0.00  0.00    +0.046 C 
ATOM     18  C   LIG    1       22.533  28.557   7.235  0.00  0.00    -0.041 C 
ATOM     19  C   LIG    1       21.705  29.355   7.933  0.00  0.00    +0.050 C 
ENDROOT
BRANCH  17  20
ATOM     20  C   LIG    1       25.997  24.773   8.089  0.00  0.00    -0.040 A 
ATOM     21  C   LIG    1       27.160  24.214   8.605  0.00  0.00    +0.006 A 
ATOM     22  C   LIG    1       27.478  22.830   8.376  0.00  0.00    +0.023 A 
ATOM     23  C   LIG    1       26.664  21.946   7.632  0.00  0.00    +0.029 A 
ATOM     24  C   LIG    1       25.561  22.540   7.049  0.00  0.00    +0.023 A 
ATOM     25  C   LIG    1       25.263  23.890   7.248  0.00  0.00    +0.006 A 
BRANCH  23  26
ATOM     26  N   LIG    1       26.914  20.599   7.419  0.00  0.00    -0.336 N 
ATOM     27  C   LIG    1       28.214  19.998   7.661  0.00  0.00    +0.129 C 
ATOM     28  C   LIG    1       25.828  19.644   7.166  0.00  0.00    +0.129 C 
ENDBRANCH  23  26
ENDBRANCH  17  20
BRANCH  13  29
ATOM     29  C   LIG    1       28.476  24.947   5.342  0.00  0.00    -0.067 C 
ATOM     30  C   LIG    1       28.692  23.810   5.065  0.00  0.00    -0.103 C 
ATOM     31  C   LIG    1       28.952  22.430   4.729  0.00  0.00    +0.106 C 
ENDBRANCH  13  29
BRANCH  13  32
ATOM     32  O   LIG    1       26.373  25.563   4.995  0.00  0.00    -0.376 OA
ATOM     33  H   LIG    1       26.182  25.928   4.114  0.00  0.00    +0.211 HD
ENDBRANCH  13  32
TORSDOF 4
ENDMDL
MODEL 9
REMARK VINA RESULT:      -5.4      5.131      8.611
REMARK  Name = 
REMARK                            x       y       z     vdW  Elec       q    Type
REMARK                         _______ _______ _______ _____ _____    ______ ____
ROOT
ATOM      1  O   LIG    1       27.652  30.796   7.315  0.00  0.00    -0.293 OA
ATOM      2  C   LIG    1       27.622  29.572   7.202  0.00  0.00    +0.157 C 
ATOM      3  C   LIG    1       27.411  28.628   8.376  0.00  0.00    +0.083 C 
ATOM      4  C   LIG    1       27.968  27.218   8.055  0.00  0.00    +0.043 C 
ATOM      5  C   LIG    1       27.379  26.706   6.756  0.00  0.00    -0.044 C 
ATOM      6  C   LIG    1       27.111  25.423   6.389  0.00  0.00    -0.055 C 
ATOM      7  C   LIG    1       26.290  25.236   5.072  0.00  0.00    +0.020 C 
ATOM      8  C   LIG    1       25.998  26.460   4.183  0.00  0.00    +0.013 C 
ATOM      9  C   LIG    1       25.801  27.682   5.043  0.00  0.00    +0.036 C 
ATOM     10  C   LIG    1       26.570  24.002   4.110  0.00  0.00    +0.006 C 
ATOM     11  C   LIG    1       26.030  23.319   2.847  0.00  0.00    +0.008 C 
ATOM     12  C   LIG    1       25.292  22.079   3.517  0.00  0.00    +0.049 C 
ATOM     13  C   LIG    1       25.785  22.072   5.054  0.00  0.00    +0.132 C 
ATOM     14  C   LIG    1       27.193  22.761   4.863  0.00  0.00    +0.012 C 
ATOM     15  C   LIG    1       28.122  21.800   4.037  0.00  0.00    +0.015 C 
ATOM     16  C   LIG    1       28.269  23.449   5.764  0.00  0.00    +0.023 C 
ATOM     17  C   LIG    1       27.786  24.168   7.014  0.00  0.00    +0.046 C 
ATOM     18  C   LIG    1       27.043  27.817   5.855  0.00  0.00    -0.041 C 
ATOM     19  C   LIG    1       27.757  28.957   5.838  0.00  0.00    +0.050 C 
ENDROOT
BRANCH  17  20
ATOM     20  C   LIG    1       27.259  23.071   7.969  0.00  0.00    -0.040 A 
ATOM     21  C   LIG    1       26.111  23.101   8.751  0.00  0.00    +0.006 A 
ATOM     22  C   LIG    1       25.783  22.005   9.624  0.00  0.00    +0.023 A 
ATOM     23  C   LIG    1       26.572  20.840   9.757  0.00  0.00    +0.029 A 
ATOM     24  C   LIG    1       27.755  20.867   9.043  0.00  0.00    +0.023 A 
ATOM     25  C   LIG    1       28.088  21.941   8.215  0.00  0.00    +0.006 A 
BRANCH  23  26
ATOM     26  N   LIG    1       26.274  19.747  10.556  0.00  0.00    -0.336 N 
ATOM     27  C   LIG    1       26.868  18.438  10.342  0.00  0.00    +0.129 C 
ATOM     28  C   LIG    1       25.530  19.890  11.813  0.00  0.00    +0.129 C 
ENDBRANCH  23  26
ENDBRANCH  17  20
BRANCH  13  29
ATOM     29  C   LIG    1       25.491  20.783   5.654  0.00  0.00    -0.067 C 
ATOM     30  C   LIG    1       24.927  20.073   6.425  0.00  0.00    -0.103 C 
ATOM     31  C   LIG    1       24.243  19.212   7.361  0.00  0.00    +0.106 C 
ENDBRANCH  13  29
BRANCH  13  32
ATOM     32  O   LIG    1       24.885  22.912   5.807  0.00  0.00    -0.376 OA
ATOM     33  H   LIG    1       24.793  22.505   6.686  0.00  0.00    +0.211 HD
ENDBRANCH  13  32
TORSDOF 4
ENDMDL
