MODEL 1
REMARK VINA RESULT:      -7.4      0.000      0.000
REMARK  Name = 
REMARK                            x       y       z     vdW  Elec       q    Type
REMARK                         _______ _______ _______ _____ _____    ______ ____
ROOT
ATOM      1  O   LIG    1       42.415  -2.955  13.231  0.00  0.00    -0.293 OA
ATOM      2  C   LIG    1       41.358  -2.859  13.850  0.00  0.00    +0.157 C 
ATOM      3  C   LIG    1       40.108  -3.654  13.502  0.00  0.00    +0.083 C 
ATOM      4  C   LIG    1       38.838  -2.947  14.040  0.00  0.00    +0.043 C 
ATOM      5  C   LIG    1       38.983  -2.672  15.523  0.00  0.00    -0.044 C 
ATOM      6  C   LIG    1       38.015  -2.624  16.480  0.00  0.00    -0.055 C 
ATOM      7  C   LIG    1       38.509  -2.543  17.960  0.00  0.00    +0.020 C 
ATOM      8  C   LIG    1       40.008  -2.336  18.248  0.00  0.00    +0.013 C 
ATOM      9  C   LIG    1       40.832  -3.043  17.202  0.00  0.00    +0.036 C 
ATOM     10  C   LIG    1       37.695  -1.710  19.042  0.00  0.00    +0.006 C 
ATOM     11  C   LIG    1       37.661  -1.406  20.545  0.00  0.00    +0.008 C 
ATOM     12  C   LIG    1       36.442  -2.334  20.972  0.00  0.00    +0.049 C 
ATOM     13  C   LIG    1       35.759  -2.800  19.586  0.00  0.00    +0.132 C 
ATOM     14  C   LIG    1       36.163  -1.567  18.686  0.00  0.00    +0.012 C 
ATOM     15  C   LIG    1       35.411  -0.289  19.208  0.00  0.00    +0.015 C 
ATOM     16  C   LIG    1       36.225  -1.224  17.162  0.00  0.00    +0.023 C 
ATOM     17  C   LIG    1       36.508  -2.364  16.196  0.00  0.00    +0.046 C 
ATOM     18  C   LIG    1       40.394  -2.489  15.891  0.00  0.00    -0.041 C 
ATOM     19  C   LIG    1       41.284  -1.945  15.040  0.00  0.00    +0.050 C 
ENDROOT
BRANCH  17  20
ATOM     20  C   LIG    1       35.267  -3.288  16.241  0.00  0.00    -0.040 A 
ATOM     21  C   LIG    1       33.935  -2.920  16.383  0.00  0.00    +0.006 A 
ATOM     22  C   LIG    1       32.897  -3.915  16.448  0.00  0.00    +0.023 A 
ATOM     23  C   LIG    1       33.133  -5.306  16.373  0.00  0.00    +0.029 A 
ATOM     24  C   LIG    1       34.469  -5.657  16.325  0.00  0.00    +0.023 A 
ATOM     25  C   LIG    1       35.480  -4.694  16.289  0.00  0.00    +0.006 A 
BRANCH  23  26
ATOM     26  N   LIG    1       32.162  -6.295  16.394  0.00  0.00    -0.336 N 
ATOM     27  C   LIG    1       32.488  -7.711  16.394  0.00  0.00    +0.129 C 
ATOM     28  C   LIG    1       30.752  -5.985  16.661  0.00  0.00    +0.129 C 
ENDBRANCH  23  26
ENDBRANCH  17  20
BRANCH  13  29
ATOM     29  C   LIG    1       34.430  -3.322  19.849  0.00  0.00    -0.067 C 
ATOM     30  C   LIG    1       33.355  -3.286  20.358  0.00  0.00    -0.103 C 
ATOM     31  C   LIG    1       32.050  -3.241  20.976  0.00  0.00    +0.106 C 
ENDBRANCH  13  29
BRANCH  13  32
ATOM     32  O   LIG    1       36.422  -4.007  19.153  0.00  0.00    -0.376 OA
ATOM     33  H   LIG    1       35.866  -4.750  19.443  0.00  0.00    +0.211 HD
ENDBRANCH  13  32
TORSDOF 4
ENDMDL
MODEL 2
REMARK VINA RESULT:      -7.2      3.028      6.799
REMARK  Name = 
REMARK                            x       y       z     vdW  Elec       q    Type
REMARK                         _______ _______ _______ _____ _____    ______ ____
ROOT
ATOM      1  O   LIG    1       34.568 -11.160  15.687  0.00  0.00    -0.293 OA
ATOM      2  C   LIG    1       34.695  -9.987  16.031  0.00  0.00    +0.157 C 
ATOM      3  C   LIG    1       35.874  -9.117  15.625  0.00  0.00    +0.083 C 
ATOM      4  C   LIG    1       36.059  -7.942  16.619  0.00  0.00    +0.043 C 
ATOM      5  C   LIG    1       34.762  -7.171  16.764  0.00  0.00    -0.044 C 
ATOM      6  C   LIG    1       34.584  -5.846  17.020  0.00  0.00    -0.055 C 
ATOM      7  C   LIG    1       33.123  -5.306  16.883  0.00  0.00    +0.020 C 
ATOM      8  C   LIG    1       31.967  -6.299  16.660  0.00  0.00    +0.013 C 
ATOM      9  C   LIG    1       32.440  -7.454  15.814  0.00  0.00    +0.036 C 
ATOM     10  C   LIG    1       32.589  -4.159  17.846  0.00  0.00    +0.006 C 
ATOM     11  C   LIG    1       31.377  -3.245  18.065  0.00  0.00    +0.008 C 
ATOM     12  C   LIG    1       31.965  -1.888  17.480  0.00  0.00    +0.049 C 
ATOM     13  C   LIG    1       33.545  -2.156  17.293  0.00  0.00    +0.132 C 
ATOM     14  C   LIG    1       33.744  -3.246  18.418  0.00  0.00    +0.012 C 
ATOM     15  C   LIG    1       33.514  -2.576  19.821  0.00  0.00    +0.015 C 
ATOM     16  C   LIG    1       34.819  -4.310  18.813  0.00  0.00    +0.023 C 
ATOM     17  C   LIG    1       35.643  -4.927  17.693  0.00  0.00    +0.046 C 
ATOM     18  C   LIG    1       33.602  -8.043  16.537  0.00  0.00    -0.041 C 
ATOM     19  C   LIG    1       33.620  -9.348  16.865  0.00  0.00    +0.050 C 
ENDROOT
BRANCH  17  20
ATOM     20  C   LIG    1       36.539  -3.794  17.139  0.00  0.00    -0.040 A 
ATOM     21  C   LIG    1       37.199  -2.802  17.855  0.00  0.00    +0.006 A 
ATOM     22  C   LIG    1       37.966  -1.790  17.178  0.00  0.00    +0.023 A 
ATOM     23  C   LIG    1       38.111  -1.718  15.774  0.00  0.00    +0.029 A 
ATOM     24  C   LIG    1       37.373  -2.654  15.075  0.00  0.00    +0.023 A 
ATOM     25  C   LIG    1       36.607  -3.622  15.729  0.00  0.00    +0.006 A 
BRANCH  23  26
ATOM     26  N   LIG    1       38.868  -0.784  15.085  0.00  0.00    -0.336 N 
ATOM     27  C   LIG    1       39.989  -0.085  15.691  0.00  0.00    +0.129 C 
ATOM     28  C   LIG    1       38.745  -0.611  13.632  0.00  0.00    +0.129 C 
ENDBRANCH  23  26
ENDBRANCH  17  20
BRANCH  13  29
ATOM     29  C   LIG    1       34.239  -0.890  17.137  0.00  0.00    -0.067 C 
ATOM     30  C   LIG    1       34.784  -0.048  16.496  0.00  0.00    -0.103 C 
ATOM     31  C   LIG    1       35.445   0.973  15.718  0.00  0.00    +0.106 C 
ENDBRANCH  13  29
BRANCH  13  32
ATOM     32  O   LIG    1       33.743  -2.715  15.977  0.00  0.00    -0.376 OA
ATOM     33  H   LIG    1       32.879  -2.689  15.530  0.00  0.00    +0.211 HD
ENDBRANCH  13  32
TORSDOF 4
ENDMDL
MODEL 3
REMARK VINA RESULT:      -7.2      1.906      3.275
REMARK  Name = 
REMARK                            x       y       z     vdW  Elec       q    Type
REMARK                         _______ _______ _______ _____ _____    ______ ____
ROOT
ATOM      1  O   LIG    1       42.562  -2.074  18.381  0.00  0.00    -0.293 OA
ATOM      2  C   LIG    1       41.399  -2.298  18.057  0.00  0.00    +0.157 C 
ATOM      3  C   LIG    1       40.995  -3.401  17.090  0.00  0.00    +0.083 C 
ATOM      4  C   LIG    1       39.616  -3.097  16.452  0.00  0.00    +0.043 C 
ATOM      5  C   LIG    1       38.586  -2.836  17.533  0.00  0.00    -0.044 C 
ATOM      6  C   LIG    1       37.249  -3.092  17.515  0.00  0.00    -0.055 C 
ATOM      7  C   LIG    1       36.493  -2.920  18.872  0.00  0.00    +0.020 C 
ATOM      8  C   LIG    1       37.232  -2.309  20.078  0.00  0.00    +0.013 C 
ATOM      9  C   LIG    1       38.682  -2.724  20.054  0.00  0.00    +0.036 C 
ATOM     10  C   LIG    1       34.998  -2.382  18.905  0.00  0.00    +0.006 C 
ATOM     11  C   LIG    1       33.830  -2.145  19.871  0.00  0.00    +0.008 C 
ATOM     12  C   LIG    1       32.918  -3.391  19.488  0.00  0.00    +0.049 C 
ATOM     13  C   LIG    1       33.563  -3.988  18.134  0.00  0.00    +0.132 C 
ATOM     14  C   LIG    1       34.210  -2.665  17.566  0.00  0.00    +0.012 C 
ATOM     15  C   LIG    1       33.062  -1.666  17.173  0.00  0.00    +0.015 C 
ATOM     16  C   LIG    1       35.273  -2.273  16.489  0.00  0.00    +0.023 C 
ATOM     17  C   LIG    1       36.400  -3.258  16.222  0.00  0.00    +0.046 C 
ATOM     18  C   LIG    1       39.215  -2.275  18.737  0.00  0.00    -0.041 C 
ATOM     19  C   LIG    1       40.297  -1.478  18.666  0.00  0.00    +0.050 C 
ENDROOT
BRANCH  17  20
ATOM     20  C   LIG    1       35.748  -4.494  15.557  0.00  0.00    -0.040 A 
ATOM     21  C   LIG    1       34.813  -4.515  14.530  0.00  0.00    +0.006 A 
ATOM     22  C   LIG    1       34.272  -5.760  14.052  0.00  0.00    +0.023 A 
ATOM     23  C   LIG    1       34.633  -7.026  14.564  0.00  0.00    +0.029 A 
ATOM     24  C   LIG    1       35.492  -6.980  15.645  0.00  0.00    +0.023 A 
ATOM     25  C   LIG    1       35.999  -5.773  16.129  0.00  0.00    +0.006 A 
BRANCH  23  26
ATOM     26  N   LIG    1       34.164  -8.249  14.108  0.00  0.00    -0.336 N 
ATOM     27  C   LIG    1       34.307  -9.475  14.874  0.00  0.00    +0.129 C 
ATOM     28  C   LIG    1       33.283  -8.349  12.938  0.00  0.00    +0.129 C 
ENDBRANCH  23  26
ENDBRANCH  17  20
BRANCH  13  29
ATOM     29  C   LIG    1       32.609  -4.871  17.487  0.00  0.00    -0.067 C 
ATOM     30  C   LIG    1       32.231  -5.934  17.109  0.00  0.00    -0.103 C 
ATOM     31  C   LIG    1       31.772  -7.225  16.652  0.00  0.00    +0.106 C 
ENDBRANCH  13  29
BRANCH  13  32
ATOM     32  O   LIG    1       34.574  -4.947  18.515  0.00  0.00    -0.376 OA
ATOM     33  H   LIG    1       34.720  -4.833  19.470  0.00  0.00    +0.211 HD
ENDBRANCH  13  32
TORSDOF 4
ENDMDL
MODEL 4
REMARK VINA RESULT:      -7.1      2.639      3.153
REMARK  Name = 
REMARK                            x       y       z     vdW  Elec       q    Type
REMARK                         _______ _______ _______ _____ _____    ______ ____
ROOT
ATOM      1  O   LIG    1       42.562  -6.829  19.181  0.00  0.00    -0.293 OA
ATOM      2  C   LIG    1       41.493  -6.358  18.800  0.00  0.00    +0.157 C 
ATOM      3  C   LIG    1       40.324  -7.207  18.326  0.00  0.00    +0.083 C 
ATOM      4  C   LIG    1       39.381  -6.385  17.411  0.00  0.00    +0.043 C 
ATOM      5  C   LIG    1       38.955  -5.110  18.111  0.00  0.00    -0.044 C 
ATOM      6  C   LIG    1       37.786  -4.422  17.991  0.00  0.00    -0.055 C 
ATOM      7  C   LIG    1       37.554  -3.268  19.019  0.00  0.00    +0.020 C 
ATOM      8  C   LIG    1       38.698  -2.854  19.963  0.00  0.00    +0.013 C 
ATOM      9  C   LIG    1       39.514  -4.065  20.341  0.00  0.00    +0.036 C 
ATOM     10  C   LIG    1       36.784  -1.944  18.591  0.00  0.00    +0.006 C 
ATOM     11  C   LIG    1       36.220  -0.643  19.176  0.00  0.00    +0.008 C 
ATOM     12  C   LIG    1       34.675  -1.019  19.204  0.00  0.00    +0.049 C 
ATOM     13  C   LIG    1       34.552  -2.375  18.338  0.00  0.00    +0.132 C 
ATOM     14  C   LIG    1       35.792  -2.169  17.383  0.00  0.00    +0.012 C 
ATOM     15  C   LIG    1       35.508  -0.947  16.438  0.00  0.00    +0.015 C 
ATOM     16  C   LIG    1       36.663  -3.042  16.421  0.00  0.00    +0.023 C 
ATOM     17  C   LIG    1       36.831  -4.514  16.766  0.00  0.00    +0.046 C 
ATOM     18  C   LIG    1       39.984  -4.659  19.058  0.00  0.00    -0.041 C 
ATOM     19  C   LIG    1       41.294  -4.869  18.835  0.00  0.00    +0.050 C 
ENDROOT
BRANCH  17  20
ATOM     20  C   LIG    1       35.440  -5.165  16.579  0.00  0.00    -0.040 A 
ATOM     21  C   LIG    1       34.511  -4.918  15.576  0.00  0.00    +0.006 A 
ATOM     22  C   LIG    1       33.236  -5.585  15.571  0.00  0.00    +0.023 A 
ATOM     23  C   LIG    1       32.831  -6.520  16.550  0.00  0.00    +0.029 A 
ATOM     24  C   LIG    1       33.727  -6.683  17.588  0.00  0.00    +0.023 A 
ATOM     25  C   LIG    1       34.955  -6.018  17.610  0.00  0.00    +0.006 A 
BRANCH  23  26
ATOM     26  N   LIG    1       31.629  -7.211  16.562  0.00  0.00    -0.336 N 
ATOM     27  C   LIG    1       31.561  -8.657  16.692  0.00  0.00    +0.129 C 
ATOM     28  C   LIG    1       30.341  -6.517  16.687  0.00  0.00    +0.129 C 
ENDBRANCH  23  26
ENDBRANCH  17  20
BRANCH  13  29
ATOM     29  C   LIG    1       33.165  -2.596  17.973  0.00  0.00    -0.067 C 
ATOM     30  C   LIG    1       32.059  -2.232  17.727  0.00  0.00    -0.103 C 
ATOM     31  C   LIG    1       30.717  -1.789  17.429  0.00  0.00    +0.106 C 
ENDBRANCH  13  29
BRANCH  13  32
ATOM     32  O   LIG    1       34.757  -3.488  19.235  0.00  0.00    -0.376 OA
ATOM     33  H   LIG    1       35.277  -3.151  19.984  0.00  0.00    +0.211 HD
ENDBRANCH  13  32
TORSDOF 4
ENDMDL
MODEL 5
REMARK VINA RESULT:      -6.8      2.097      4.526
REMARK  Name = 
REMARK                            x       y       z     vdW  Elec       q    Type
REMARK                         _______ _______ _______ _____ _____    ______ ____
ROOT
ATOM      1  O   LIG    1       42.562  -1.270  16.587  0.00  0.00    -0.293 OA
ATOM      2  C   LIG    1       41.443  -1.738  16.779  0.00  0.00    +0.157 C 
ATOM      3  C   LIG    1       40.592  -1.407  17.995  0.00  0.00    +0.083 C 
ATOM      4  C   LIG    1       39.545  -2.519  18.255  0.00  0.00    +0.043 C 
ATOM      5  C   LIG    1       38.732  -2.773  17.002  0.00  0.00    -0.044 C 
ATOM      6  C   LIG    1       37.435  -3.176  16.895  0.00  0.00    -0.055 C 
ATOM      7  C   LIG    1       36.812  -3.129  15.463  0.00  0.00    +0.020 C 
ATOM      8  C   LIG    1       37.716  -2.822  14.254  0.00  0.00    +0.013 C 
ATOM      9  C   LIG    1       38.792  -1.845  14.655  0.00  0.00    +0.036 C 
ATOM     10  C   LIG    1       35.753  -4.222  15.002  0.00  0.00    +0.006 C 
ATOM     11  C   LIG    1       34.810  -4.564  13.842  0.00  0.00    +0.008 C 
ATOM     12  C   LIG    1       33.427  -4.120  14.490  0.00  0.00    +0.049 C 
ATOM     13  C   LIG    1       33.751  -3.873  16.052  0.00  0.00    +0.132 C 
ATOM     14  C   LIG    1       34.967  -4.867  16.211  0.00  0.00    +0.012 C 
ATOM     15  C   LIG    1       34.446  -6.340  16.036  0.00  0.00    +0.015 C 
ATOM     16  C   LIG    1       36.121  -5.122  17.235  0.00  0.00    +0.023 C 
ATOM     17  C   LIG    1       36.650  -3.926  18.010  0.00  0.00    +0.046 C 
ATOM     18  C   LIG    1       39.514  -2.476  15.795  0.00  0.00    -0.041 C 
ATOM     19  C   LIG    1       40.847  -2.658  15.751  0.00  0.00    +0.050 C 
ENDROOT
BRANCH  17  20
ATOM     20  C   LIG    1       35.508  -3.481  18.955  0.00  0.00    -0.040 A 
ATOM     21  C   LIG    1       35.270  -2.211  19.465  0.00  0.00    +0.006 A 
ATOM     22  C   LIG    1       34.179  -1.973  20.372  0.00  0.00    +0.023 A 
ATOM     23  C   LIG    1       33.283  -2.976  20.809  0.00  0.00    +0.029 A 
ATOM     24  C   LIG    1       33.592  -4.248  20.367  0.00  0.00    +0.023 A 
ATOM     25  C   LIG    1       34.665  -4.486  19.507  0.00  0.00    +0.006 A 
BRANCH  23  26
ATOM     26  N   LIG    1       32.200  -2.783  21.652  0.00  0.00    -0.336 N 
ATOM     27  C   LIG    1       30.879  -3.313  21.359  0.00  0.00    +0.129 C 
ATOM     28  C   LIG    1       32.363  -2.241  23.007  0.00  0.00    +0.129 C 
ENDBRANCH  23  26
ENDBRANCH  17  20
BRANCH  13  29
ATOM     29  C   LIG    1       32.512  -3.843  16.808  0.00  0.00    -0.067 C 
ATOM     30  C   LIG    1       31.622  -3.287  17.369  0.00  0.00    -0.103 C 
ATOM     31  C   LIG    1       30.542  -2.611  18.049  0.00  0.00    +0.106 C 
ENDBRANCH  13  29
BRANCH  13  32
ATOM     32  O   LIG    1       34.170  -2.500  16.202  0.00  0.00    -0.376 OA
ATOM     33  H   LIG    1       33.465  -1.950  15.820  0.00  0.00    +0.211 HD
ENDBRANCH  13  32
TORSDOF 4
ENDMDL
MODEL 6
REMARK VINA RESULT:      -6.8      3.084      4.865
REMARK  Name = 
REMARK                            x       y       z     vdW  Elec       q    Type
REMARK                         _______ _______ _______ _____ _____    ______ ____
ROOT
ATOM      1  O   LIG    1       38.154   2.289  13.249  0.00  0.00    -0.293 OA
ATOM      2  C   LIG    1       37.668   1.253  13.698  0.00  0.00    +0.157 C 
ATOM      3  C   LIG    1       38.490   0.020  14.038  0.00  0.00    +0.083 C 
ATOM      4  C   LIG    1       37.605  -1.252  14.029  0.00  0.00    +0.043 C 
ATOM      5  C   LIG    1       36.404  -1.060  14.933  0.00  0.00    -0.044 C 
ATOM      6  C   LIG    1       35.727  -1.991  15.659  0.00  0.00    -0.055 C 
ATOM      7  C   LIG    1       34.672  -1.444  16.674  0.00  0.00    +0.020 C 
ATOM      8  C   LIG    1       34.325   0.057  16.670  0.00  0.00    +0.013 C 
ATOM      9  C   LIG    1       35.551   0.865  16.328  0.00  0.00    +0.036 C 
ATOM     10  C   LIG    1       33.327  -2.244  16.957  0.00  0.00    +0.006 C 
ATOM     11  C   LIG    1       32.092  -2.230  17.866  0.00  0.00    +0.008 C 
ATOM     12  C   LIG    1       32.493  -3.399  18.868  0.00  0.00    +0.049 C 
ATOM     13  C   LIG    1       33.769  -4.119  18.191  0.00  0.00    +0.132 C 
ATOM     14  C   LIG    1       33.460  -3.793  16.678  0.00  0.00    +0.012 C 
ATOM     15  C   LIG    1       32.163  -4.568  16.245  0.00  0.00    +0.015 C 
ATOM     16  C   LIG    1       34.231  -3.801  15.317  0.00  0.00    +0.023 C 
ATOM     17  C   LIG    1       35.724  -3.517  15.353  0.00  0.00    +0.046 C 
ATOM     18  C   LIG    1       36.022   0.357  15.008  0.00  0.00    -0.041 C 
ATOM     19  C   LIG    1       36.191   1.193  13.968  0.00  0.00    +0.050 C 
ENDROOT
BRANCH  17  20
ATOM     20  C   LIG    1       36.378  -4.722  16.071  0.00  0.00    -0.040 A 
ATOM     21  C   LIG    1       36.054  -6.067  15.945  0.00  0.00    +0.006 A 
ATOM     22  C   LIG    1       36.739  -7.066  16.722  0.00  0.00    +0.023 A 
ATOM     23  C   LIG    1       37.767  -6.778  17.648  0.00  0.00    +0.029 A 
ATOM     24  C   LIG    1       38.011  -5.430  17.828  0.00  0.00    +0.023 A 
ATOM     25  C   LIG    1       37.331  -4.456  17.094  0.00  0.00    +0.006 A 
BRANCH  23  26
ATOM     26  N   LIG    1       38.476  -7.712  18.388  0.00  0.00    -0.336 N 
ATOM     27  C   LIG    1       37.838  -8.849  19.028  0.00  0.00    +0.129 C 
ATOM     28  C   LIG    1       39.944  -7.752  18.375  0.00  0.00    +0.129 C 
ENDBRANCH  23  26
ENDBRANCH  17  20
BRANCH  13  29
ATOM     29  C   LIG    1       33.979  -5.417  18.805  0.00  0.00    -0.067 C 
ATOM     30  C   LIG    1       34.094  -6.601  18.775  0.00  0.00    -0.103 C 
ATOM     31  C   LIG    1       34.234  -8.038  18.738  0.00  0.00    +0.106 C 
ENDBRANCH  13  29
BRANCH  13  32
ATOM     32  O   LIG    1       34.953  -3.431  18.647  0.00  0.00    -0.376 OA
ATOM     33  H   LIG    1       35.643  -3.589  17.979  0.00  0.00    +0.211 HD
ENDBRANCH  13  32
TORSDOF 4
ENDMDL
MODEL 7
REMARK VINA RESULT:      -6.7      3.071      8.099
REMARK  Name = 
REMARK                            x       y       z     vdW  Elec       q    Type
REMARK                         _______ _______ _______ _____ _____    ______ ____
ROOT
ATOM      1  O   LIG    1       31.710  -3.299  25.267  0.00  0.00    -0.293 OA
ATOM      2  C   LIG    1       32.453  -3.048  24.321  0.00  0.00    +0.157 C 
ATOM      3  C   LIG    1       33.920  -3.448  24.277  0.00  0.00    +0.083 C 
ATOM      4  C   LIG    1       34.707  -2.547  23.292  0.00  0.00    +0.043 C 
ATOM      5  C   LIG    1       34.039  -2.553  21.931  0.00  0.00    -0.044 C 
ATOM      6  C   LIG    1       34.610  -2.423  20.702  0.00  0.00    -0.055 C 
ATOM      7  C   LIG    1       33.682  -2.700  19.475  0.00  0.00    +0.020 C 
ATOM      8  C   LIG    1       32.174  -2.913  19.701  0.00  0.00    +0.013 C 
ATOM      9  C   LIG    1       31.947  -3.626  21.010  0.00  0.00    +0.036 C 
ATOM     10  C   LIG    1       33.852  -1.875  18.127  0.00  0.00    +0.006 C 
ATOM     11  C   LIG    1       33.332  -1.814  16.685  0.00  0.00    +0.008 C 
ATOM     12  C   LIG    1       34.571  -2.472  15.934  0.00  0.00    +0.049 C 
ATOM     13  C   LIG    1       35.751  -2.532  17.033  0.00  0.00    +0.132 C 
ATOM     14  C   LIG    1       35.313  -1.308  17.930  0.00  0.00    +0.012 C 
ATOM     15  C   LIG    1       35.473   0.015  17.097  0.00  0.00    +0.015 C 
ATOM     16  C   LIG    1       35.629  -0.755  19.357  0.00  0.00    +0.023 C 
ATOM     17  C   LIG    1       35.994  -1.762  20.437  0.00  0.00    +0.046 C 
ATOM     18  C   LIG    1       32.593  -2.781  22.054  0.00  0.00    -0.041 C 
ATOM     19  C   LIG    1       31.894  -2.344  23.117  0.00  0.00    +0.050 C 
ENDROOT
BRANCH  17  20
ATOM     20  C   LIG    1       37.367  -2.350  20.037  0.00  0.00    -0.040 A 
ATOM     21  C   LIG    1       37.671  -3.669  19.721  0.00  0.00    +0.006 A 
ATOM     22  C   LIG    1       39.019  -4.061  19.408  0.00  0.00    +0.023 A 
ATOM     23  C   LIG    1       40.116  -3.170  19.392  0.00  0.00    +0.029 A 
ATOM     24  C   LIG    1       39.813  -1.885  19.799  0.00  0.00    +0.023 A 
ATOM     25  C   LIG    1       38.510  -1.507  20.129  0.00  0.00    +0.006 A 
BRANCH  23  26
ATOM     26  N   LIG    1       41.422  -3.498  19.061  0.00  0.00    -0.336 N 
ATOM     27  C   LIG    1       41.745  -4.490  18.050  0.00  0.00    +0.129 C 
ATOM     28  C   LIG    1       42.561  -2.700  19.531  0.00  0.00    +0.129 C 
ENDBRANCH  23  26
ENDBRANCH  17  20
BRANCH  13  29
ATOM     29  C   LIG    1       37.024  -2.748  16.370  0.00  0.00    -0.067 C 
ATOM     30  C   LIG    1       38.161  -2.484  16.140  0.00  0.00    -0.103 C 
ATOM     31  C   LIG    1       39.542  -2.163  15.862  0.00  0.00    +0.106 C 
ENDBRANCH  13  29
BRANCH  13  32
ATOM     32  O   LIG    1       35.623  -3.780  17.747  0.00  0.00    -0.376 OA
ATOM     33  H   LIG    1       34.672  -3.917  17.901  0.00  0.00    +0.211 HD
ENDBRANCH  13  32
TORSDOF 4
ENDMDL
MODEL 8
REMARK VINA RESULT:      -6.5      2.954      7.427
REMARK  Name = 
REMARK                            x       y       z     vdW  Elec       q    Type
REMARK                         _______ _______ _______ _____ _____    ______ ____
ROOT
ATOM      1  O   LIG    1       30.959  -3.276  19.859  0.00  0.00    -0.293 OA
ATOM      2  C   LIG    1       32.136  -3.177  19.518  0.00  0.00    +0.157 C 
ATOM      3  C   LIG    1       33.256  -4.013  20.117  0.00  0.00    +0.083 C 
ATOM      4  C   LIG    1       34.626  -3.312  19.934  0.00  0.00    +0.043 C 
ATOM      5  C   LIG    1       34.845  -2.967  18.475  0.00  0.00    -0.044 C 
ATOM      6  C   LIG    1       36.016  -2.898  17.783  0.00  0.00    -0.055 C 
ATOM      7  C   LIG    1       35.894  -2.740  16.233  0.00  0.00    +0.020 C 
ATOM      8  C   LIG    1       34.511  -2.488  15.604  0.00  0.00    +0.013 C 
ATOM      9  C   LIG    1       33.451  -3.222  16.385  0.00  0.00    +0.036 C 
ATOM     10  C   LIG    1       36.954  -1.877  15.420  0.00  0.00    +0.006 C 
ATOM     11  C   LIG    1       37.352  -1.507  13.986  0.00  0.00    +0.008 C 
ATOM     12  C   LIG    1       38.628  -2.443  13.820  0.00  0.00    +0.049 C 
ATOM     13  C   LIG    1       38.952  -2.985  15.305  0.00  0.00    +0.132 C 
ATOM     14  C   LIG    1       38.357  -1.784  16.140  0.00  0.00    +0.012 C 
ATOM     15  C   LIG    1       39.226  -0.501  15.876  0.00  0.00    +0.015 C 
ATOM     16  C   LIG    1       37.932  -1.509  17.619  0.00  0.00    +0.023 C 
ATOM     17  C   LIG    1       37.413  -2.684  18.432  0.00  0.00    +0.046 C 
ATOM     18  C   LIG    1       33.567  -2.737  17.789  0.00  0.00    -0.041 C 
ATOM     19  C   LIG    1       32.504  -2.212  18.426  0.00  0.00    +0.050 C 
ENDROOT
BRANCH  17  20
ATOM     20  C   LIG    1       38.618  -3.632  18.642  0.00  0.00    -0.040 A 
ATOM     21  C   LIG    1       39.924  -3.290  18.973  0.00  0.00    +0.006 A 
ATOM     22  C   LIG    1       40.943  -4.300  19.091  0.00  0.00    +0.023 A 
ATOM     23  C   LIG    1       40.713  -5.680  18.890  0.00  0.00    +0.029 A 
ATOM     24  C   LIG    1       39.434  -5.990  18.472  0.00  0.00    +0.023 A 
ATOM     25  C   LIG    1       38.449  -5.011  18.332  0.00  0.00    +0.006 A 
BRANCH  23  26
ATOM     26  N   LIG    1       41.656  -6.686  19.030  0.00  0.00    -0.336 N 
ATOM     27  C   LIG    1       42.562  -6.756  20.163  0.00  0.00    +0.129 C 
ATOM     28  C   LIG    1       41.643  -7.879  18.174  0.00  0.00    +0.129 C 
ENDBRANCH  23  26
ENDBRANCH  17  20
BRANCH  13  29
ATOM     29  C   LIG    1       40.300  -3.524  15.344  0.00  0.00    -0.067 C 
ATOM     30  C   LIG    1       41.087  -4.414  15.393  0.00  0.00    -0.103 C 
ATOM     31  C   LIG    1       42.043  -5.495  15.452  0.00  0.00    +0.106 C 
ENDBRANCH  13  29
BRANCH  13  32
ATOM     32  O   LIG    1       38.191  -4.195  15.506  0.00  0.00    -0.376 OA
ATOM     33  H   LIG    1       37.253  -3.940  15.496  0.00  0.00    +0.211 HD
ENDBRANCH  13  32
TORSDOF 4
ENDMDL
MODEL 9
REMARK VINA RESULT:      -6.3      3.167      6.669
REMARK  Name = 
REMARK                            x       y       z     vdW  Elec       q    Type
REMARK                         _______ _______ _______ _____ _____    ______ ____
ROOT
ATOM      1  O   LIG    1       33.070  -2.519  24.212  0.00  0.00    -0.293 OA
ATOM      2  C   LIG    1       33.294  -3.033  23.119  0.00  0.00    +0.157 C 
ATOM      3  C   LIG    1       32.376  -4.059  22.471  0.00  0.00    +0.083 C 
ATOM      4  C   LIG    1       33.151  -4.915  21.438  0.00  0.00    +0.043 C 
ATOM      5  C   LIG    1       33.854  -4.019  20.438  0.00  0.00    -0.044 C 
ATOM      6  C   LIG    1       34.135  -4.261  19.128  0.00  0.00    -0.055 C 
ATOM      7  C   LIG    1       34.667  -3.047  18.299  0.00  0.00    +0.020 C 
ATOM      8  C   LIG    1       35.017  -1.733  19.022  0.00  0.00    +0.013 C 
ATOM      9  C   LIG    1       34.074  -1.518  20.178  0.00  0.00    +0.036 C 
ATOM     10  C   LIG    1       35.742  -3.261  17.148  0.00  0.00    +0.006 C 
ATOM     11  C   LIG    1       36.470  -2.502  16.031  0.00  0.00    +0.008 C 
ATOM     12  C   LIG    1       35.652  -3.037  14.777  0.00  0.00    +0.049 C 
ATOM     13  C   LIG    1       34.772  -4.267  15.338  0.00  0.00    +0.132 C 
ATOM     14  C   LIG    1       35.705  -4.714  16.530  0.00  0.00    +0.012 C 
ATOM     15  C   LIG    1       37.044  -5.287  15.940  0.00  0.00    +0.015 C 
ATOM     16  C   LIG    1       35.590  -5.598  17.815  0.00  0.00    +0.023 C 
ATOM     17  C   LIG    1       34.232  -5.678  18.493  0.00  0.00    +0.046 C 
ATOM     18  C   LIG    1       34.200  -2.726  21.041  0.00  0.00    -0.041 C 
ATOM     19  C   LIG    1       34.511  -2.611  22.345  0.00  0.00    +0.050 C 
ENDROOT
BRANCH  17  20
ATOM     20  C   LIG    1       33.306  -6.448  17.521  0.00  0.00    -0.040 A 
ATOM     21  C   LIG    1       32.041  -6.080  17.078  0.00  0.00    +0.006 A 
ATOM     22  C   LIG    1       31.289  -6.937  16.200  0.00  0.00    +0.023 A 
ATOM     23  C   LIG    1       31.755  -8.183  15.725  0.00  0.00    +0.029 A 
ATOM     24  C   LIG    1       32.972  -8.575  16.248  0.00  0.00    +0.023 A 
ATOM     25  C   LIG    1       33.693  -7.757  17.122  0.00  0.00    +0.006 A 
BRANCH  23  26
ATOM     26  N   LIG    1       31.081  -9.020  14.850  0.00  0.00    -0.336 N 
ATOM     27  C   LIG    1       31.759 -10.032  14.057  0.00  0.00    +0.129 C 
ATOM     28  C   LIG    1       29.615  -9.108  14.842  0.00  0.00    +0.129 C 
ENDBRANCH  23  26
ENDBRANCH  17  20
BRANCH  13  29
ATOM     29  C   LIG    1       34.289  -5.069  14.227  0.00  0.00    -0.067 C 
ATOM     30  C   LIG    1       34.136  -6.095  13.644  0.00  0.00    -0.103 C 
ATOM     31  C   LIG    1       33.950  -7.340  12.938  0.00  0.00    +0.106 C 
ENDBRANCH  13  29
BRANCH  13  32
ATOM     32  O   LIG    1       33.522  -3.729  15.820  0.00  0.00    -0.376 OA
ATOM     33  H   LIG    1       33.013  -4.478  16.175  0.00  0.00    +0.211 HD
ENDBRANCH  13  32
TORSDOF 4
ENDMDL
