MODEL 1
REMARK VINA RESULT:      -5.3      0.000      0.000
REMARK  Name = 
REMARK                            x       y       z     vdW  Elec       q    Type
REMARK                         _______ _______ _______ _____ _____    ______ ____
ROOT
ATOM      1  O   LIG    1       42.538  24.576  13.442  0.00  0.00    -0.293 OA
ATOM      2  C   LIG    1       42.042  25.368  12.644  0.00  0.00    +0.157 C 
ATOM      3  C   LIG    1       41.147  26.527  13.058  0.00  0.00    +0.083 C 
ATOM      4  C   LIG    1       40.247  26.977  11.880  0.00  0.00    +0.043 C 
ATOM      5  C   LIG    1       41.095  27.276  10.660  0.00  0.00    -0.044 C 
ATOM      6  C   LIG    1       40.871  28.183   9.669  0.00  0.00    -0.055 C 
ATOM      7  C   LIG    1       42.048  28.417   8.666  0.00  0.00    +0.020 C 
ATOM      8  C   LIG    1       43.289  27.506   8.731  0.00  0.00    +0.013 C 
ATOM      9  C   LIG    1       43.566  27.118  10.161  0.00  0.00    +0.036 C 
ATOM     10  C   LIG    1       41.758  28.723   7.133  0.00  0.00    +0.006 C 
ATOM     11  C   LIG    1       42.471  29.114   5.833  0.00  0.00    +0.008 C 
ATOM     12  C   LIG    1       42.075  30.653   5.772  0.00  0.00    +0.049 C 
ATOM     13  C   LIG    1       40.930  30.841   6.894  0.00  0.00    +0.132 C 
ATOM     14  C   LIG    1       40.341  29.377   6.891  0.00  0.00    +0.012 C 
ATOM     15  C   LIG    1       39.645  29.111   5.508  0.00  0.00    +0.015 C 
ATOM     16  C   LIG    1       39.430  28.500   7.810  0.00  0.00    +0.023 C 
ATOM     17  C   LIG    1       39.476  28.767   9.307  0.00  0.00    +0.046 C 
ATOM     18  C   LIG    1       42.321  26.466  10.657  0.00  0.00    -0.041 C 
ATOM     19  C   LIG    1       42.353  25.227  11.181  0.00  0.00    +0.050 C 
ENDROOT
BRANCH  17  20
ATOM     20  C   LIG    1       38.848  30.166   9.517  0.00  0.00    -0.040 A 
ATOM     21  C   LIG    1       37.715  30.692   8.909  0.00  0.00    +0.006 A 
ATOM     22  C   LIG    1       37.286  32.037   9.187  0.00  0.00    +0.023 A 
ATOM     23  C   LIG    1       37.955  32.911  10.073  0.00  0.00    +0.029 A 
ATOM     24  C   LIG    1       39.129  32.405  10.595  0.00  0.00    +0.023 A 
ATOM     25  C   LIG    1       39.563  31.109  10.308  0.00  0.00    +0.006 A 
BRANCH  23  26
ATOM     26  N   LIG    1       37.555  34.199  10.396  0.00  0.00    -0.336 N 
ATOM     27  C   LIG    1       37.827  34.799  11.691  0.00  0.00    +0.129 C 
ATOM     28  C   LIG    1       37.048  35.127   9.378  0.00  0.00    +0.129 C 
ENDBRANCH  23  26
ENDBRANCH  17  20
BRANCH  13  29
ATOM     29  C   LIG    1       40.227  32.092   6.669  0.00  0.00    -0.067 C 
ATOM     30  C   LIG    1       39.270  32.735   6.376  0.00  0.00    -0.103 C 
ATOM     31  C   LIG    1       38.108  33.516   6.021  0.00  0.00    +0.106 C 
ENDBRANCH  13  29
BRANCH  13  32
ATOM     32  O   LIG    1       41.586  31.143   8.144  0.00  0.00    -0.376 OA
ATOM     33  H   LIG    1       42.377  30.578   8.188  0.00  0.00    +0.211 HD
ENDBRANCH  13  32
TORSDOF 4
ENDMDL
MODEL 2
REMARK VINA RESULT:      -3.8      2.761      7.459
REMARK  Name = 
REMARK                            x       y       z     vdW  Elec       q    Type
REMARK                         _______ _______ _______ _____ _____    ______ ____
ROOT
ATOM      1  O   LIG    1       37.722  36.357   5.715  0.00  0.00    -0.293 OA
ATOM      2  C   LIG    1       38.081  35.280   6.186  0.00  0.00    +0.157 C 
ATOM      3  C   LIG    1       39.377  35.093   6.961  0.00  0.00    +0.083 C 
ATOM      4  C   LIG    1       39.829  33.612   6.929  0.00  0.00    +0.043 C 
ATOM      5  C   LIG    1       38.706  32.713   7.406  0.00  0.00    -0.044 C 
ATOM      6  C   LIG    1       38.788  31.524   8.065  0.00  0.00    -0.055 C 
ATOM      7  C   LIG    1       37.447  30.949   8.625  0.00  0.00    +0.020 C 
ATOM      8  C   LIG    1       36.118  31.632   8.253  0.00  0.00    +0.013 C 
ATOM      9  C   LIG    1       36.323  33.121   8.134  0.00  0.00    +0.036 C 
ATOM     10  C   LIG    1       37.187  29.380   8.654  0.00  0.00    +0.006 C 
ATOM     11  C   LIG    1       36.177  28.342   9.158  0.00  0.00    +0.008 C 
ATOM     12  C   LIG    1       36.972  27.800  10.425  0.00  0.00    +0.049 C 
ATOM     13  C   LIG    1       38.463  28.398  10.278  0.00  0.00    +0.132 C 
ATOM     14  C   LIG    1       38.519  28.534   8.706  0.00  0.00    +0.012 C 
ATOM     15  C   LIG    1       38.494  27.097   8.070  0.00  0.00    +0.015 C 
ATOM     16  C   LIG    1       39.400  29.270   7.644  0.00  0.00    +0.023 C 
ATOM     17  C   LIG    1       40.034  30.591   8.050  0.00  0.00    +0.046 C 
ATOM     18  C   LIG    1       37.394  33.306   7.115  0.00  0.00    -0.041 C 
ATOM     19  C   LIG    1       37.190  34.080   6.033  0.00  0.00    +0.050 C 
ENDROOT
BRANCH  17  20
ATOM     20  C   LIG    1       41.092  30.252   9.127  0.00  0.00    -0.040 A 
ATOM     21  C   LIG    1       41.896  29.122   9.206  0.00  0.00    +0.006 A 
ATOM     22  C   LIG    1       42.807  28.940  10.305  0.00  0.00    +0.023 A 
ATOM     23  C   LIG    1       42.960  29.863  11.364  0.00  0.00    +0.029 A 
ATOM     24  C   LIG    1       42.088  30.934  11.318  0.00  0.00    +0.023 A 
ATOM     25  C   LIG    1       41.184  31.100  10.266  0.00  0.00    +0.006 A 
BRANCH  23  26
ATOM     26  N   LIG    1       43.850  29.744  12.420  0.00  0.00    -0.336 N 
ATOM     27  C   LIG    1       45.202  30.274  12.365  0.00  0.00    +0.129 C 
ATOM     28  C   LIG    1       43.416  29.292  13.747  0.00  0.00    +0.129 C 
ENDBRANCH  23  26
ENDBRANCH  17  20
BRANCH  13  29
ATOM     29  C   LIG    1       39.369  27.671  11.149  0.00  0.00    -0.067 C 
ATOM     30  C   LIG    1       40.088  26.760  11.412  0.00  0.00    -0.103 C 
ATOM     31  C   LIG    1       40.961  25.654  11.731  0.00  0.00    +0.106 C 
ENDBRANCH  13  29
BRANCH  13  32
ATOM     32  O   LIG    1       38.483  29.691  10.919  0.00  0.00    -0.376 OA
ATOM     33  H   LIG    1       38.725  29.538  11.849  0.00  0.00    +0.211 HD
ENDBRANCH  13  32
TORSDOF 4
ENDMDL
