MODEL 1
REMARK VINA RESULT:      -8.0      0.000      0.000
REMARK  Name = 
REMARK                            x       y       z     vdW  Elec       q    Type
REMARK                         _______ _______ _______ _____ _____    ______ ____
ROOT
ATOM      1  O   LIG    1        7.825  -4.859  23.555  0.00  0.00    -0.293 OA
ATOM      2  C   LIG    1        8.265  -4.538  24.657  0.00  0.00    +0.157 C 
ATOM      3  C   LIG    1        9.214  -3.369  24.873  0.00  0.00    +0.083 C 
ATOM      4  C   LIG    1       10.015  -3.545  26.187  0.00  0.00    +0.043 C 
ATOM      5  C   LIG    1        9.069  -3.776  27.348  0.00  0.00    -0.044 C 
ATOM      6  C   LIG    1        9.223  -3.424  28.655  0.00  0.00    -0.055 C 
ATOM      7  C   LIG    1        7.968  -3.598  29.570  0.00  0.00    +0.020 C 
ATOM      8  C   LIG    1        6.720  -4.311  29.016  0.00  0.00    +0.013 C 
ATOM      9  C   LIG    1        6.562  -4.002  27.549  0.00  0.00    +0.036 C 
ATOM     10  C   LIG    1        8.128  -4.027  31.092  0.00  0.00    +0.006 C 
ATOM     11  C   LIG    1        7.311  -4.219  32.376  0.00  0.00    +0.008 C 
ATOM     12  C   LIG    1        7.729  -2.895  33.152  0.00  0.00    +0.049 C 
ATOM     13  C   LIG    1        8.971  -2.290  32.318  0.00  0.00    +0.132 C 
ATOM     14  C   LIG    1        9.530  -3.632  31.701  0.00  0.00    +0.012 C 
ATOM     15  C   LIG    1       10.098  -4.527  32.862  0.00  0.00    +0.015 C 
ATOM     16  C   LIG    1       10.501  -4.054  30.552  0.00  0.00    +0.023 C 
ATOM     17  C   LIG    1       10.592  -3.142  29.337  0.00  0.00    +0.046 C 
ATOM     18  C   LIG    1        7.833  -4.431  26.900  0.00  0.00    -0.041 C 
ATOM     19  C   LIG    1        7.823  -5.301  25.874  0.00  0.00    +0.050 C 
ENDROOT
BRANCH  17  20
ATOM     20  C   LIG    1       11.262  -1.836  29.825  0.00  0.00    -0.040 A 
ATOM     21  C   LIG    1       10.824  -0.531  29.633  0.00  0.00    +0.006 A 
ATOM     22  C   LIG    1       11.592   0.584  30.120  0.00  0.00    +0.023 A 
ATOM     23  C   LIG    1       12.817   0.456  30.813  0.00  0.00    +0.029 A 
ATOM     24  C   LIG    1       13.282  -0.841  30.913  0.00  0.00    +0.023 A 
ATOM     25  C   LIG    1       12.552  -1.924  30.419  0.00  0.00    +0.006 A 
BRANCH  23  26
ATOM     26  N   LIG    1       13.569   1.499  31.330  0.00  0.00    -0.336 N 
ATOM     27  C   LIG    1       12.966   2.642  31.995  0.00  0.00    +0.129 C 
ATOM     28  C   LIG    1       15.028   1.409  31.457  0.00  0.00    +0.129 C 
ENDBRANCH  23  26
ENDBRANCH  17  20
BRANCH  13  29
ATOM     29  C   LIG    1        9.675  -1.314  33.131  0.00  0.00    -0.067 C 
ATOM     30  C   LIG    1        9.971  -0.204  33.442  0.00  0.00    -0.103 C 
ATOM     31  C   LIG    1       10.329   1.143  33.818  0.00  0.00    +0.106 C 
ENDBRANCH  13  29
BRANCH  13  32
ATOM     32  O   LIG    1        8.433  -1.424  31.296  0.00  0.00    -0.376 OA
ATOM     33  H   LIG    1        7.766  -0.864  31.728  0.00  0.00    +0.211 HD
ENDBRANCH  13  32
TORSDOF 4
ENDMDL
MODEL 2
REMARK VINA RESULT:      -7.9      2.293      3.187
REMARK  Name = 
REMARK                            x       y       z     vdW  Elec       q    Type
REMARK                         _______ _______ _______ _____ _____    ______ ____
ROOT
ATOM      1  O   LIG    1       12.431  -3.409  24.289  0.00  0.00    -0.293 OA
ATOM      2  C   LIG    1       12.129  -3.047  25.424  0.00  0.00    +0.157 C 
ATOM      3  C   LIG    1       11.959  -1.589  25.822  0.00  0.00    +0.083 C 
ATOM      4  C   LIG    1       12.144  -1.410  27.350  0.00  0.00    +0.043 C 
ATOM      5  C   LIG    1       11.224  -2.352  28.101  0.00  0.00    -0.044 C 
ATOM      6  C   LIG    1       10.633  -2.176  29.316  0.00  0.00    -0.055 C 
ATOM      7  C   LIG    1        9.554  -3.233  29.719  0.00  0.00    +0.020 C 
ATOM      8  C   LIG    1        9.354  -4.482  28.841  0.00  0.00    +0.013 C 
ATOM      9  C   LIG    1        9.580  -4.132  27.392  0.00  0.00    +0.036 C 
ATOM     10  C   LIG    1        9.386  -3.681  31.235  0.00  0.00    +0.006 C 
ATOM     11  C   LIG    1        8.485  -4.530  32.141  0.00  0.00    +0.008 C 
ATOM     12  C   LIG    1        7.652  -3.369  32.840  0.00  0.00    +0.049 C 
ATOM     13  C   LIG    1        8.419  -2.003  32.452  0.00  0.00    +0.132 C 
ATOM     14  C   LIG    1        9.874  -2.585  32.261  0.00  0.00    +0.012 C 
ATOM     15  C   LIG    1       10.410  -3.079  33.653  0.00  0.00    +0.015 C 
ATOM     16  C   LIG    1       11.222  -2.128  31.614  0.00  0.00    +0.023 C 
ATOM     17  C   LIG    1       11.145  -1.198  30.412  0.00  0.00    +0.046 C 
ATOM     18  C   LIG    1       10.956  -3.565  27.318  0.00  0.00    -0.041 C 
ATOM     19  C   LIG    1       11.871  -4.085  26.480  0.00  0.00    +0.050 C 
ENDROOT
BRANCH  17  20
ATOM     20  C   LIG    1       10.598   0.149  30.940  0.00  0.00    -0.040 A 
ATOM     21  C   LIG    1        9.783   1.057  30.275  0.00  0.00    +0.006 A 
ATOM     22  C   LIG    1        9.395   2.295  30.900  0.00  0.00    +0.023 A 
ATOM     23  C   LIG    1        9.794   2.681  32.199  0.00  0.00    +0.029 A 
ATOM     24  C   LIG    1       10.678   1.811  32.807  0.00  0.00    +0.023 A 
ATOM     25  C   LIG    1       11.077   0.622  32.194  0.00  0.00    +0.006 A 
BRANCH  23  26
ATOM     26  N   LIG    1        9.414   3.845  32.851  0.00  0.00    -0.336 N 
ATOM     27  C   LIG    1       10.351   4.659  33.605  0.00  0.00    +0.129 C 
ATOM     28  C   LIG    1        8.100   4.461  32.625  0.00  0.00    +0.129 C 
ENDBRANCH  23  26
ENDBRANCH  17  20
BRANCH  13  29
ATOM     29  C   LIG    1        7.988  -0.934  33.335  0.00  0.00    -0.067 C 
ATOM     30  C   LIG    1        7.417   0.082  33.573  0.00  0.00    -0.103 C 
ATOM     31  C   LIG    1        6.724   1.316  33.862  0.00  0.00    +0.106 C 
ENDBRANCH  13  29
BRANCH  13  32
ATOM     32  O   LIG    1        7.872  -1.533  31.202  0.00  0.00    -0.376 OA
ATOM     33  H   LIG    1        8.436  -0.797  30.909  0.00  0.00    +0.211 HD
ENDBRANCH  13  32
TORSDOF 4
ENDMDL
MODEL 3
REMARK VINA RESULT:      -6.5      3.050      5.749
REMARK  Name = 
REMARK                            x       y       z     vdW  Elec       q    Type
REMARK                         _______ _______ _______ _____ _____    ______ ____
ROOT
ATOM      1  O   LIG    1        6.364  -4.526  31.415  0.00  0.00    -0.293 OA
ATOM      2  C   LIG    1        7.490  -4.034  31.424  0.00  0.00    +0.157 C 
ATOM      3  C   LIG    1        8.507  -4.243  30.312  0.00  0.00    +0.083 C 
ATOM      4  C   LIG    1        9.947  -4.007  30.831  0.00  0.00    +0.043 C 
ATOM      5  C   LIG    1       10.049  -2.647  31.491  0.00  0.00    -0.044 C 
ATOM      6  C   LIG    1       11.121  -1.811  31.559  0.00  0.00    -0.055 C 
ATOM      7  C   LIG    1       10.845  -0.375  32.112  0.00  0.00    +0.020 C 
ATOM      8  C   LIG    1        9.464  -0.047  32.710  0.00  0.00    +0.013 C 
ATOM      9  C   LIG    1        8.391  -0.802  31.966  0.00  0.00    +0.036 C 
ATOM     10  C   LIG    1       11.937   0.381  32.986  0.00  0.00    +0.006 C 
ATOM     11  C   LIG    1       12.219   1.740  33.638  0.00  0.00    +0.008 C 
ATOM     12  C   LIG    1       13.279   2.312  32.599  0.00  0.00    +0.049 C 
ATOM     13  C   LIG    1       13.677   1.058  31.665  0.00  0.00    +0.132 C 
ATOM     14  C   LIG    1       13.409  -0.109  32.694  0.00  0.00    +0.012 C 
ATOM     15  C   LIG    1       14.455  -0.006  33.862  0.00  0.00    +0.015 C 
ATOM     16  C   LIG    1       13.221  -1.660  32.653  0.00  0.00    +0.023 C 
ATOM     17  C   LIG    1       12.602  -2.261  31.400  0.00  0.00    +0.046 C 
ATOM     18  C   LIG    1        8.759  -2.242  32.067  0.00  0.00    -0.041 C 
ATOM     19  C   LIG    1        7.891  -3.142  32.565  0.00  0.00    +0.050 C 
ENDROOT
BRANCH  17  20
ATOM     20  C   LIG    1       13.634  -2.058  30.266  0.00  0.00    -0.040 A 
ATOM     21  C   LIG    1       15.016  -1.961  30.378  0.00  0.00    +0.006 A 
ATOM     22  C   LIG    1       15.836  -1.730  29.218  0.00  0.00    +0.023 A 
ATOM     23  C   LIG    1       15.326  -1.587  27.908  0.00  0.00    +0.029 A 
ATOM     24  C   LIG    1       13.947  -1.593  27.828  0.00  0.00    +0.023 A 
ATOM     25  C   LIG    1       13.147  -1.792  28.956  0.00  0.00    +0.006 A 
BRANCH  23  26
ATOM     26  N   LIG    1       16.082  -1.400  26.761  0.00  0.00    -0.336 N 
ATOM     27  C   LIG    1       17.223  -0.503  26.715  0.00  0.00    +0.129 C 
ATOM     28  C   LIG    1       15.932  -2.271  25.588  0.00  0.00    +0.129 C 
ENDBRANCH  23  26
ENDBRANCH  17  20
BRANCH  13  29
ATOM     29  C   LIG    1       14.901   1.356  30.944  0.00  0.00    -0.067 C 
ATOM     30  C   LIG    1       16.080   1.498  30.864  0.00  0.00    -0.103 C 
ATOM     31  C   LIG    1       17.510   1.670  30.767  0.00  0.00    +0.106 C 
ENDBRANCH  13  29
BRANCH  13  32
ATOM     32  O   LIG    1       12.741   1.015  30.566  0.00  0.00    -0.376 OA
ATOM     33  H   LIG    1       13.081   0.357  29.935  0.00  0.00    +0.211 HD
ENDBRANCH  13  32
TORSDOF 4
ENDMDL
MODEL 4
REMARK VINA RESULT:      -6.5      5.795      9.726
REMARK  Name = 
REMARK                            x       y       z     vdW  Elec       q    Type
REMARK                         _______ _______ _______ _____ _____    ______ ____
ROOT
ATOM      1  O   LIG    1       11.357  -1.598  31.339  0.00  0.00    -0.293 OA
ATOM      2  C   LIG    1       11.031  -0.416  31.254  0.00  0.00    +0.157 C 
ATOM      3  C   LIG    1        9.655   0.105  31.642  0.00  0.00    +0.083 C 
ATOM      4  C   LIG    1        9.352   1.445  30.926  0.00  0.00    +0.043 C 
ATOM      5  C   LIG    1       10.467   2.439  31.183  0.00  0.00    -0.044 C 
ATOM      6  C   LIG    1       10.394   3.796  31.270  0.00  0.00    -0.055 C 
ATOM      7  C   LIG    1       11.682   4.526  31.773  0.00  0.00    +0.020 C 
ATOM      8  C   LIG    1       12.984   3.724  31.956  0.00  0.00    +0.013 C 
ATOM      9  C   LIG    1       12.663   2.326  32.423  0.00  0.00    +0.036 C 
ATOM     10  C   LIG    1       12.078   5.956  31.202  0.00  0.00    +0.006 C 
ATOM     11  C   LIG    1       13.090   7.090  31.406  0.00  0.00    +0.008 C 
ATOM     12  C   LIG    1       12.165   8.129  32.177  0.00  0.00    +0.049 C 
ATOM     13  C   LIG    1       10.664   7.554  32.026  0.00  0.00    +0.132 C 
ATOM     14  C   LIG    1       10.837   6.772  30.666  0.00  0.00    +0.012 C 
ATOM     15  C   LIG    1       11.091   7.809  29.512  0.00  0.00    +0.015 C 
ATOM     16  C   LIG    1       10.065   5.676  29.861  0.00  0.00    +0.023 C 
ATOM     17  C   LIG    1        9.257   4.660  30.654  0.00  0.00    +0.046 C 
ATOM     18  C   LIG    1       11.747   1.752  31.398  0.00  0.00    -0.041 C 
ATOM     19  C   LIG    1       12.042   0.592  30.784  0.00  0.00    +0.050 C 
ENDROOT
BRANCH  17  20
ATOM     20  C   LIG    1        8.083   5.441  31.291  0.00  0.00    -0.040 A 
ATOM     21  C   LIG    1        7.512   5.249  32.543  0.00  0.00    +0.006 A 
ATOM     22  C   LIG    1        6.389   6.041  32.971  0.00  0.00    +0.023 A 
ATOM     23  C   LIG    1        5.790   7.050  32.184  0.00  0.00    +0.029 A 
ATOM     24  C   LIG    1        6.310   7.163  30.909  0.00  0.00    +0.023 A 
ATOM     25  C   LIG    1        7.383   6.378  30.481  0.00  0.00    +0.006 A 
BRANCH  23  26
ATOM     26  N   LIG    1        4.733   7.859  32.571  0.00  0.00    -0.336 N 
ATOM     27  C   LIG    1        4.080   7.726  33.862  0.00  0.00    +0.129 C 
ATOM     28  C   LIG    1        4.359   9.056  31.809  0.00  0.00    +0.129 C 
ENDBRANCH  23  26
ENDBRANCH  17  20
BRANCH  13  29
ATOM     29  C   LIG    1        9.707   8.598  32.346  0.00  0.00    -0.067 C 
ATOM     30  C   LIG    1        8.896   9.420  32.061  0.00  0.00    -0.103 C 
ATOM     31  C   LIG    1        7.911  10.418  31.714  0.00  0.00    +0.106 C 
ENDBRANCH  13  29
BRANCH  13  32
ATOM     32  O   LIG    1       10.429   6.651  33.127  0.00  0.00    -0.376 OA
ATOM     33  H   LIG    1       10.719   7.111  33.933  0.00  0.00    +0.211 HD
ENDBRANCH  13  32
TORSDOF 4
ENDMDL
MODEL 5
REMARK VINA RESULT:      -6.0      3.499      7.873
REMARK  Name = 
REMARK                            x       y       z     vdW  Elec       q    Type
REMARK                         _______ _______ _______ _____ _____    ______ ____
ROOT
ATOM      1  O   LIG    1        7.888   5.919  32.471  0.00  0.00    -0.293 OA
ATOM      2  C   LIG    1        8.554   4.895  32.339  0.00  0.00    +0.157 C 
ATOM      3  C   LIG    1        8.238   3.814  31.317  0.00  0.00    +0.083 C 
ATOM      4  C   LIG    1        8.853   2.457  31.743  0.00  0.00    +0.043 C 
ATOM      5  C   LIG    1       10.336   2.617  32.011  0.00  0.00    -0.044 C 
ATOM      6  C   LIG    1       11.334   1.707  31.843  0.00  0.00    -0.055 C 
ATOM      7  C   LIG    1       12.794   2.246  31.990  0.00  0.00    +0.020 C 
ATOM      8  C   LIG    1       13.021   3.686  32.488  0.00  0.00    +0.013 C 
ATOM      9  C   LIG    1       11.920   4.583  31.983  0.00  0.00    +0.036 C 
ATOM     10  C   LIG    1       13.935   1.336  32.620  0.00  0.00    +0.006 C 
ATOM     11  C   LIG    1       15.447   1.317  32.880  0.00  0.00    +0.008 C 
ATOM     12  C   LIG    1       15.898   0.330  31.717  0.00  0.00    +0.049 C 
ATOM     13  C   LIG    1       14.530  -0.314  31.152  0.00  0.00    +0.132 C 
ATOM     14  C   LIG    1       13.652  -0.209  32.460  0.00  0.00    +0.012 C 
ATOM     15  C   LIG    1       14.245  -1.174  33.549  0.00  0.00    +0.015 C 
ATOM     16  C   LIG    1       12.137  -0.291  32.840  0.00  0.00    +0.023 C 
ATOM     17  C   LIG    1       11.126   0.165  31.800  0.00  0.00    +0.046 C 
ATOM     18  C   LIG    1       10.646   3.979  32.465  0.00  0.00    -0.041 C 
ATOM     19  C   LIG    1        9.774   4.699  33.194  0.00  0.00    +0.050 C 
ENDROOT
BRANCH  17  20
ATOM     20  C   LIG    1       11.196  -0.862  30.646  0.00  0.00    -0.040 A 
ATOM     21  C   LIG    1       11.361  -2.239  30.739  0.00  0.00    +0.006 A 
ATOM     22  C   LIG    1       11.448  -3.052  29.555  0.00  0.00    +0.023 A 
ATOM     23  C   LIG    1       11.376  -2.542  28.239  0.00  0.00    +0.029 A 
ATOM     24  C   LIG    1       11.307  -1.164  28.165  0.00  0.00    +0.023 A 
ATOM     25  C   LIG    1       11.247  -0.369  29.312  0.00  0.00    +0.006 A 
BRANCH  23  26
ATOM     26  N   LIG    1       11.419  -3.293  27.075  0.00  0.00    -0.336 N 
ATOM     27  C   LIG    1       10.397  -4.269  26.737  0.00  0.00    +0.129 C 
ATOM     28  C   LIG    1       12.362  -2.986  25.993  0.00  0.00    +0.129 C 
ENDBRANCH  23  26
ENDBRANCH  17  20
BRANCH  13  29
ATOM     29  C   LIG    1       14.835  -1.497  30.369  0.00  0.00    -0.067 C 
ATOM     30  C   LIG    1       15.120  -2.060  29.359  0.00  0.00    -0.103 C 
ATOM     31  C   LIG    1       15.467  -2.741  28.134  0.00  0.00    +0.106 C 
ENDBRANCH  13  29
BRANCH  13  32
ATOM     32  O   LIG    1       14.032   0.555  30.113  0.00  0.00    -0.376 OA
ATOM     33  H   LIG    1       13.090   0.342  29.998  0.00  0.00    +0.211 HD
ENDBRANCH  13  32
TORSDOF 4
ENDMDL
MODEL 6
REMARK VINA RESULT:      -5.8      3.074      5.563
REMARK  Name = 
REMARK                            x       y       z     vdW  Elec       q    Type
REMARK                         _______ _______ _______ _____ _____    ______ ____
ROOT
ATOM      1  O   LIG    1        7.828  -6.161  30.126  0.00  0.00    -0.293 OA
ATOM      2  C   LIG    1        8.307  -5.043  30.298  0.00  0.00    +0.157 C 
ATOM      3  C   LIG    1        7.466  -3.788  30.471  0.00  0.00    +0.083 C 
ATOM      4  C   LIG    1        8.283  -2.523  30.106  0.00  0.00    +0.043 C 
ATOM      5  C   LIG    1        9.579  -2.493  30.891  0.00  0.00    -0.044 C 
ATOM      6  C   LIG    1       10.283  -1.414  31.333  0.00  0.00    -0.055 C 
ATOM      7  C   LIG    1       11.462  -1.713  32.314  0.00  0.00    +0.020 C 
ATOM      8  C   LIG    1       11.879  -3.172  32.575  0.00  0.00    +0.013 C 
ATOM      9  C   LIG    1       10.664  -4.065  32.542  0.00  0.00    +0.036 C 
ATOM     10  C   LIG    1       12.789  -0.836  32.277  0.00  0.00    +0.006 C 
ATOM     11  C   LIG    1       14.111  -0.630  33.027  0.00  0.00    +0.008 C 
ATOM     12  C   LIG    1       13.760   0.709  33.810  0.00  0.00    +0.049 C 
ATOM     13  C   LIG    1       12.387   1.240  33.148  0.00  0.00    +0.132 C 
ATOM     14  C   LIG    1       12.553   0.617  31.707  0.00  0.00    +0.012 C 
ATOM     15  C   LIG    1       13.759   1.320  30.985  0.00  0.00    +0.015 C 
ATOM     16  C   LIG    1       11.646   0.324  30.467  0.00  0.00    +0.023 C 
ATOM     17  C   LIG    1       10.179   0.015  30.726  0.00  0.00    +0.046 C 
ATOM     18  C   LIG    1       10.035  -3.853  31.208  0.00  0.00    -0.041 C 
ATOM     19  C   LIG    1        9.800  -4.891  30.385  0.00  0.00    +0.050 C 
ENDROOT
BRANCH  17  20
ATOM     20  C   LIG    1        9.546   1.324  31.253  0.00  0.00    -0.040 A 
ATOM     21  C   LIG    1        8.673   1.478  32.324  0.00  0.00    +0.006 A 
ATOM     22  C   LIG    1        8.139   2.772  32.659  0.00  0.00    +0.023 A 
ATOM     23  C   LIG    1        8.445   3.958  31.956  0.00  0.00    +0.029 A 
ATOM     24  C   LIG    1        9.239   3.772  30.841  0.00  0.00    +0.023 A 
ATOM     25  C   LIG    1        9.738   2.514  30.497  0.00  0.00    +0.006 A 
BRANCH  23  26
ATOM     26  N   LIG    1        7.983   5.227  32.268  0.00  0.00    -0.336 N 
ATOM     27  C   LIG    1        8.595   6.434  31.739  0.00  0.00    +0.129 C 
ATOM     28  C   LIG    1        6.702   5.434  32.956  0.00  0.00    +0.129 C 
ENDBRANCH  23  26
ENDBRANCH  17  20
BRANCH  13  29
ATOM     29  C   LIG    1       12.180   2.632  33.506  0.00  0.00    -0.067 C 
ATOM     30  C   LIG    1       12.071   3.790  33.253  0.00  0.00    -0.103 C 
ATOM     31  C   LIG    1       11.939   5.195  32.946  0.00  0.00    +0.106 C 
ENDBRANCH  13  29
BRANCH  13  32
ATOM     32  O   LIG    1       11.291   0.631  33.862  0.00  0.00    -0.376 OA
ATOM     33  H   LIG    1       10.779   1.356  34.259  0.00  0.00    +0.211 HD
ENDBRANCH  13  32
TORSDOF 4
ENDMDL
