MODEL 1
REMARK VINA RESULT:      -5.2      0.000      0.000
REMARK  Name = 
REMARK                            x       y       z     vdW  Elec       q    Type
REMARK                         _______ _______ _______ _____ _____    ______ ____
ROOT
ATOM      1  O   LIG    1       19.552   5.984  29.365  0.00  0.00    -0.293 OA
ATOM      2  C   LIG    1       19.497   7.020  30.025  0.00  0.00    +0.157 C 
ATOM      3  C   LIG    1       18.569   7.207  31.216  0.00  0.00    +0.083 C 
ATOM      4  C   LIG    1       18.302   8.710  31.476  0.00  0.00    +0.043 C 
ATOM      5  C   LIG    1       19.614   9.458  31.610  0.00  0.00    -0.044 C 
ATOM      6  C   LIG    1       19.893  10.560  32.359  0.00  0.00    -0.055 C 
ATOM      7  C   LIG    1       21.400  10.961  32.465  0.00  0.00    +0.020 C 
ATOM      8  C   LIG    1       22.440  10.231  31.595  0.00  0.00    +0.013 C 
ATOM      9  C   LIG    1       22.041   8.787  31.422  0.00  0.00    +0.036 C 
ATOM     10  C   LIG    1       21.829  12.490  32.541  0.00  0.00    +0.006 C 
ATOM     11  C   LIG    1       23.059  13.381  32.753  0.00  0.00    +0.008 C 
ATOM     12  C   LIG    1       22.806  13.821  34.260  0.00  0.00    +0.049 C 
ATOM     13  C   LIG    1       21.296  13.358  34.589  0.00  0.00    +0.132 C 
ATOM     14  C   LIG    1       20.697  13.420  33.130  0.00  0.00    +0.012 C 
ATOM     15  C   LIG    1       20.667  14.919  32.656  0.00  0.00    +0.015 C 
ATOM     16  C   LIG    1       19.432  12.888  32.380  0.00  0.00    +0.023 C 
ATOM     17  C   LIG    1       18.829  11.578  32.862  0.00  0.00    +0.046 C 
ATOM     18  C   LIG    1       20.674   8.808  30.828  0.00  0.00    -0.041 C 
ATOM     19  C   LIG    1       20.412   8.160  29.679  0.00  0.00    +0.050 C 
ENDROOT
BRANCH  17  20
ATOM     20  C   LIG    1       18.243  11.860  34.266  0.00  0.00    -0.040 A 
ATOM     21  C   LIG    1       17.581  13.003  34.699  0.00  0.00    +0.006 A 
ATOM     22  C   LIG    1       17.132  13.124  36.061  0.00  0.00    +0.023 A 
ATOM     23  C   LIG    1       17.315  12.125  37.043  0.00  0.00    +0.029 A 
ATOM     24  C   LIG    1       18.055  11.037  36.620  0.00  0.00    +0.023 A 
ATOM     25  C   LIG    1       18.515  10.929  35.306  0.00  0.00    +0.006 A 
BRANCH  23  26
ATOM     26  N   LIG    1       16.866  12.185  38.353  0.00  0.00    -0.336 N 
ATOM     27  C   LIG    1       17.706  12.643  39.447  0.00  0.00    +0.129 C 
ATOM     28  C   LIG    1       15.446  12.022  38.691  0.00  0.00    +0.129 C 
ENDBRANCH  23  26
ENDBRANCH  17  20
BRANCH  13  29
ATOM     29  C   LIG    1       20.825  14.040  35.782  0.00  0.00    -0.067 C 
ATOM     30  C   LIG    1       20.841  14.273  36.949  0.00  0.00    -0.103 C 
ATOM     31  C   LIG    1       20.860  14.556  38.365  0.00  0.00    +0.106 C 
ENDBRANCH  13  29
BRANCH  13  32
ATOM     32  O   LIG    1       21.349  12.002  35.079  0.00  0.00    -0.376 OA
ATOM     33  H   LIG    1       21.967  11.521  34.502  0.00  0.00    +0.211 HD
ENDBRANCH  13  32
TORSDOF 4
ENDMDL
MODEL 2
REMARK VINA RESULT:      -3.4      4.501      8.488
REMARK  Name = 
REMARK                            x       y       z     vdW  Elec       q    Type
REMARK                         _______ _______ _______ _____ _____    ______ ____
ROOT
ATOM      1  O   LIG    1       12.450   2.463  32.176  0.00  0.00    -0.293 OA
ATOM      2  C   LIG    1       13.336   3.195  31.741  0.00  0.00    +0.157 C 
ATOM      3  C   LIG    1       14.298   3.968  32.630  0.00  0.00    +0.083 C 
ATOM      4  C   LIG    1       14.889   5.185  31.875  0.00  0.00    +0.043 C 
ATOM      5  C   LIG    1       15.507   4.737  30.566  0.00  0.00    -0.044 C 
ATOM      6  C   LIG    1       16.569   5.269  29.900  0.00  0.00    -0.055 C 
ATOM      7  C   LIG    1       17.110   4.442  28.688  0.00  0.00    +0.020 C 
ATOM      8  C   LIG    1       16.327   3.207  28.205  0.00  0.00    +0.013 C 
ATOM      9  C   LIG    1       15.686   2.514  29.382  0.00  0.00    +0.036 C 
ATOM     10  C   LIG    1       17.690   5.174  27.401  0.00  0.00    +0.006 C 
ATOM     11  C   LIG    1       18.401   4.881  26.074  0.00  0.00    +0.008 C 
ATOM     12  C   LIG    1       19.876   5.328  26.465  0.00  0.00    +0.049 C 
ATOM     13  C   LIG    1       19.726   6.104  27.872  0.00  0.00    +0.132 C 
ATOM     14  C   LIG    1       18.243   6.620  27.710  0.00  0.00    +0.012 C 
ATOM     15  C   LIG    1       18.197   7.679  26.550  0.00  0.00    +0.015 C 
ATOM     16  C   LIG    1       17.117   7.197  28.629  0.00  0.00    +0.023 C 
ATOM     17  C   LIG    1       17.081   6.728  30.075  0.00  0.00    +0.046 C 
ATOM     18  C   LIG    1       14.833   3.540  30.046  0.00  0.00    -0.041 C 
ATOM     19  C   LIG    1       13.523   3.317  30.255  0.00  0.00    +0.050 C 
ENDROOT
BRANCH  17  20
ATOM     20  C   LIG    1       18.343   7.312  30.753  0.00  0.00    -0.040 A 
ATOM     21  C   LIG    1       19.335   6.626  31.443  0.00  0.00    +0.006 A 
ATOM     22  C   LIG    1       20.430   7.331  32.054  0.00  0.00    +0.023 A 
ATOM     23  C   LIG    1       20.591   8.734  32.006  0.00  0.00    +0.029 A 
ATOM     24  C   LIG    1       19.549   9.407  31.397  0.00  0.00    +0.023 A 
ATOM     25  C   LIG    1       18.470   8.727  30.826  0.00  0.00    +0.006 A 
BRANCH  23  26
ATOM     26  N   LIG    1       21.648   9.448  32.548  0.00  0.00    -0.336 N 
ATOM     27  C   LIG    1       22.907   8.822  32.913  0.00  0.00    +0.129 C 
ATOM     28  C   LIG    1       21.659  10.916  32.566  0.00  0.00    +0.129 C 
ENDBRANCH  23  26
ENDBRANCH  17  20
BRANCH  13  29
ATOM     29  C   LIG    1       20.924   6.882  28.131  0.00  0.00    -0.067 C 
ATOM     30  C   LIG    1       21.505   7.827  28.561  0.00  0.00    -0.103 C 
ATOM     31  C   LIG    1       22.211   8.974  29.084  0.00  0.00    +0.106 C 
ENDBRANCH  13  29
BRANCH  13  32
ATOM     32  O   LIG    1       19.830   5.124  28.927  0.00  0.00    -0.376 OA
ATOM     33  H   LIG    1       20.526   5.436  29.530  0.00  0.00    +0.211 HD
ENDBRANCH  13  32
TORSDOF 4
ENDMDL
MODEL 3
REMARK VINA RESULT:      -2.5     11.055     15.278
REMARK  Name = 
REMARK                            x       y       z     vdW  Elec       q    Type
REMARK                         _______ _______ _______ _____ _____    ______ ____
ROOT
ATOM      1  O   LIG    1        6.557   7.451  24.266  0.00  0.00    -0.293 OA
ATOM      2  C   LIG    1        7.174   6.605  24.909  0.00  0.00    +0.157 C 
ATOM      3  C   LIG    1        8.372   6.929  25.788  0.00  0.00    +0.083 C 
ATOM      4  C   LIG    1        9.256   5.673  26.000  0.00  0.00    +0.043 C 
ATOM      5  C   LIG    1        8.416   4.526  26.524  0.00  0.00    -0.044 C 
ATOM      6  C   LIG    1        8.785   3.509  27.351  0.00  0.00    -0.055 C 
ATOM      7  C   LIG    1        7.631   2.607  27.896  0.00  0.00    +0.020 C 
ATOM      8  C   LIG    1        6.205   2.786  27.342  0.00  0.00    +0.013 C 
ATOM      9  C   LIG    1        5.958   4.239  27.024  0.00  0.00    +0.036 C 
ATOM     10  C   LIG    1        7.860   1.051  28.132  0.00  0.00    +0.006 C 
ATOM     11  C   LIG    1        7.168  -0.189  28.711  0.00  0.00    +0.008 C 
ATOM     12  C   LIG    1        7.947  -0.301  30.093  0.00  0.00    +0.049 C 
ATOM     13  C   LIG    1        9.191   0.719  29.962  0.00  0.00    +0.132 C 
ATOM     14  C   LIG    1        9.374   0.683  28.395  0.00  0.00    +0.012 C 
ATOM     15  C   LIG    1        9.857  -0.751  27.971  0.00  0.00    +0.015 C 
ATOM     16  C   LIG    1       10.097   1.533  27.300  0.00  0.00    +0.023 C 
ATOM     17  C   LIG    1       10.250   3.024  27.554  0.00  0.00    +0.046 C 
ATOM     18  C   LIG    1        7.026   4.636  26.063  0.00  0.00    -0.041 C 
ATOM     19  C   LIG    1        6.714   5.175  24.871  0.00  0.00    +0.050 C 
ENDROOT
BRANCH  17  20
ATOM     20  C   LIG    1       11.237   3.165  28.737  0.00  0.00    -0.040 A 
ATOM     21  C   LIG    1       12.442   2.499  28.925  0.00  0.00    +0.006 A 
ATOM     22  C   LIG    1       13.227   2.716  30.111  0.00  0.00    +0.023 A 
ATOM     23  C   LIG    1       12.855   3.595  31.153  0.00  0.00    +0.029 A 
ATOM     24  C   LIG    1       11.612   4.176  30.993  0.00  0.00    +0.023 A 
ATOM     25  C   LIG    1       10.836   3.948  29.855  0.00  0.00    +0.006 A 
BRANCH  23  26
ATOM     26  N   LIG    1       13.598   3.860  32.293  0.00  0.00    -0.336 N 
ATOM     27  C   LIG    1       14.999   4.242  32.241  0.00  0.00    +0.129 C 
ATOM     28  C   LIG    1       12.965   4.009  33.609  0.00  0.00    +0.129 C 
ENDBRANCH  23  26
ENDBRANCH  17  20
BRANCH  13  29
ATOM     29  C   LIG    1       10.175   0.421  30.987  0.00  0.00    -0.067 C 
ATOM     30  C   LIG    1       10.759   0.649  31.998  0.00  0.00    -0.103 C 
ATOM     31  C   LIG    1       11.468   0.927  33.226  0.00  0.00    +0.106 C 
ENDBRANCH  13  29
BRANCH  13  32
ATOM     32  O   LIG    1        8.745   2.016  30.411  0.00  0.00    -0.376 OA
ATOM     33  H   LIG    1        8.025   2.285  29.816  0.00  0.00    +0.211 HD
ENDBRANCH  13  32
TORSDOF 4
ENDMDL
