MODEL 1
REMARK VINA RESULT:      -3.0      0.000      0.000
REMARK  Name = 
REMARK                            x       y       z     vdW  Elec       q    Type
REMARK                         _______ _______ _______ _____ _____    ______ ____
ROOT
ATOM      1  O   LIG    1       13.438  -1.005  53.498  0.00  0.00    -0.293 OA
ATOM      2  C   LIG    1       14.270  -0.170  53.151  0.00  0.00    +0.157 C 
ATOM      3  C   LIG    1       13.908   1.225  52.667  0.00  0.00    +0.083 C 
ATOM      4  C   LIG    1       15.044   1.818  51.796  0.00  0.00    +0.043 C 
ATOM      5  C   LIG    1       16.360   1.763  52.546  0.00  0.00    -0.044 C 
ATOM      6  C   LIG    1       17.421   2.613  52.468  0.00  0.00    -0.055 C 
ATOM      7  C   LIG    1       18.543   2.419  53.538  0.00  0.00    +0.020 C 
ATOM      8  C   LIG    1       18.490   1.199  54.477  0.00  0.00    +0.013 C 
ATOM      9  C   LIG    1       17.056   0.864  54.800  0.00  0.00    +0.036 C 
ATOM     10  C   LIG    1       20.069   2.671  53.168  0.00  0.00    +0.006 C 
ATOM     11  C   LIG    1       21.462   2.736  53.806  0.00  0.00    +0.008 C 
ATOM     12  C   LIG    1       21.657   4.314  53.846  0.00  0.00    +0.049 C 
ATOM     13  C   LIG    1       20.465   4.912  52.937  0.00  0.00    +0.132 C 
ATOM     14  C   LIG    1       20.255   3.682  51.969  0.00  0.00    +0.012 C 
ATOM     15  C   LIG    1       21.533   3.518  51.070  0.00  0.00    +0.015 C 
ATOM     16  C   LIG    1       19.167   3.180  50.965  0.00  0.00    +0.023 C 
ATOM     17  C   LIG    1       17.719   3.543  51.256  0.00  0.00    +0.046 C 
ATOM     18  C   LIG    1       16.383   0.639  53.490  0.00  0.00    -0.041 C 
ATOM     19  C   LIG    1       15.731  -0.512  53.240  0.00  0.00    +0.050 C 
ENDROOT
BRANCH  17  20
ATOM     20  C   LIG    1       17.609   5.075  51.069  0.00  0.00    -0.040 A 
ATOM     21  C   LIG    1       18.204   5.858  50.088  0.00  0.00    +0.006 A 
ATOM     22  C   LIG    1       18.032   7.287  50.080  0.00  0.00    +0.023 A 
ATOM     23  C   LIG    1       17.269   7.995  51.036  0.00  0.00    +0.029 A 
ATOM     24  C   LIG    1       16.763   7.211  52.056  0.00  0.00    +0.023 A 
ATOM     25  C   LIG    1       16.950   5.828  52.081  0.00  0.00    +0.006 A 
BRANCH  23  26
ATOM     26  N   LIG    1       17.048   9.363  51.045  0.00  0.00    -0.336 N 
ATOM     27  C   LIG    1       17.832  10.286  50.241  0.00  0.00    +0.129 C 
ATOM     28  C   LIG    1       15.858   9.949  51.675  0.00  0.00    +0.129 C 
ENDBRANCH  23  26
ENDBRANCH  17  20
BRANCH  13  29
ATOM     29  C   LIG    1       20.763   6.289  52.586  0.00  0.00    -0.067 C 
ATOM     30  C   LIG    1       20.612   7.466  52.678  0.00  0.00    -0.103 C 
ATOM     31  C   LIG    1       20.429   8.894  52.791  0.00  0.00    +0.106 C 
ENDBRANCH  13  29
BRANCH  13  32
ATOM     32  O   LIG    1       19.319   5.112  53.791  0.00  0.00    -0.376 OA
ATOM     33  H   LIG    1       18.611   5.472  53.230  0.00  0.00    +0.211 HD
ENDBRANCH  13  32
TORSDOF 4
ENDMDL
MODEL 2
REMARK VINA RESULT:      -2.6      2.726      7.021
REMARK  Name = 
REMARK                            x       y       z     vdW  Elec       q    Type
REMARK                         _______ _______ _______ _____ _____    ______ ____
ROOT
ATOM      1  O   LIG    1       26.444   3.098  51.258  0.00  0.00    -0.293 OA
ATOM      2  C   LIG    1       25.228   3.270  51.267  0.00  0.00    +0.157 C 
ATOM      3  C   LIG    1       24.241   2.253  51.821  0.00  0.00    +0.083 C 
ATOM      4  C   LIG    1       22.834   2.460  51.208  0.00  0.00    +0.043 C 
ATOM      5  C   LIG    1       22.388   3.897  51.396  0.00  0.00    -0.044 C 
ATOM      6  C   LIG    1       21.127   4.383  51.558  0.00  0.00    -0.055 C 
ATOM      7  C   LIG    1       21.012   5.889  51.958  0.00  0.00    +0.020 C 
ATOM      8  C   LIG    1       22.276   6.769  51.965  0.00  0.00    +0.013 C 
ATOM      9  C   LIG    1       23.468   5.950  52.393  0.00  0.00    +0.036 C 
ATOM     10  C   LIG    1       19.811   6.782  51.421  0.00  0.00    +0.006 C 
ATOM     11  C   LIG    1       19.192   8.177  51.574  0.00  0.00    +0.008 C 
ATOM     12  C   LIG    1       17.944   7.809  52.488  0.00  0.00    +0.049 C 
ATOM     13  C   LIG    1       17.863   6.197  52.467  0.00  0.00    +0.132 C 
ATOM     14  C   LIG    1       18.527   5.937  51.059  0.00  0.00    +0.012 C 
ATOM     15  C   LIG    1       17.580   6.498  49.938  0.00  0.00    +0.015 C 
ATOM     16  C   LIG    1       19.154   4.731  50.286  0.00  0.00    +0.023 C 
ATOM     17  C   LIG    1       19.833   3.646  51.107  0.00  0.00    +0.046 C 
ATOM     18  C   LIG    1       23.542   4.805  51.442  0.00  0.00    -0.041 C 
ATOM     19  C   LIG    1       24.665   4.561  50.744  0.00  0.00    +0.050 C 
ENDROOT
BRANCH  17  20
ATOM     20  C   LIG    1       18.710   2.937  51.902  0.00  0.00    -0.040 A 
ATOM     21  C   LIG    1       18.788   2.376  53.171  0.00  0.00    +0.006 A 
ATOM     22  C   LIG    1       17.652   1.711  53.754  0.00  0.00    +0.023 A 
ATOM     23  C   LIG    1       16.401   1.577  53.111  0.00  0.00    +0.029 A 
ATOM     24  C   LIG    1       16.370   2.057  51.816  0.00  0.00    +0.023 A 
ATOM     25  C   LIG    1       17.478   2.679  51.237  0.00  0.00    +0.006 A 
BRANCH  23  26
ATOM     26  N   LIG    1       15.273   0.978  53.651  0.00  0.00    -0.336 N 
ATOM     27  C   LIG    1       14.110   0.637  52.849  0.00  0.00    +0.129 C 
ATOM     28  C   LIG    1       15.268   0.429  55.013  0.00  0.00    +0.129 C 
ENDBRANCH  23  26
ENDBRANCH  17  20
BRANCH  13  29
ATOM     29  C   LIG    1       16.558   5.768  52.936  0.00  0.00    -0.067 C 
ATOM     30  C   LIG    1       15.830   5.236  53.713  0.00  0.00    -0.103 C 
ATOM     31  C   LIG    1       14.946   4.590  54.655  0.00  0.00    +0.106 C 
ENDBRANCH  13  29
BRANCH  13  32
ATOM     32  O   LIG    1       18.692   5.702  53.540  0.00  0.00    -0.376 OA
ATOM     33  H   LIG    1       18.931   6.471  54.085  0.00  0.00    +0.211 HD
ENDBRANCH  13  32
TORSDOF 4
ENDMDL
MODEL 3
REMARK VINA RESULT:      -2.5      2.889      5.793
REMARK  Name = 
REMARK                            x       y       z     vdW  Elec       q    Type
REMARK                         _______ _______ _______ _____ _____    ______ ____
ROOT
ATOM      1  O   LIG    1       13.577  -0.390  56.102  0.00  0.00    -0.293 OA
ATOM      2  C   LIG    1       14.576   0.225  55.736  0.00  0.00    +0.157 C 
ATOM      3  C   LIG    1       15.995  -0.290  55.929  0.00  0.00    +0.083 C 
ATOM      4  C   LIG    1       17.012   0.879  55.905  0.00  0.00    +0.043 C 
ATOM      5  C   LIG    1       16.835   1.699  54.643  0.00  0.00    -0.044 C 
ATOM      6  C   LIG    1       17.773   2.389  53.938  0.00  0.00    -0.055 C 
ATOM      7  C   LIG    1       17.322   2.949  52.550  0.00  0.00    +0.020 C 
ATOM      8  C   LIG    1       15.838   2.862  52.146  0.00  0.00    +0.013 C 
ATOM      9  C   LIG    1       15.231   1.597  52.697  0.00  0.00    +0.036 C 
ATOM     10  C   LIG    1       17.883   4.337  52.014  0.00  0.00    +0.006 C 
ATOM     11  C   LIG    1       17.868   5.237  50.772  0.00  0.00    +0.008 C 
ATOM     12  C   LIG    1       19.320   4.921  50.205  0.00  0.00    +0.049 C 
ATOM     13  C   LIG    1       20.070   4.114  51.385  0.00  0.00    +0.132 C 
ATOM     14  C   LIG    1       19.292   4.710  52.622  0.00  0.00    +0.012 C 
ATOM     15  C   LIG    1       19.645   6.235  52.759  0.00  0.00    +0.015 C 
ATOM     16  C   LIG    1       19.085   4.357  54.131  0.00  0.00    +0.023 C 
ATOM     17  C   LIG    1       19.127   2.888  54.522  0.00  0.00    +0.046 C 
ATOM     18  C   LIG    1       15.446   1.647  54.170  0.00  0.00    -0.041 C 
ATOM     19  C   LIG    1       14.410   1.536  55.022  0.00  0.00    +0.050 C 
ENDROOT
BRANCH  17  20
ATOM     20  C   LIG    1       20.586   2.422  54.307  0.00  0.00    -0.040 A 
ATOM     21  C   LIG    1       21.027   1.203  53.807  0.00  0.00    +0.006 A 
ATOM     22  C   LIG    1       22.432   0.910  53.709  0.00  0.00    +0.023 A 
ATOM     23  C   LIG    1       23.454   1.807  54.096  0.00  0.00    +0.029 A 
ATOM     24  C   LIG    1       22.997   2.975  54.677  0.00  0.00    +0.023 A 
ATOM     25  C   LIG    1       21.634   3.251  54.798  0.00  0.00    +0.006 A 
BRANCH  23  26
ATOM     26  N   LIG    1       24.816   1.580  53.984  0.00  0.00    -0.336 N 
ATOM     27  C   LIG    1       25.363   0.309  53.541  0.00  0.00    +0.129 C 
ATOM     28  C   LIG    1       25.790   2.675  54.073  0.00  0.00    +0.129 C 
ENDBRANCH  23  26
ENDBRANCH  17  20
BRANCH  13  29
ATOM     29  C   LIG    1       21.502   4.112  51.141  0.00  0.00    -0.067 C 
ATOM     30  C   LIG    1       22.545   3.577  50.941  0.00  0.00    -0.103 C 
ATOM     31  C   LIG    1       23.812   2.926  50.699  0.00  0.00    +0.106 C 
ENDBRANCH  13  29
BRANCH  13  32
ATOM     32  O   LIG    1       19.783   2.711  51.208  0.00  0.00    -0.376 OA
ATOM     33  H   LIG    1       18.935   2.541  51.652  0.00  0.00    +0.211 HD
ENDBRANCH  13  32
TORSDOF 4
ENDMDL
MODEL 4
REMARK VINA RESULT:      -2.5      2.617      6.884
REMARK  Name = 
REMARK                            x       y       z     vdW  Elec       q    Type
REMARK                         _______ _______ _______ _____ _____    ______ ____
ROOT
ATOM      1  O   LIG    1       19.083  10.480  49.959  0.00  0.00    -0.293 OA
ATOM      2  C   LIG    1       18.941   9.431  50.582  0.00  0.00    +0.157 C 
ATOM      3  C   LIG    1       17.668   8.598  50.544  0.00  0.00    +0.083 C 
ATOM      4  C   LIG    1       17.561   7.698  51.800  0.00  0.00    +0.043 C 
ATOM      5  C   LIG    1       18.820   6.868  51.957  0.00  0.00    -0.044 C 
ATOM      6  C   LIG    1       18.958   5.623  52.491  0.00  0.00    -0.055 C 
ATOM      7  C   LIG    1       20.350   4.939  52.301  0.00  0.00    +0.020 C 
ATOM      8  C   LIG    1       21.517   5.751  51.708  0.00  0.00    +0.013 C 
ATOM      9  C   LIG    1       20.994   6.724  50.681  0.00  0.00    +0.036 C 
ATOM     10  C   LIG    1       20.951   3.995  53.431  0.00  0.00    +0.006 C 
ATOM     11  C   LIG    1       22.128   3.051  53.703  0.00  0.00    +0.008 C 
ATOM     12  C   LIG    1       21.387   1.654  53.531  0.00  0.00    +0.049 C 
ATOM     13  C   LIG    1       19.814   2.011  53.488  0.00  0.00    +0.132 C 
ATOM     14  C   LIG    1       19.840   3.339  54.342  0.00  0.00    +0.012 C 
ATOM     15  C   LIG    1       20.231   2.984  55.822  0.00  0.00    +0.015 C 
ATOM     16  C   LIG    1       18.896   4.556  54.609  0.00  0.00    +0.023 C 
ATOM     17  C   LIG    1       17.956   4.976  53.490  0.00  0.00    +0.046 C 
ATOM     18  C   LIG    1       19.983   7.561  51.387  0.00  0.00    -0.041 C 
ATOM     19  C   LIG    1       20.086   8.902  51.399  0.00  0.00    +0.050 C 
ENDROOT
BRANCH  17  20
ATOM     20  C   LIG    1       16.927   3.831  53.335  0.00  0.00    -0.040 A 
ATOM     21  C   LIG    1       16.465   3.254  52.158  0.00  0.00    +0.006 A 
ATOM     22  C   LIG    1       15.467   2.217  52.187  0.00  0.00    +0.023 A 
ATOM     23  C   LIG    1       14.890   1.711  53.374  0.00  0.00    +0.029 A 
ATOM     24  C   LIG    1       15.291   2.360  54.525  0.00  0.00    +0.023 A 
ATOM     25  C   LIG    1       16.240   3.384  54.498  0.00  0.00    +0.006 A 
BRANCH  23  26
ATOM     26  N   LIG    1       13.955   0.690  53.448  0.00  0.00    -0.336 N 
ATOM     27  C   LIG    1       13.438   0.017  52.269  0.00  0.00    +0.129 C 
ATOM     28  C   LIG    1       13.604   0.057  54.726  0.00  0.00    +0.129 C 
ENDBRANCH  23  26
ENDBRANCH  17  20
BRANCH  13  29
ATOM     29  C   LIG    1       19.034   0.809  53.722  0.00  0.00    -0.067 C 
ATOM     30  C   LIG    1       18.266   0.145  54.342  0.00  0.00    -0.103 C 
ATOM     31  C   LIG    1       17.333  -0.662  55.094  0.00  0.00    +0.106 C 
ENDBRANCH  13  29
BRANCH  13  32
ATOM     32  O   LIG    1       19.461   2.276  52.114  0.00  0.00    -0.376 OA
ATOM     33  H   LIG    1       18.764   1.641  51.877  0.00  0.00    +0.211 HD
ENDBRANCH  13  32
TORSDOF 4
ENDMDL
MODEL 5
REMARK VINA RESULT:      -2.3      3.471      7.734
REMARK  Name = 
REMARK                            x       y       z     vdW  Elec       q    Type
REMARK                         _______ _______ _______ _____ _____    ______ ____
ROOT
ATOM      1  O   LIG    1       28.545   3.382  50.462  0.00  0.00    -0.293 OA
ATOM      2  C   LIG    1       27.351   3.664  50.530  0.00  0.00    +0.157 C 
ATOM      3  C   LIG    1       26.275   2.668  50.937  0.00  0.00    +0.083 C 
ATOM      4  C   LIG    1       24.889   3.105  50.402  0.00  0.00    +0.043 C 
ATOM      5  C   LIG    1       24.587   4.527  50.832  0.00  0.00    -0.044 C 
ATOM      6  C   LIG    1       23.381   5.097  51.103  0.00  0.00    -0.055 C 
ATOM      7  C   LIG    1       23.418   6.522  51.746  0.00  0.00    +0.020 C 
ATOM      8  C   LIG    1       24.762   7.264  51.862  0.00  0.00    +0.013 C 
ATOM      9  C   LIG    1       25.872   6.277  52.121  0.00  0.00    +0.036 C 
ATOM     10  C   LIG    1       22.305   7.600  51.391  0.00  0.00    +0.006 C 
ATOM     11  C   LIG    1       21.827   9.004  51.785  0.00  0.00    +0.008 C 
ATOM     12  C   LIG    1       20.557   8.610  52.659  0.00  0.00    +0.049 C 
ATOM     13  C   LIG    1       20.319   7.039  52.378  0.00  0.00    +0.132 C 
ATOM     14  C   LIG    1       20.941   6.951  50.930  0.00  0.00    +0.012 C 
ATOM     15  C   LIG    1       20.042   7.776  49.939  0.00  0.00    +0.015 C 
ATOM     16  C   LIG    1       21.439   5.835  49.956  0.00  0.00    +0.023 C 
ATOM     17  C   LIG    1       22.017   4.570  50.572  0.00  0.00    +0.046 C 
ATOM     18  C   LIG    1       25.824   5.302  50.996  0.00  0.00    -0.041 C 
ATOM     19  C   LIG    1       26.912   5.071  50.238  0.00  0.00    +0.050 C 
ENDROOT
BRANCH  17  20
ATOM     20  C   LIG    1       20.838   3.850  51.270  0.00  0.00    -0.040 A 
ATOM     21  C   LIG    1       20.843   3.201  52.498  0.00  0.00    +0.006 A 
ATOM     22  C   LIG    1       19.662   2.540  52.988  0.00  0.00    +0.023 A 
ATOM     23  C   LIG    1       18.435   2.496  52.288  0.00  0.00    +0.029 A 
ATOM     24  C   LIG    1       18.476   3.065  51.030  0.00  0.00    +0.023 A 
ATOM     25  C   LIG    1       19.628   3.684  50.540  0.00  0.00    +0.006 A 
BRANCH  23  26
ATOM     26  N   LIG    1       17.266   1.903  52.739  0.00  0.00    -0.336 N 
ATOM     27  C   LIG    1       17.173   1.241  54.029  0.00  0.00    +0.129 C 
ATOM     28  C   LIG    1       15.983   2.112  52.057  0.00  0.00    +0.129 C 
ENDBRANCH  23  26
ENDBRANCH  17  20
BRANCH  13  29
ATOM     29  C   LIG    1       18.983   6.664  52.805  0.00  0.00    -0.067 C 
ATOM     30  C   LIG    1       17.862   6.316  52.608  0.00  0.00    -0.103 C 
ATOM     31  C   LIG    1       16.502   5.894  52.368  0.00  0.00    +0.106 C 
ENDBRANCH  13  29
BRANCH  13  32
ATOM     32  O   LIG    1       21.106   6.299  53.335  0.00  0.00    -0.376 OA
ATOM     33  H   LIG    1       20.869   6.639  54.215  0.00  0.00    +0.211 HD
ENDBRANCH  13  32
TORSDOF 4
ENDMDL
MODEL 6
REMARK VINA RESULT:      -2.2      2.850      7.441
REMARK  Name = 
REMARK                            x       y       z     vdW  Elec       q    Type
REMARK                         _______ _______ _______ _____ _____    ______ ____
ROOT
ATOM      1  O   LIG    1       17.079  10.127  49.938  0.00  0.00    -0.293 OA
ATOM      2  C   LIG    1       17.127   8.993  50.409  0.00  0.00    +0.157 C 
ATOM      3  C   LIG    1       18.373   8.404  51.053  0.00  0.00    +0.083 C 
ATOM      4  C   LIG    1       18.324   6.856  51.031  0.00  0.00    +0.043 C 
ATOM      5  C   LIG    1       17.034   6.364  51.656  0.00  0.00    -0.044 C 
ATOM      6  C   LIG    1       16.807   5.214  52.348  0.00  0.00    -0.055 C 
ATOM      7  C   LIG    1       15.423   5.100  53.064  0.00  0.00    +0.020 C 
ATOM      8  C   LIG    1       14.346   6.171  52.807  0.00  0.00    +0.013 C 
ATOM      9  C   LIG    1       14.999   7.516  52.609  0.00  0.00    +0.036 C 
ATOM     10  C   LIG    1       14.683   3.697  53.180  0.00  0.00    +0.006 C 
ATOM     11  C   LIG    1       13.457   3.037  53.825  0.00  0.00    +0.008 C 
ATOM     12  C   LIG    1       14.173   2.274  55.023  0.00  0.00    +0.049 C 
ATOM     13  C   LIG    1       15.752   2.364  54.700  0.00  0.00    +0.132 C 
ATOM     14  C   LIG    1       15.675   2.469  53.127  0.00  0.00    +0.012 C 
ATOM     15  C   LIG    1       15.124   1.114  52.553  0.00  0.00    +0.015 C 
ATOM     16  C   LIG    1       16.621   2.882  51.952  0.00  0.00    +0.023 C 
ATOM     17  C   LIG    1       17.682   3.932  52.240  0.00  0.00    +0.046 C 
ATOM     18  C   LIG    1       15.955   7.345  51.479  0.00  0.00    -0.041 C 
ATOM     19  C   LIG    1       15.889   8.140  50.396  0.00  0.00    +0.050 C 
ENDROOT
BRANCH  17  20
ATOM     20  C   LIG    1       18.689   3.276  53.214  0.00  0.00    -0.040 A 
ATOM     21  C   LIG    1       19.335   3.863  54.296  0.00  0.00    +0.006 A 
ATOM     22  C   LIG    1       20.282   3.118  55.082  0.00  0.00    +0.023 A 
ATOM     23  C   LIG    1       20.626   1.770  54.835  0.00  0.00    +0.029 A 
ATOM     24  C   LIG    1       20.046   1.232  53.702  0.00  0.00    +0.023 A 
ATOM     25  C   LIG    1       19.146   1.961  52.921  0.00  0.00    +0.006 A 
BRANCH  23  26
ATOM     26  N   LIG    1       21.503   1.006  55.588  0.00  0.00    -0.336 N 
ATOM     27  C   LIG    1       21.645  -0.428  55.406  0.00  0.00    +0.129 C 
ATOM     28  C   LIG    1       22.519   1.624  56.450  0.00  0.00    +0.129 C 
ENDBRANCH  23  26
ENDBRANCH  17  20
BRANCH  13  29
ATOM     29  C   LIG    1       16.470   1.387  55.500  0.00  0.00    -0.067 C 
ATOM     30  C   LIG    1       17.047   0.359  55.656  0.00  0.00    -0.103 C 
ATOM     31  C   LIG    1       17.748  -0.890  55.844  0.00  0.00    +0.106 C 
ENDBRANCH  13  29
BRANCH  13  32
ATOM     32  O   LIG    1       16.251   3.585  55.286  0.00  0.00    -0.376 OA
ATOM     33  H   LIG    1       15.630   3.829  55.993  0.00  0.00    +0.211 HD
ENDBRANCH  13  32
TORSDOF 4
ENDMDL
MODEL 7
REMARK VINA RESULT:      -2.2      3.610      6.784
REMARK  Name = 
REMARK                            x       y       z     vdW  Elec       q    Type
REMARK                         _______ _______ _______ _____ _____    ______ ____
ROOT
ATOM      1  O   LIG    1       24.057   4.457  50.857  0.00  0.00    -0.293 OA
ATOM      2  C   LIG    1       23.031   4.287  51.513  0.00  0.00    +0.157 C 
ATOM      3  C   LIG    1       22.626   5.173  52.681  0.00  0.00    +0.083 C 
ATOM      4  C   LIG    1       21.657   4.424  53.630  0.00  0.00    +0.043 C 
ATOM      5  C   LIG    1       20.477   3.881  52.848  0.00  0.00    -0.044 C 
ATOM      6  C   LIG    1       19.194   3.695  53.263  0.00  0.00    -0.055 C 
ATOM      7  C   LIG    1       18.154   3.332  52.154  0.00  0.00    +0.020 C 
ATOM      8  C   LIG    1       18.646   3.026  50.727  0.00  0.00    +0.013 C 
ATOM      9  C   LIG    1       19.844   3.881  50.404  0.00  0.00    +0.036 C 
ATOM     10  C   LIG    1       16.947   2.345  52.466  0.00  0.00    +0.006 C 
ATOM     11  C   LIG    1       15.670   1.776  51.836  0.00  0.00    +0.008 C 
ATOM     12  C   LIG    1       14.588   2.653  52.604  0.00  0.00    +0.049 C 
ATOM     13  C   LIG    1       15.400   3.384  53.792  0.00  0.00    +0.132 C 
ATOM     14  C   LIG    1       16.549   2.320  53.994  0.00  0.00    +0.012 C 
ATOM     15  C   LIG    1       15.921   0.995  54.561  0.00  0.00    +0.015 C 
ATOM     16  C   LIG    1       17.951   2.256  54.683  0.00  0.00    +0.023 C 
ATOM     17  C   LIG    1       18.761   3.541  54.750  0.00  0.00    +0.046 C 
ATOM     18  C   LIG    1       20.854   3.587  51.459  0.00  0.00    -0.041 C 
ATOM     19  C   LIG    1       22.093   3.177  51.132  0.00  0.00    +0.050 C 
ENDROOT
BRANCH  17  20
ATOM     20  C   LIG    1       18.001   4.483  55.714  0.00  0.00    -0.040 A 
ATOM     21  C   LIG    1       17.726   5.835  55.544  0.00  0.00    +0.006 A 
ATOM     22  C   LIG    1       17.039   6.581  56.565  0.00  0.00    +0.023 A 
ATOM     23  C   LIG    1       16.597   6.025  57.787  0.00  0.00    +0.029 A 
ATOM     24  C   LIG    1       16.961   4.706  57.978  0.00  0.00    +0.023 A 
ATOM     25  C   LIG    1       17.650   3.985  57.000  0.00  0.00    +0.006 A 
BRANCH  23  26
ATOM     26  N   LIG    1       15.901   6.698  58.778  0.00  0.00    -0.336 N 
ATOM     27  C   LIG    1       15.915   6.273  60.168  0.00  0.00    +0.129 C 
ATOM     28  C   LIG    1       15.300   8.016  58.540  0.00  0.00    +0.129 C 
ENDBRANCH  23  26
ENDBRANCH  17  20
BRANCH  13  29
ATOM     29  C   LIG    1       14.466   3.894  54.779  0.00  0.00    -0.067 C 
ATOM     30  C   LIG    1       14.001   3.952  55.873  0.00  0.00    -0.103 C 
ATOM     31  C   LIG    1       13.438   4.021  57.201  0.00  0.00    +0.106 C 
ENDBRANCH  13  29
BRANCH  13  32
ATOM     32  O   LIG    1       15.918   4.626  53.270  0.00  0.00    -0.376 OA
ATOM     33  H   LIG    1       16.830   4.708  53.598  0.00  0.00    +0.211 HD
ENDBRANCH  13  32
TORSDOF 4
ENDMDL
MODEL 8
REMARK VINA RESULT:      -2.2      2.850      6.127
REMARK  Name = 
REMARK                            x       y       z     vdW  Elec       q    Type
REMARK                         _______ _______ _______ _____ _____    ______ ____
ROOT
ATOM      1  O   LIG    1       13.590  10.233  54.266  0.00  0.00    -0.293 OA
ATOM      2  C   LIG    1       14.166   9.189  53.968  0.00  0.00    +0.157 C 
ATOM      3  C   LIG    1       15.542   9.146  53.320  0.00  0.00    +0.083 C 
ATOM      4  C   LIG    1       15.755   7.808  52.568  0.00  0.00    +0.043 C 
ATOM      5  C   LIG    1       15.489   6.639  53.496  0.00  0.00    -0.044 C 
ATOM      6  C   LIG    1       16.059   5.403  53.493  0.00  0.00    -0.055 C 
ATOM      7  C   LIG    1       15.739   4.491  54.722  0.00  0.00    +0.020 C 
ATOM      8  C   LIG    1       14.682   4.945  55.746  0.00  0.00    +0.013 C 
ATOM      9  C   LIG    1       14.722   6.445  55.894  0.00  0.00    +0.036 C 
ATOM     10  C   LIG    1       15.592   2.918  54.547  0.00  0.00    +0.006 C 
ATOM     11  C   LIG    1       15.411   1.633  55.365  0.00  0.00    +0.008 C 
ATOM     12  C   LIG    1       16.897   1.069  55.297  0.00  0.00    +0.049 C 
ATOM     13  C   LIG    1       17.641   1.969  54.182  0.00  0.00    +0.132 C 
ATOM     14  C   LIG    1       16.388   2.357  53.304  0.00  0.00    +0.012 C 
ATOM     15  C   LIG    1       15.833   1.061  52.609  0.00  0.00    +0.015 C 
ATOM     16  C   LIG    1       16.034   3.411  52.205  0.00  0.00    +0.023 C 
ATOM     17  C   LIG    1       16.749   4.752  52.260  0.00  0.00    +0.046 C 
ATOM     18  C   LIG    1       14.506   6.997  54.527  0.00  0.00    -0.041 C 
ATOM     19  C   LIG    1       13.513   7.874  54.287  0.00  0.00    +0.050 C 
ENDROOT
BRANCH  17  20
ATOM     20  C   LIG    1       18.233   4.467  51.929  0.00  0.00    -0.040 A 
ATOM     21  C   LIG    1       18.741   3.599  50.969  0.00  0.00    +0.006 A 
ATOM     22  C   LIG    1       20.160   3.418  50.817  0.00  0.00    +0.023 A 
ATOM     23  C   LIG    1       21.129   4.084  51.600  0.00  0.00    +0.029 A 
ATOM     24  C   LIG    1       20.606   4.870  52.609  0.00  0.00    +0.023 A 
ATOM     25  C   LIG    1       19.229   5.028  52.777  0.00  0.00    +0.006 A 
BRANCH  23  26
ATOM     26  N   LIG    1       22.504   3.966  51.462  0.00  0.00    -0.336 N 
ATOM     27  C   LIG    1       23.429   4.962  51.976  0.00  0.00    +0.129 C 
ATOM     28  C   LIG    1       23.129   2.720  51.003  0.00  0.00    +0.129 C 
ENDBRANCH  23  26
ENDBRANCH  17  20
BRANCH  13  29
ATOM     29  C   LIG    1       18.864   1.310  53.760  0.00  0.00    -0.067 C 
ATOM     30  C   LIG    1       20.045   1.165  53.751  0.00  0.00    -0.103 C 
ATOM     31  C   LIG    1       21.478   0.989  53.740  0.00  0.00    +0.106 C 
ENDBRANCH  13  29
BRANCH  13  32
ATOM     32  O   LIG    1       18.195   3.123  54.849  0.00  0.00    -0.376 OA
ATOM     33  H   LIG    1       18.408   2.846  55.757  0.00  0.00    +0.211 HD
ENDBRANCH  13  32
TORSDOF 4
ENDMDL
MODEL 9
REMARK VINA RESULT:      -2.1      3.399      7.113
REMARK  Name = 
REMARK                            x       y       z     vdW  Elec       q    Type
REMARK                         _______ _______ _______ _____ _____    ______ ____
ROOT
ATOM      1  O   LIG    1       26.078   1.777  51.259  0.00  0.00    -0.293 OA
ATOM      2  C   LIG    1       24.937   1.952  51.678  0.00  0.00    +0.157 C 
ATOM      3  C   LIG    1       24.580   1.971  53.157  0.00  0.00    +0.083 C 
ATOM      4  C   LIG    1       23.080   1.645  53.366  0.00  0.00    +0.043 C 
ATOM      5  C   LIG    1       22.222   2.572  52.528  0.00  0.00    -0.044 C 
ATOM      6  C   LIG    1       20.971   3.043  52.788  0.00  0.00    -0.055 C 
ATOM      7  C   LIG    1       20.443   4.165  51.838  0.00  0.00    +0.020 C 
ATOM      8  C   LIG    1       21.255   4.538  50.583  0.00  0.00    +0.013 C 
ATOM      9  C   LIG    1       22.729   4.406  50.869  0.00  0.00    +0.036 C 
ATOM     10  C   LIG    1       18.903   4.242  51.451  0.00  0.00    +0.006 C 
ATOM     11  C   LIG    1       17.896   5.128  50.708  0.00  0.00    +0.008 C 
ATOM     12  C   LIG    1       17.175   5.805  51.954  0.00  0.00    +0.049 C 
ATOM     13  C   LIG    1       17.675   4.966  53.240  0.00  0.00    +0.132 C 
ATOM     14  C   LIG    1       17.961   3.583  52.534  0.00  0.00    +0.012 C 
ATOM     15  C   LIG    1       16.599   2.973  52.040  0.00  0.00    +0.015 C 
ATOM     16  C   LIG    1       18.732   2.262  52.858  0.00  0.00    +0.023 C 
ATOM     17  C   LIG    1       19.957   2.365  53.754  0.00  0.00    +0.046 C 
ATOM     18  C   LIG    1       22.936   3.001  51.318  0.00  0.00    -0.041 C 
ATOM     19  C   LIG    1       23.825   2.203  50.699  0.00  0.00    +0.050 C 
ENDROOT
BRANCH  17  20
ATOM     20  C   LIG    1       19.437   2.756  55.157  0.00  0.00    -0.040 A 
ATOM     21  C   LIG    1       19.972   3.693  56.034  0.00  0.00    +0.006 A 
ATOM     22  C   LIG    1       19.386   3.908  57.330  0.00  0.00    +0.023 A 
ATOM     23  C   LIG    1       18.253   3.212  57.810  0.00  0.00    +0.029 A 
ATOM     24  C   LIG    1       17.792   2.221  56.964  0.00  0.00    +0.023 A 
ATOM     25  C   LIG    1       18.375   1.991  55.716  0.00  0.00    +0.006 A 
BRANCH  23  26
ATOM     26  N   LIG    1       17.636   3.415  59.034  0.00  0.00    -0.336 N 
ATOM     27  C   LIG    1       16.974   4.662  59.379  0.00  0.00    +0.129 C 
ATOM     28  C   LIG    1       17.398   2.309  59.970  0.00  0.00    +0.129 C 
ENDBRANCH  23  26
ENDBRANCH  17  20
BRANCH  13  29
ATOM     29  C   LIG    1       16.801   5.235  54.367  0.00  0.00    -0.067 C 
ATOM     30  C   LIG    1       15.991   4.924  55.182  0.00  0.00    -0.103 C 
ATOM     31  C   LIG    1       15.009   4.546  56.171  0.00  0.00    +0.106 C 
ENDBRANCH  13  29
BRANCH  13  32
ATOM     32  O   LIG    1       18.893   5.577  53.715  0.00  0.00    -0.376 OA
ATOM     33  H   LIG    1       19.260   6.084  52.971  0.00  0.00    +0.211 HD
ENDBRANCH  13  32
TORSDOF 4
ENDMDL
