MODEL 1
REMARK VINA RESULT:       5.4      0.000      0.000
REMARK  Name = 
REMARK                            x       y       z     vdW  Elec       q    Type
REMARK                         _______ _______ _______ _____ _____    ______ ____
ROOT
ATOM      1  O   LIG    1       32.176  -2.182  25.253  0.00  0.00    -0.293 OA
ATOM      2  C   LIG    1       31.263  -1.795  24.526  0.00  0.00    +0.157 C 
ATOM      3  C   LIG    1       30.658  -0.402  24.611  0.00  0.00    +0.083 C 
ATOM      4  C   LIG    1       29.227  -0.386  24.017  0.00  0.00    +0.043 C 
ATOM      5  C   LIG    1       29.238  -0.955  22.612  0.00  0.00    -0.044 C 
ATOM      6  C   LIG    1       28.437  -0.636  21.558  0.00  0.00    -0.055 C 
ATOM      7  C   LIG    1       28.846  -1.234  20.173  0.00  0.00    +0.020 C 
ATOM      8  C   LIG    1       29.984  -2.270  20.102  0.00  0.00    +0.013 C 
ATOM      9  C   LIG    1       31.030  -1.953  21.140  0.00  0.00    +0.036 C 
ATOM     10  C   LIG    1       27.738  -1.667  19.117  0.00  0.00    +0.006 C 
ATOM     11  C   LIG    1       27.587  -2.165  17.675  0.00  0.00    +0.008 C 
ATOM     12  C   LIG    1       27.105  -0.816  16.983  0.00  0.00    +0.049 C 
ATOM     13  C   LIG    1       26.755   0.183  18.201  0.00  0.00    +0.132 C 
ATOM     14  C   LIG    1       26.377  -0.888  19.297  0.00  0.00    +0.012 C 
ATOM     15  C   LIG    1       25.057  -1.620  18.858  0.00  0.00    +0.015 C 
ATOM     16  C   LIG    1       26.192  -0.933  20.849  0.00  0.00    +0.023 C 
ATOM     17  C   LIG    1       27.032   0.020  21.685  0.00  0.00    +0.046 C 
ATOM     18  C   LIG    1       30.318  -1.937  22.448  0.00  0.00    -0.041 C 
ATOM     19  C   LIG    1       30.729  -2.715  23.466  0.00  0.00    +0.050 C 
ENDROOT
BRANCH  17  20
ATOM     20  C   LIG    1       26.518   1.444  21.367  0.00  0.00    -0.040 A 
ATOM     21  C   LIG    1       27.267   2.566  21.033  0.00  0.00    +0.006 A 
ATOM     22  C   LIG    1       26.631   3.837  20.806  0.00  0.00    +0.023 A 
ATOM     23  C   LIG    1       25.237   4.049  20.898  0.00  0.00    +0.029 A 
ATOM     24  C   LIG    1       24.519   2.947  21.322  0.00  0.00    +0.023 A 
ATOM     25  C   LIG    1       25.136   1.719  21.568  0.00  0.00    +0.006 A 
BRANCH  23  26
ATOM     26  N   LIG    1       24.582   5.246  20.652  0.00  0.00    -0.336 N 
ATOM     27  C   LIG    1       25.182   6.321  19.880  0.00  0.00    +0.129 C 
ATOM     28  C   LIG    1       23.154   5.417  20.946  0.00  0.00    +0.129 C 
ENDBRANCH  23  26
ENDBRANCH  17  20
BRANCH  13  29
ATOM     29  C   LIG    1       25.950   1.288  17.710  0.00  0.00    -0.067 C 
ATOM     30  C   LIG    1       25.707   2.170  16.950  0.00  0.00    -0.103 C 
ATOM     31  C   LIG    1       25.412   3.241  16.026  0.00  0.00    +0.106 C 
ENDBRANCH  13  29
BRANCH  13  32
ATOM     32  O   LIG    1       27.964   0.889  18.550  0.00  0.00    -0.376 OA
ATOM     33  H   LIG    1       27.916   1.071  19.504  0.00  0.00    +0.211 HD
ENDBRANCH  13  32
TORSDOF 4
ENDMDL
