MODEL 1
REMARK VINA RESULT:       4.3      0.000      0.000
REMARK  Name = 
REMARK                            x       y       z     vdW  Elec       q    Type
REMARK                         _______ _______ _______ _____ _____    ______ ____
ROOT
ATOM      1  O   LIG    1        2.004  17.269  35.415  0.00  0.00    -0.293 OA
ATOM      2  C   LIG    1        2.342  17.679  34.307  0.00  0.00    +0.157 C 
ATOM      3  C   LIG    1        3.439  18.711  34.092  0.00  0.00    +0.083 C 
ATOM      4  C   LIG    1        3.261  19.428  32.730  0.00  0.00    +0.043 C 
ATOM      5  C   LIG    1        3.165  18.409  31.612  0.00  0.00    -0.044 C 
ATOM      6  C   LIG    1        3.567  18.526  30.316  0.00  0.00    -0.055 C 
ATOM      7  C   LIG    1        3.541  17.217  29.463  0.00  0.00    +0.020 C 
ATOM      8  C   LIG    1        2.906  15.943  30.051  0.00  0.00    +0.013 C 
ATOM      9  C   LIG    1        3.155  15.885  31.537  0.00  0.00    +0.036 C 
ATOM     10  C   LIG    1        3.175  17.264  27.917  0.00  0.00    +0.006 C 
ATOM     11  C   LIG    1        3.113  16.370  26.671  0.00  0.00    +0.008 C 
ATOM     12  C   LIG    1        4.434  16.860  25.934  0.00  0.00    +0.049 C 
ATOM     13  C   LIG    1        4.895  18.188  26.726  0.00  0.00    +0.132 C 
ATOM     14  C   LIG    1        3.484  18.662  27.251  0.00  0.00    +0.012 C 
ATOM     15  C   LIG    1        2.603  19.094  26.023  0.00  0.00    +0.015 C 
ATOM     16  C   LIG    1        2.928  19.651  28.327  0.00  0.00    +0.023 C 
ATOM     17  C   LIG    1        3.769  19.879  29.574  0.00  0.00    +0.046 C 
ATOM     18  C   LIG    1        2.592  17.146  32.096  0.00  0.00    -0.041 C 
ATOM     19  C   LIG    1        1.678  17.114  33.083  0.00  0.00    +0.050 C 
ENDROOT
BRANCH  17  20
ATOM     20  C   LIG    1        5.039  20.630  29.110  0.00  0.00    -0.040 A 
ATOM     21  C   LIG    1        6.214  20.838  29.822  0.00  0.00    +0.006 A 
ATOM     22  C   LIG    1        7.295  21.601  29.254  0.00  0.00    +0.023 A 
ATOM     23  C   LIG    1        7.258  22.185  27.968  0.00  0.00    +0.029 A 
ATOM     24  C   LIG    1        6.049  22.048  27.314  0.00  0.00    +0.023 A 
ATOM     25  C   LIG    1        4.989  21.330  27.872  0.00  0.00    +0.006 A 
BRANCH  23  26
ATOM     26  N   LIG    1        8.288  22.894  27.371  0.00  0.00    -0.336 N 
ATOM     27  C   LIG    1        9.651  22.392  27.311  0.00  0.00    +0.129 C 
ATOM     28  C   LIG    1        8.031  24.084  26.549  0.00  0.00    +0.129 C 
ENDBRANCH  23  26
ENDBRANCH  17  20
BRANCH  13  29
ATOM     29  C   LIG    1        5.848  18.930  25.920  0.00  0.00    -0.067 C 
ATOM     30  C   LIG    1        6.924  19.388  25.699  0.00  0.00    -0.103 C 
ATOM     31  C   LIG    1        8.230  19.943  25.431  0.00  0.00    +0.106 C 
ENDBRANCH  13  29
BRANCH  13  32
ATOM     32  O   LIG    1        5.751  17.776  27.813  0.00  0.00    -0.376 OA
ATOM     33  H   LIG    1        6.416  17.177  27.433  0.00  0.00    +0.211 HD
ENDBRANCH  13  32
TORSDOF 4
ENDMDL
MODEL 2
REMARK VINA RESULT:       4.3      2.228      4.824
REMARK  Name = 
REMARK                            x       y       z     vdW  Elec       q    Type
REMARK                         _______ _______ _______ _____ _____    ______ ____
ROOT
ATOM      1  O   LIG    1        0.117  15.258  35.264  0.00  0.00    -0.293 OA
ATOM      2  C   LIG    1        0.904  15.591  34.381  0.00  0.00    +0.157 C 
ATOM      3  C   LIG    1        0.595  15.478  32.896  0.00  0.00    +0.083 C 
ATOM      4  C   LIG    1        1.901  15.421  32.064  0.00  0.00    +0.043 C 
ATOM      5  C   LIG    1        2.790  16.600  32.406  0.00  0.00    -0.044 C 
ATOM      6  C   LIG    1        3.670  17.263  31.607  0.00  0.00    -0.055 C 
ATOM      7  C   LIG    1        4.272  18.584  32.187  0.00  0.00    +0.020 C 
ATOM      8  C   LIG    1        3.996  18.960  33.655  0.00  0.00    +0.013 C 
ATOM      9  C   LIG    1        2.612  18.510  34.048  0.00  0.00    +0.036 C 
ATOM     10  C   LIG    1        5.769  19.007  31.857  0.00  0.00    +0.006 C 
ATOM     11  C   LIG    1        6.758  20.163  32.050  0.00  0.00    +0.008 C 
ATOM     12  C   LIG    1        6.713  20.790  30.589  0.00  0.00    +0.049 C 
ATOM     13  C   LIG    1        5.932  19.705  29.685  0.00  0.00    +0.132 C 
ATOM     14  C   LIG    1        6.296  18.401  30.498  0.00  0.00    +0.012 C 
ATOM     15  C   LIG    1        7.840  18.137  30.370  0.00  0.00    +0.015 C 
ATOM     16  C   LIG    1        5.790  16.925  30.595  0.00  0.00    +0.023 C 
ATOM     17  C   LIG    1        4.316  16.668  30.322  0.00  0.00    +0.046 C 
ATOM     18  C   LIG    1        2.569  17.044  33.789  0.00  0.00    -0.041 C 
ATOM     19  C   LIG    1        2.231  16.181  34.765  0.00  0.00    +0.050 C 
ENDROOT
BRANCH  17  20
ATOM     20  C   LIG    1        4.095  16.958  28.819  0.00  0.00    -0.040 A 
ATOM     21  C   LIG    1        3.081  17.708  28.235  0.00  0.00    +0.006 A 
ATOM     22  C   LIG    1        2.996  17.847  26.805  0.00  0.00    +0.023 A 
ATOM     23  C   LIG    1        3.905  17.255  25.900  0.00  0.00    +0.029 A 
ATOM     24  C   LIG    1        4.849  16.438  26.491  0.00  0.00    +0.023 A 
ATOM     25  C   LIG    1        4.919  16.280  27.877  0.00  0.00    +0.006 A 
BRANCH  23  26
ATOM     26  N   LIG    1        3.881  17.393  24.521  0.00  0.00    -0.336 N 
ATOM     27  C   LIG    1        3.409  18.600  23.865  0.00  0.00    +0.129 C 
ATOM     28  C   LIG    1        4.550  16.430  23.637  0.00  0.00    +0.129 C 
ENDBRANCH  23  26
ENDBRANCH  17  20
BRANCH  13  29
ATOM     29  C   LIG    1        6.167  19.981  28.279  0.00  0.00    -0.067 C 
ATOM     30  C   LIG    1        6.865  20.133  27.328  0.00  0.00    -0.103 C 
ATOM     31  C   LIG    1        7.713  20.317  26.174  0.00  0.00    +0.106 C 
ENDBRANCH  13  29
BRANCH  13  32
ATOM     32  O   LIG    1        4.521  20.000  29.768  0.00  0.00    -0.376 OA
ATOM     33  H   LIG    1        4.060  19.293  29.285  0.00  0.00    +0.211 HD
ENDBRANCH  13  32
TORSDOF 4
ENDMDL
