MODEL 1
REMARK VINA RESULT:      -4.9      0.000      0.000
REMARK  Name = 
REMARK                            x       y       z     vdW  Elec       q    Type
REMARK                         _______ _______ _______ _____ _____    ______ ____
ROOT
ATOM      1  O   LIG    1       29.586 -12.250  20.412  0.00  0.00    -0.293 OA
ATOM      2  C   LIG    1       28.604 -12.963  20.221  0.00  0.00    +0.157 C 
ATOM      3  C   LIG    1       27.176 -12.438  20.207  0.00  0.00    +0.083 C 
ATOM      4  C   LIG    1       26.168 -13.574  20.510  0.00  0.00    +0.043 C 
ATOM      5  C   LIG    1       26.392 -14.737  19.564  0.00  0.00    -0.044 C 
ATOM      6  C   LIG    1       25.482 -15.624  19.075  0.00  0.00    -0.055 C 
ATOM      7  C   LIG    1       25.982 -16.572  17.937  0.00  0.00    +0.020 C 
ATOM      8  C   LIG    1       27.478 -16.588  17.569  0.00  0.00    +0.013 C 
ATOM      9  C   LIG    1       28.059 -15.205  17.726  0.00  0.00    +0.036 C 
ATOM     10  C   LIG    1       25.449 -18.066  17.833  0.00  0.00    +0.006 C 
ATOM     11  C   LIG    1       25.510 -19.301  16.925  0.00  0.00    +0.008 C 
ATOM     12  C   LIG    1       24.075 -19.196  16.246  0.00  0.00    +0.049 C 
ATOM     13  C   LIG    1       23.282 -18.081  17.102  0.00  0.00    +0.132 C 
ATOM     14  C   LIG    1       24.023 -18.259  18.484  0.00  0.00    +0.012 C 
ATOM     15  C   LIG    1       23.676 -19.677  19.068  0.00  0.00    +0.015 C 
ATOM     16  C   LIG    1       24.178 -17.461  19.820  0.00  0.00    +0.023 C 
ATOM     17  C   LIG    1       24.114 -15.944  19.743  0.00  0.00    +0.046 C 
ATOM     18  C   LIG    1       27.796 -14.808  19.138  0.00  0.00    -0.041 C 
ATOM     19  C   LIG    1       28.802 -14.427  19.945  0.00  0.00    +0.050 C 
ENDROOT
BRANCH  17  20
ATOM     20  C   LIG    1       22.659 -15.590  19.354  0.00  0.00    -0.040 A 
ATOM     21  C   LIG    1       22.230 -14.643  18.431  0.00  0.00    +0.006 A 
ATOM     22  C   LIG    1       20.827 -14.407  18.215  0.00  0.00    +0.023 A 
ATOM     23  C   LIG    1       19.797 -15.093  18.898  0.00  0.00    +0.029 A 
ATOM     24  C   LIG    1       20.241 -15.961  19.876  0.00  0.00    +0.023 A 
ATOM     25  C   LIG    1       21.602 -16.174  20.106  0.00  0.00    +0.006 A 
BRANCH  23  26
ATOM     26  N   LIG    1       18.437 -14.922  18.694  0.00  0.00    -0.336 N 
ATOM     27  C   LIG    1       17.895 -14.345  17.475  0.00  0.00    +0.129 C 
ATOM     28  C   LIG    1       17.441 -15.529  19.586  0.00  0.00    +0.129 C 
ENDBRANCH  23  26
ENDBRANCH  17  20
BRANCH  13  29
ATOM     29  C   LIG    1       21.859 -18.177  16.828  0.00  0.00    -0.067 C 
ATOM     30  C   LIG    1       20.712 -18.144  17.140  0.00  0.00    -0.103 C 
ATOM     31  C   LIG    1       19.319 -18.102  17.521  0.00  0.00    +0.106 C 
ENDBRANCH  13  29
BRANCH  13  32
ATOM     32  O   LIG    1       23.565 -16.794  16.514  0.00  0.00    -0.376 OA
ATOM     33  H   LIG    1       23.751 -16.951  15.573  0.00  0.00    +0.211 HD
ENDBRANCH  13  32
TORSDOF 4
ENDMDL
MODEL 2
REMARK VINA RESULT:      -4.3     13.948     16.249
REMARK  Name = 
REMARK                            x       y       z     vdW  Elec       q    Type
REMARK                         _______ _______ _______ _____ _____    ______ ____
ROOT
ATOM      1  O   LIG    1       11.952 -12.563  29.269  0.00  0.00    -0.293 OA
ATOM      2  C   LIG    1       12.036 -11.873  28.256  0.00  0.00    +0.157 C 
ATOM      3  C   LIG    1       11.926 -12.435  26.847  0.00  0.00    +0.083 C 
ATOM      4  C   LIG    1       12.612 -11.495  25.824  0.00  0.00    +0.043 C 
ATOM      5  C   LIG    1       12.062 -10.089  25.956  0.00  0.00    -0.044 C 
ATOM      6  C   LIG    1       11.914  -9.138  24.993  0.00  0.00    -0.055 C 
ATOM      7  C   LIG    1       11.104  -7.864  25.397  0.00  0.00    +0.020 C 
ATOM      8  C   LIG    1       10.689  -7.666  26.867  0.00  0.00    +0.013 C 
ATOM      9  C   LIG    1       10.385  -9.001  27.498  0.00  0.00    +0.036 C 
ATOM     10  C   LIG    1       11.491  -6.437  24.813  0.00  0.00    +0.006 C 
ATOM     11  C   LIG    1       11.008  -4.982  24.783  0.00  0.00    +0.008 C 
ATOM     12  C   LIG    1       10.396  -4.941  23.315  0.00  0.00    +0.049 C 
ATOM     13  C   LIG    1       10.901  -6.300  22.607  0.00  0.00    +0.132 C 
ATOM     14  C   LIG    1       12.235  -6.521  23.422  0.00  0.00    +0.012 C 
ATOM     15  C   LIG    1       13.244  -5.369  23.067  0.00  0.00    +0.015 C 
ATOM     16  C   LIG    1       13.250  -7.682  23.679  0.00  0.00    +0.023 C 
ATOM     17  C   LIG    1       12.711  -9.104  23.657  0.00  0.00    +0.046 C 
ATOM     18  C   LIG    1       11.615  -9.824  27.330  0.00  0.00    -0.041 C 
ATOM     19  C   LIG    1       12.218 -10.388  28.393  0.00  0.00    +0.050 C 
ENDROOT
BRANCH  17  20
ATOM     20  C   LIG    1       12.299  -9.390  22.193  0.00  0.00    -0.040 A 
ATOM     21  C   LIG    1       12.992  -9.064  21.034  0.00  0.00    +0.006 A 
ATOM     22  C   LIG    1       12.444  -9.367  19.738  0.00  0.00    +0.023 A 
ATOM     23  C   LIG    1       11.198 -10.002  19.536  0.00  0.00    +0.029 A 
ATOM     24  C   LIG    1       10.482 -10.234  20.695  0.00  0.00    +0.023 A 
ATOM     25  C   LIG    1       10.999  -9.917  21.953  0.00  0.00    +0.006 A 
BRANCH  23  26
ATOM     26  N   LIG    1       10.652 -10.344  18.309  0.00  0.00    -0.336 N 
ATOM     27  C   LIG    1       10.150 -11.678  18.022  0.00  0.00    +0.129 C 
ATOM     28  C   LIG    1       10.322  -9.329  17.301  0.00  0.00    +0.129 C 
ENDBRANCH  23  26
ENDBRANCH  17  20
BRANCH  13  29
ATOM     29  C   LIG    1       10.736  -6.192  21.169  0.00  0.00    -0.067 C 
ATOM     30  C   LIG    1       11.141  -6.038  20.061  0.00  0.00    -0.103 C 
ATOM     31  C   LIG    1       11.634  -5.851  18.716  0.00  0.00    +0.106 C 
ENDBRANCH  13  29
BRANCH  13  32
ATOM     32  O   LIG    1        9.932  -7.330  22.895  0.00  0.00    -0.376 OA
ATOM     33  H   LIG    1        9.606  -7.654  22.038  0.00  0.00    +0.211 HD
ENDBRANCH  13  32
TORSDOF 4
ENDMDL
MODEL 3
REMARK VINA RESULT:      -3.9     12.672     15.180
REMARK  Name = 
REMARK                            x       y       z     vdW  Elec       q    Type
REMARK                         _______ _______ _______ _____ _____    ______ ____
ROOT
ATOM      1  O   LIG    1       20.047  -5.443  25.461  0.00  0.00    -0.293 OA
ATOM      2  C   LIG    1       18.865  -5.640  25.188  0.00  0.00    +0.157 C 
ATOM      3  C   LIG    1       18.403  -6.343  23.921  0.00  0.00    +0.083 C 
ATOM      4  C   LIG    1       16.942  -5.955  23.578  0.00  0.00    +0.043 C 
ATOM      5  C   LIG    1       16.041  -6.207  24.770  0.00  0.00    -0.044 C 
ATOM      6  C   LIG    1       14.727  -6.562  24.784  0.00  0.00    -0.055 C 
ATOM      7  C   LIG    1       14.136  -6.973  26.172  0.00  0.00    +0.020 C 
ATOM      8  C   LIG    1       14.985  -6.781  27.442  0.00  0.00    +0.013 C 
ATOM      9  C   LIG    1       16.440  -7.021  27.127  0.00  0.00    +0.036 C 
ATOM     10  C   LIG    1       12.630  -6.627  26.547  0.00  0.00    +0.006 C 
ATOM     11  C   LIG    1       11.579  -6.871  27.636  0.00  0.00    +0.008 C 
ATOM     12  C   LIG    1       10.693  -7.969  26.901  0.00  0.00    +0.049 C 
ATOM     13  C   LIG    1       11.196  -7.963  25.368  0.00  0.00    +0.132 C 
ATOM     14  C   LIG    1       11.699  -6.470  25.280  0.00  0.00    +0.012 C 
ATOM     15  C   LIG    1       10.462  -5.508  25.402  0.00  0.00    +0.015 C 
ATOM     16  C   LIG    1       12.600  -5.611  24.334  0.00  0.00    +0.023 C 
ATOM     17  C   LIG    1       13.735  -6.319  23.610  0.00  0.00    +0.046 C 
ATOM     18  C   LIG    1       16.783  -6.072  26.031  0.00  0.00    -0.041 C 
ATOM     19  C   LIG    1       17.806  -5.208  26.163  0.00  0.00    +0.050 C 
ENDROOT
BRANCH  17  20
ATOM     20  C   LIG    1       13.071  -7.280  22.596  0.00  0.00    -0.040 A 
ATOM     21  C   LIG    1       13.483  -8.557  22.234  0.00  0.00    +0.006 A 
ATOM     22  C   LIG    1       12.770  -9.307  21.235  0.00  0.00    +0.023 A 
ATOM     23  C   LIG    1       11.625  -8.830  20.557  0.00  0.00    +0.029 A 
ATOM     24  C   LIG    1       11.285  -7.526  20.861  0.00  0.00    +0.023 A 
ATOM     25  C   LIG    1       11.991  -6.785  21.812  0.00  0.00    +0.006 A 
BRANCH  23  26
ATOM     26  N   LIG    1       10.888  -9.533  19.617  0.00  0.00    -0.336 N 
ATOM     27  C   LIG    1       10.283  -8.893  18.462  0.00  0.00    +0.129 C 
ATOM     28  C   LIG    1       10.871 -11.000  19.591  0.00  0.00    +0.129 C 
ENDBRANCH  23  26
ENDBRANCH  17  20
BRANCH  13  29
ATOM     29  C   LIG    1       10.216  -8.631  24.531  0.00  0.00    -0.067 C 
ATOM     30  C   LIG    1        9.847  -9.514  23.823  0.00  0.00    -0.103 C 
ATOM     31  C   LIG    1        9.400 -10.585  22.964  0.00  0.00    +0.106 C 
ENDBRANCH  13  29
BRANCH  13  32
ATOM     32  O   LIG    1       12.293  -8.896  25.263  0.00  0.00    -0.376 OA
ATOM     33  H   LIG    1       11.908  -9.787  25.317  0.00  0.00    +0.211 HD
ENDBRANCH  13  32
TORSDOF 4
ENDMDL
MODEL 4
REMARK VINA RESULT:      -3.6     12.931     15.964
REMARK  Name = 
REMARK                            x       y       z     vdW  Elec       q    Type
REMARK                         _______ _______ _______ _____ _____    ______ ____
ROOT
ATOM      1  O   LIG    1       19.974  -5.400  25.107  0.00  0.00    -0.293 OA
ATOM      2  C   LIG    1       18.790  -5.691  25.256  0.00  0.00    +0.157 C 
ATOM      3  C   LIG    1       18.100  -6.815  24.497  0.00  0.00    +0.083 C 
ATOM      4  C   LIG    1       16.568  -6.591  24.453  0.00  0.00    +0.043 C 
ATOM      5  C   LIG    1       16.028  -6.391  25.855  0.00  0.00    -0.044 C 
ATOM      6  C   LIG    1       14.805  -6.725  26.352  0.00  0.00    -0.055 C 
ATOM      7  C   LIG    1       14.630  -6.598  27.900  0.00  0.00    +0.020 C 
ATOM      8  C   LIG    1       15.747  -5.946  28.737  0.00  0.00    +0.013 C 
ATOM      9  C   LIG    1       17.092  -6.276  28.142  0.00  0.00    +0.036 C 
ATOM     10  C   LIG    1       13.239  -6.148  28.525  0.00  0.00    +0.006 C 
ATOM     11  C   LIG    1       12.529  -5.981  29.874  0.00  0.00    +0.008 C 
ATOM     12  C   LIG    1       11.608  -7.277  29.847  0.00  0.00    +0.049 C 
ATOM     13  C   LIG    1       11.706  -7.835  28.335  0.00  0.00    +0.132 C 
ATOM     14  C   LIG    1       12.008  -6.475  27.592  0.00  0.00    +0.012 C 
ATOM     15  C   LIG    1       10.746  -5.545  27.700  0.00  0.00    +0.015 C 
ATOM     16  C   LIG    1       12.545  -6.021  26.195  0.00  0.00    +0.023 C 
ATOM     17  C   LIG    1       13.530  -6.938  25.488  0.00  0.00    +0.046 C 
ATOM     18  C   LIG    1       17.045  -5.796  26.732  0.00  0.00    -0.041 C 
ATOM     19  C   LIG    1       17.970  -4.938  26.265  0.00  0.00    +0.050 C 
ENDROOT
BRANCH  17  20
ATOM     20  C   LIG    1       12.737  -8.209  25.100  0.00  0.00    -0.040 A 
ATOM     21  C   LIG    1       13.160  -9.531  25.169  0.00  0.00    +0.006 A 
ATOM     22  C   LIG    1       12.307 -10.603  24.727  0.00  0.00    +0.023 A 
ATOM     23  C   LIG    1       11.009 -10.412  24.203  0.00  0.00    +0.029 A 
ATOM     24  C   LIG    1       10.642  -9.088  24.055  0.00  0.00    +0.023 A 
ATOM     25  C   LIG    1       11.478  -8.045  24.460  0.00  0.00    +0.006 A 
BRANCH  23  26
ATOM     26  N   LIG    1       10.142 -11.416  23.801  0.00  0.00    -0.336 N 
ATOM     27  C   LIG    1        9.400 -11.354  22.553  0.00  0.00    +0.129 C 
ATOM     28  C   LIG    1       10.095 -12.715  24.485  0.00  0.00    +0.129 C 
ENDBRANCH  23  26
ENDBRANCH  17  20
BRANCH  13  29
ATOM     29  C   LIG    1       10.623  -8.770  28.089  0.00  0.00    -0.067 C 
ATOM     30  C   LIG    1       10.167  -9.864  27.983  0.00  0.00    -0.103 C 
ATOM     31  C   LIG    1        9.614 -11.192  27.855  0.00  0.00    +0.106 C 
ENDBRANCH  13  29
BRANCH  13  32
ATOM     32  O   LIG    1       12.834  -8.733  28.271  0.00  0.00    -0.376 OA
ATOM     33  H   LIG    1       13.608  -8.193  28.035  0.00  0.00    +0.211 HD
ENDBRANCH  13  32
TORSDOF 4
ENDMDL
MODEL 5
REMARK VINA RESULT:      -3.0     14.426     17.344
REMARK  Name = 
REMARK                            x       y       z     vdW  Elec       q    Type
REMARK                         _______ _______ _______ _____ _____    ______ ____
ROOT
ATOM      1  O   LIG    1       11.719 -12.414  31.787  0.00  0.00    -0.293 OA
ATOM      2  C   LIG    1       11.780 -11.732  30.767  0.00  0.00    +0.157 C 
ATOM      3  C   LIG    1       11.719 -12.314  29.363  0.00  0.00    +0.083 C 
ATOM      4  C   LIG    1       12.367 -11.350  28.338  0.00  0.00    +0.043 C 
ATOM      5  C   LIG    1       11.742  -9.974  28.447  0.00  0.00    -0.044 C 
ATOM      6  C   LIG    1       11.557  -9.043  27.471  0.00  0.00    -0.055 C 
ATOM      7  C   LIG    1       10.675  -7.810  27.850  0.00  0.00    +0.020 C 
ATOM      8  C   LIG    1       10.232  -7.617  29.313  0.00  0.00    +0.013 C 
ATOM      9  C   LIG    1        9.990  -8.960  29.955  0.00  0.00    +0.036 C 
ATOM     10  C   LIG    1       10.994  -6.370  27.254  0.00  0.00    +0.006 C 
ATOM     11  C   LIG    1       10.435  -4.943  27.202  0.00  0.00    +0.008 C 
ATOM     12  C   LIG    1        9.842  -4.950  25.726  0.00  0.00    +0.049 C 
ATOM     13  C   LIG    1       10.427  -6.289  25.040  0.00  0.00    +0.132 C 
ATOM     14  C   LIG    1       11.760  -6.430  25.874  0.00  0.00    +0.012 C 
ATOM     15  C   LIG    1       12.711  -5.230  25.518  0.00  0.00    +0.015 C 
ATOM     16  C   LIG    1       12.831  -7.533  26.157  0.00  0.00    +0.023 C 
ATOM     17  C   LIG    1       12.368  -8.981  26.144  0.00  0.00    +0.046 C 
ATOM     18  C   LIG    1       11.264  -9.719  29.812  0.00  0.00    -0.041 C 
ATOM     19  C   LIG    1       11.881 -10.238  30.889  0.00  0.00    +0.050 C 
ENDROOT
BRANCH  17  20
ATOM     20  C   LIG    1       11.990  -9.304  24.679  0.00  0.00    -0.040 A 
ATOM     21  C   LIG    1       10.950 -10.105  24.224  0.00  0.00    +0.006 A 
ATOM     22  C   LIG    1       10.760 -10.338  22.816  0.00  0.00    +0.023 A 
ATOM     23  C   LIG    1       11.585  -9.790  21.808  0.00  0.00    +0.029 A 
ATOM     24  C   LIG    1       12.667  -9.074  22.282  0.00  0.00    +0.023 A 
ATOM     25  C   LIG    1       12.869  -8.868  23.649  0.00  0.00    +0.006 A 
BRANCH  23  26
ATOM     26  N   LIG    1       11.415  -9.958  20.443  0.00  0.00    -0.336 N 
ATOM     27  C   LIG    1       12.066  -9.104  19.464  0.00  0.00    +0.129 C 
ATOM     28  C   LIG    1       10.766 -11.152  19.887  0.00  0.00    +0.129 C 
ENDBRANCH  23  26
ENDBRANCH  17  20
BRANCH  13  29
ATOM     29  C   LIG    1       10.274  -6.205  23.599  0.00  0.00    -0.067 C 
ATOM     30  C   LIG    1       10.691  -6.076  22.492  0.00  0.00    -0.103 C 
ATOM     31  C   LIG    1       11.197  -5.919  21.148  0.00  0.00    +0.106 C 
ENDBRANCH  13  29
BRANCH  13  32
ATOM     32  O   LIG    1        9.509  -7.366  25.328  0.00  0.00    -0.376 OA
ATOM     33  H   LIG    1        8.635  -6.960  25.461  0.00  0.00    +0.211 HD
ENDBRANCH  13  32
TORSDOF 4
ENDMDL
MODEL 6
REMARK VINA RESULT:      -2.3     13.831     16.401
REMARK  Name = 
REMARK                            x       y       z     vdW  Elec       q    Type
REMARK                         _______ _______ _______ _____ _____    ______ ____
ROOT
ATOM      1  O   LIG    1       21.524  -5.324  28.378  0.00  0.00    -0.293 OA
ATOM      2  C   LIG    1       20.308  -5.459  28.263  0.00  0.00    +0.157 C 
ATOM      3  C   LIG    1       19.645  -6.096  27.051  0.00  0.00    +0.083 C 
ATOM      4  C   LIG    1       18.173  -5.633  26.920  0.00  0.00    +0.043 C 
ATOM      5  C   LIG    1       17.429  -5.885  28.216  0.00  0.00    -0.044 C 
ATOM      6  C   LIG    1       16.112  -6.181  28.399  0.00  0.00    -0.055 C 
ATOM      7  C   LIG    1       15.694  -6.613  29.842  0.00  0.00    +0.020 C 
ATOM      8  C   LIG    1       16.714  -6.503  30.990  0.00  0.00    +0.013 C 
ATOM      9  C   LIG    1       18.100  -6.796  30.473  0.00  0.00    +0.036 C 
ATOM     10  C   LIG    1       14.271  -6.213  30.427  0.00  0.00    +0.006 C 
ATOM     11  C   LIG    1       13.365  -6.448  31.642  0.00  0.00    +0.008 C 
ATOM     12  C   LIG    1       12.335  -7.479  31.004  0.00  0.00    +0.049 C 
ATOM     13  C   LIG    1       12.628  -7.443  29.417  0.00  0.00    +0.132 C 
ATOM     14  C   LIG    1       13.187  -5.971  29.304  0.00  0.00    +0.012 C 
ATOM     15  C   LIG    1       12.026  -4.961  29.619  0.00  0.00    +0.015 C 
ATOM     16  C   LIG    1       13.993  -5.122  28.268  0.00  0.00    +0.023 C 
ATOM     17  C   LIG    1       14.985  -5.855  27.378  0.00  0.00    +0.046 C 
ATOM     18  C   LIG    1       18.339  -5.826  29.368  0.00  0.00    -0.041 C 
ATOM     19  C   LIG    1       19.411  -5.013  29.384  0.00  0.00    +0.050 C 
ENDROOT
BRANCH  17  20
ATOM     20  C   LIG    1       14.144  -6.749  26.436  0.00  0.00    -0.040 A 
ATOM     21  C   LIG    1       14.496  -7.976  25.887  0.00  0.00    +0.006 A 
ATOM     22  C   LIG    1       13.607  -8.665  24.989  0.00  0.00    +0.023 A 
ATOM     23  C   LIG    1       12.341  -8.172  24.601  0.00  0.00    +0.029 A 
ATOM     24  C   LIG    1       12.048  -6.911  25.081  0.00  0.00    +0.023 A 
ATOM     25  C   LIG    1       12.919  -6.228  25.932  0.00  0.00    +0.006 A 
BRANCH  23  26
ATOM     26  N   LIG    1       11.440  -8.819  23.769  0.00  0.00    -0.336 N 
ATOM     27  C   LIG    1       10.848  -8.177  22.608  0.00  0.00    +0.129 C 
ATOM     28  C   LIG    1       11.206 -10.266  23.862  0.00  0.00    +0.129 C 
ENDBRANCH  23  26
ENDBRANCH  17  20
BRANCH  13  29
ATOM     29  C   LIG    1       11.513  -8.037  28.702  0.00  0.00    -0.067 C 
ATOM     30  C   LIG    1       10.832  -8.954  28.367  0.00  0.00    -0.103 C 
ATOM     31  C   LIG    1       10.006 -10.067  27.961  0.00  0.00    +0.106 C 
ENDBRANCH  13  29
BRANCH  13  32
ATOM     32  O   LIG    1       13.654  -8.419  29.139  0.00  0.00    -0.376 OA
ATOM     33  H   LIG    1       14.281  -8.386  29.882  0.00  0.00    +0.211 HD
ENDBRANCH  13  32
TORSDOF 4
ENDMDL
