MODEL 1
REMARK VINA RESULT:      -4.5      0.000      0.000
REMARK  Name = 
REMARK                            x       y       z     vdW  Elec       q    Type
REMARK                         _______ _______ _______ _____ _____    ______ ____
ROOT
ATOM      1  O   LIG    1       10.081   8.572  -9.516  0.00  0.00    -0.293 OA
ATOM      2  C   LIG    1        9.110   8.585  -8.763  0.00  0.00    +0.157 C 
ATOM      3  C   LIG    1        8.698   7.399  -7.905  0.00  0.00    +0.083 C 
ATOM      4  C   LIG    1        7.199   7.489  -7.524  0.00  0.00    +0.043 C 
ATOM      5  C   LIG    1        6.902   8.829  -6.882  0.00  0.00    -0.044 C 
ATOM      6  C   LIG    1        5.976   9.131  -5.931  0.00  0.00    -0.055 C 
ATOM      7  C   LIG    1        6.068  10.561  -5.305  0.00  0.00    +0.020 C 
ATOM      8  C   LIG    1        7.045  11.588  -5.907  0.00  0.00    +0.013 C 
ATOM      9  C   LIG    1        8.284  10.887  -6.403  0.00  0.00    +0.036 C 
ATOM     10  C   LIG    1        4.752  11.345  -4.878  0.00  0.00    +0.006 C 
ATOM     11  C   LIG    1        4.298  12.626  -4.168  0.00  0.00    +0.008 C 
ATOM     12  C   LIG    1        3.869  12.009  -2.766  0.00  0.00    +0.049 C 
ATOM     13  C   LIG    1        3.854  10.411  -2.993  0.00  0.00    +0.132 C 
ATOM     14  C   LIG    1        3.544  10.386  -4.541  0.00  0.00    +0.012 C 
ATOM     15  C   LIG    1        2.091  10.937  -4.777  0.00  0.00    +0.015 C 
ATOM     16  C   LIG    1        3.623   9.357  -5.715  0.00  0.00    +0.023 C 
ATOM     17  C   LIG    1        4.701   8.287  -5.641  0.00  0.00    +0.046 C 
ATOM     18  C   LIG    1        7.813   9.867  -7.382  0.00  0.00    -0.041 C 
ATOM     19  C   LIG    1        8.296   9.842  -8.637  0.00  0.00    +0.050 C 
ENDROOT
BRANCH  17  20
ATOM     20  C   LIG    1        4.314   7.362  -4.463  0.00  0.00    -0.040 A 
ATOM     21  C   LIG    1        3.064   6.827  -4.174  0.00  0.00    +0.006 A 
ATOM     22  C   LIG    1        2.862   6.012  -3.006  0.00  0.00    +0.023 A 
ATOM     23  C   LIG    1        3.882   5.691  -2.082  0.00  0.00    +0.029 A 
ATOM     24  C   LIG    1        5.093   6.306  -2.333  0.00  0.00    +0.023 A 
ATOM     25  C   LIG    1        5.286   7.120  -3.452  0.00  0.00    +0.006 A 
BRANCH  23  26
ATOM     26  N   LIG    1        3.739   4.881  -0.966  0.00  0.00    -0.336 N 
ATOM     27  C   LIG    1        4.824   4.063  -0.451  0.00  0.00    +0.129 C 
ATOM     28  C   LIG    1        2.566   4.975  -0.090  0.00  0.00    +0.129 C 
ENDBRANCH  23  26
ENDBRANCH  17  20
BRANCH  13  29
ATOM     29  C   LIG    1        3.114   9.772  -1.919  0.00  0.00    -0.067 C 
ATOM     30  C   LIG    1        3.029   9.112  -0.933  0.00  0.00    -0.103 C 
ATOM     31  C   LIG    1        2.927   8.310   0.264  0.00  0.00    +0.106 C 
ENDBRANCH  13  29
BRANCH  13  32
ATOM     32  O   LIG    1        5.181   9.916  -2.714  0.00  0.00    -0.376 OA
ATOM     33  H   LIG    1        5.687   9.994  -3.540  0.00  0.00    +0.211 HD
ENDBRANCH  13  32
TORSDOF 4
ENDMDL
MODEL 2
REMARK VINA RESULT:      -3.2      2.167      3.245
REMARK  Name = 
REMARK                            x       y       z     vdW  Elec       q    Type
REMARK                         _______ _______ _______ _____ _____    ______ ____
ROOT
ATOM      1  O   LIG    1       10.118   3.184  -7.697  0.00  0.00    -0.293 OA
ATOM      2  C   LIG    1        9.145   3.765  -7.222  0.00  0.00    +0.157 C 
ATOM      3  C   LIG    1        8.648   3.545  -5.801  0.00  0.00    +0.083 C 
ATOM      4  C   LIG    1        7.155   3.940  -5.672  0.00  0.00    +0.043 C 
ATOM      5  C   LIG    1        6.945   5.356  -6.171  0.00  0.00    -0.044 C 
ATOM      6  C   LIG    1        6.035   6.279  -5.755  0.00  0.00    -0.055 C 
ATOM      7  C   LIG    1        6.219   7.730  -6.307  0.00  0.00    +0.020 C 
ATOM      8  C   LIG    1        7.267   7.994  -7.404  0.00  0.00    +0.013 C 
ATOM      9  C   LIG    1        8.460   7.094  -7.201  0.00  0.00    +0.036 C 
ATOM     10  C   LIG    1        4.956   8.644  -6.622  0.00  0.00    +0.006 C 
ATOM     11  C   LIG    1        4.585  10.072  -7.040  0.00  0.00    +0.008 C 
ATOM     12  C   LIG    1        4.105  10.637  -5.632  0.00  0.00    +0.049 C 
ATOM     13  C   LIG    1        3.983   9.344  -4.674  0.00  0.00    +0.132 C 
ATOM     14  C   LIG    1        3.683   8.252  -5.774  0.00  0.00    +0.012 C 
ATOM     15  C   LIG    1        2.273   8.539  -6.404  0.00  0.00    +0.015 C 
ATOM     16  C   LIG    1        3.702   6.692  -5.884  0.00  0.00    +0.023 C 
ATOM     17  C   LIG    1        4.704   5.939  -5.024  0.00  0.00    +0.046 C 
ATOM     18  C   LIG    1        7.928   5.702  -7.206  0.00  0.00    -0.041 C 
ATOM     19  C   LIG    1        8.417   4.781  -8.057  0.00  0.00    +0.050 C 
ENDROOT
BRANCH  17  20
ATOM     20  C   LIG    1        4.247   6.127  -3.558  0.00  0.00    -0.040 A 
ATOM     21  C   LIG    1        5.042   6.229  -2.423  0.00  0.00    +0.006 A 
ATOM     22  C   LIG    1        4.451   6.361  -1.117  0.00  0.00    +0.023 A 
ATOM     23  C   LIG    1        3.059   6.397  -0.882  0.00  0.00    +0.029 A 
ATOM     24  C   LIG    1        2.284   6.200  -2.009  0.00  0.00    +0.023 A 
ATOM     25  C   LIG    1        2.855   6.047  -3.274  0.00  0.00    +0.006 A 
BRANCH  23  26
ATOM     26  N   LIG    1        2.450   6.559   0.353  0.00  0.00    -0.336 N 
ATOM     27  C   LIG    1        3.115   7.201   1.474  0.00  0.00    +0.129 C 
ATOM     28  C   LIG    1        1.015   6.314   0.543  0.00  0.00    +0.129 C 
ENDBRANCH  23  26
ENDBRANCH  17  20
BRANCH  13  29
ATOM     29  C   LIG    1        3.195   9.678  -3.502  0.00  0.00    -0.067 C 
ATOM     30  C   LIG    1        3.059   9.910  -2.343  0.00  0.00    -0.103 C 
ATOM     31  C   LIG    1        2.896  10.192  -0.936  0.00  0.00    +0.106 C 
ENDBRANCH  13  29
BRANCH  13  32
ATOM     32  O   LIG    1        5.272   9.132  -4.059  0.00  0.00    -0.376 OA
ATOM     33  H   LIG    1        5.711   9.999  -4.025  0.00  0.00    +0.211 HD
ENDBRANCH  13  32
TORSDOF 4
ENDMDL
MODEL 3
REMARK VINA RESULT:      -2.9      8.883     13.712
REMARK  Name = 
REMARK                            x       y       z     vdW  Elec       q    Type
REMARK                         _______ _______ _______ _____ _____    ______ ____
ROOT
ATOM      1  O   LIG    1        8.327  11.112  -7.462  0.00  0.00    -0.293 OA
ATOM      2  C   LIG    1        9.452  11.564  -7.660  0.00  0.00    +0.157 C 
ATOM      3  C   LIG    1       10.180  11.449  -8.990  0.00  0.00    +0.083 C 
ATOM      4  C   LIG    1       11.711  11.580  -8.794  0.00  0.00    +0.043 C 
ATOM      5  C   LIG    1       12.034  12.854  -8.039  0.00  0.00    -0.044 C 
ATOM      6  C   LIG    1       13.140  13.643  -8.133  0.00  0.00    -0.055 C 
ATOM      7  C   LIG    1       13.075  15.015  -7.388  0.00  0.00    +0.020 C 
ATOM      8  C   LIG    1       11.884  15.317  -6.460  0.00  0.00    +0.013 C 
ATOM      9  C   LIG    1       10.632  14.685  -7.011  0.00  0.00    +0.036 C 
ATOM     10  C   LIG    1       14.376  15.634  -6.714  0.00  0.00    +0.006 C 
ATOM     11  C   LIG    1       14.873  16.902  -6.009  0.00  0.00    +0.008 C 
ATOM     12  C   LIG    1       15.703  17.553  -7.199  0.00  0.00    +0.049 C 
ATOM     13  C   LIG    1       15.811  16.400  -8.323  0.00  0.00    +0.132 C 
ATOM     14  C   LIG    1       15.716  15.134  -7.384  0.00  0.00    +0.012 C 
ATOM     15  C   LIG    1       17.001  15.072  -6.482  0.00  0.00    +0.015 C 
ATOM     16  C   LIG    1       15.437  13.604  -7.539  0.00  0.00    +0.023 C 
ATOM     17  C   LIG    1       14.520  13.167  -8.672  0.00  0.00    +0.046 C 
ATOM     18  C   LIG    1       10.931  13.231  -7.145  0.00  0.00    -0.041 C 
ATOM     19  C   LIG    1       10.148  12.310  -6.556  0.00  0.00    +0.050 C 
ENDROOT
BRANCH  17  20
ATOM     20  C   LIG    1       15.281  13.463  -9.986  0.00  0.00    -0.040 A 
ATOM     21  C   LIG    1       16.612  13.192 -10.279  0.00  0.00    +0.006 A 
ATOM     22  C   LIG    1       17.181  13.573 -11.545  0.00  0.00    +0.023 A 
ATOM     23  C   LIG    1       16.461  14.232 -12.567  0.00  0.00    +0.029 A 
ATOM     24  C   LIG    1       15.168  14.576 -12.222  0.00  0.00    +0.023 A 
ATOM     25  C   LIG    1       14.621  14.231 -10.985  0.00  0.00    +0.006 A 
BRANCH  23  26
ATOM     26  N   LIG    1       16.959  14.583 -13.812  0.00  0.00    -0.336 N 
ATOM     27  C   LIG    1       17.374  15.938 -14.134  0.00  0.00    +0.129 C 
ATOM     28  C   LIG    1       17.326  13.570 -14.809  0.00  0.00    +0.129 C 
ENDBRANCH  23  26
ENDBRANCH  17  20
BRANCH  13  29
ATOM     29  C   LIG    1       16.857  16.738  -9.271  0.00  0.00    -0.067 C 
ATOM     30  C   LIG    1       17.991  16.801  -9.624  0.00  0.00    -0.103 C 
ATOM     31  C   LIG    1       19.369  16.878 -10.052  0.00  0.00    +0.106 C 
ENDBRANCH  13  29
BRANCH  13  32
ATOM     32  O   LIG    1       14.652  16.510  -9.177  0.00  0.00    -0.376 OA
ATOM     33  H   LIG    1       14.118  15.711  -9.027  0.00  0.00    +0.211 HD
ENDBRANCH  13  32
TORSDOF 4
ENDMDL
MODEL 4
REMARK VINA RESULT:      -2.6     11.213     14.470
REMARK  Name = 
REMARK                            x       y       z     vdW  Elec       q    Type
REMARK                         _______ _______ _______ _____ _____    ______ ____
ROOT
ATOM      1  O   LIG    1       11.021  16.311  -7.585  0.00  0.00    -0.293 OA
ATOM      2  C   LIG    1       11.973  16.366  -6.810  0.00  0.00    +0.157 C 
ATOM      3  C   LIG    1       11.846  16.156  -5.308  0.00  0.00    +0.083 C 
ATOM      4  C   LIG    1       13.027  16.820  -4.557  0.00  0.00    +0.043 C 
ATOM      5  C   LIG    1       14.346  16.335  -5.124  0.00  0.00    -0.044 C 
ATOM      6  C   LIG    1       15.538  16.171  -4.486  0.00  0.00    -0.055 C 
ATOM      7  C   LIG    1       16.657  15.436  -5.291  0.00  0.00    +0.020 C 
ATOM      8  C   LIG    1       16.431  15.112  -6.780  0.00  0.00    +0.013 C 
ATOM      9  C   LIG    1       14.977  14.790  -7.018  0.00  0.00    +0.036 C 
ATOM     10  C   LIG    1       18.184  15.847  -5.118  0.00  0.00    +0.006 C 
ATOM     11  C   LIG    1       19.595  15.420  -5.540  0.00  0.00    +0.008 C 
ATOM     12  C   LIG    1       20.073  14.730  -4.189  0.00  0.00    +0.049 C 
ATOM     13  C   LIG    1       18.966  15.141  -3.089  0.00  0.00    +0.132 C 
ATOM     14  C   LIG    1       18.490  16.508  -3.718  0.00  0.00    +0.012 C 
ATOM     15  C   LIG    1       19.673  17.541  -3.644  0.00  0.00    +0.015 C 
ATOM     16  C   LIG    1       17.282  17.488  -3.563  0.00  0.00    +0.023 C 
ATOM     17  C   LIG    1       15.940  16.893  -3.168  0.00  0.00    +0.046 C 
ATOM     18  C   LIG    1       14.211  15.976  -6.542  0.00  0.00    -0.041 C 
ATOM     19  C   LIG    1       13.351  16.614  -7.356  0.00  0.00    +0.050 C 
ENDROOT
BRANCH  17  20
ATOM     20  C   LIG    1       16.099  16.389  -1.714  0.00  0.00    -0.040 A 
ATOM     21  C   LIG    1       15.532  15.259  -1.136  0.00  0.00    +0.006 A 
ATOM     22  C   LIG    1       15.750  14.953   0.253  0.00  0.00    +0.023 A 
ATOM     23  C   LIG    1       16.534  15.745   1.122  0.00  0.00    +0.029 A 
ATOM     24  C   LIG    1       17.012  16.911   0.556  0.00  0.00    +0.023 A 
ATOM     25  C   LIG    1       16.781  17.225  -0.785  0.00  0.00    +0.006 A 
BRANCH  23  26
ATOM     26  N   LIG    1       16.799  15.467   2.454  0.00  0.00    -0.336 N 
ATOM     27  C   LIG    1       15.860  14.757   3.305  0.00  0.00    +0.129 C 
ATOM     28  C   LIG    1       18.136  15.655   3.030  0.00  0.00    +0.129 C 
ENDBRANCH  23  26
ENDBRANCH  17  20
BRANCH  13  29
ATOM     29  C   LIG    1       19.490  14.900  -1.756  0.00  0.00    -0.067 C 
ATOM     30  C   LIG    1       20.117  15.200  -0.790  0.00  0.00    -0.103 C 
ATOM     31  C   LIG    1       20.879  15.564   0.382  0.00  0.00    +0.106 C 
ENDBRANCH  13  29
BRANCH  13  32
ATOM     32  O   LIG    1       17.918  14.149  -3.130  0.00  0.00    -0.376 OA
ATOM     33  H   LIG    1       18.260  13.403  -3.652  0.00  0.00    +0.211 HD
ENDBRANCH  13  32
TORSDOF 4
ENDMDL
MODEL 5
REMARK VINA RESULT:      -2.6      8.751     12.758
REMARK  Name = 
REMARK                            x       y       z     vdW  Elec       q    Type
REMARK                         _______ _______ _______ _____ _____    ______ ____
ROOT
ATOM      1  O   LIG    1        8.442  11.517  -7.307  0.00  0.00    -0.293 OA
ATOM      2  C   LIG    1        9.396  12.267  -7.113  0.00  0.00    +0.157 C 
ATOM      3  C   LIG    1        9.850  12.705  -5.730  0.00  0.00    +0.083 C 
ATOM      4  C   LIG    1       10.654  14.028  -5.808  0.00  0.00    +0.043 C 
ATOM      5  C   LIG    1       11.791  13.891  -6.801  0.00  0.00    -0.044 C 
ATOM      6  C   LIG    1       13.011  14.495  -6.786  0.00  0.00    -0.055 C 
ATOM      7  C   LIG    1       14.053  13.973  -7.828  0.00  0.00    +0.020 C 
ATOM      8  C   LIG    1       13.606  12.970  -8.908  0.00  0.00    +0.013 C 
ATOM      9  C   LIG    1       12.555  12.046  -8.345  0.00  0.00    +0.036 C 
ATOM     10  C   LIG    1       15.094  14.968  -8.502  0.00  0.00    +0.006 C 
ATOM     11  C   LIG    1       16.316  14.977  -9.429  0.00  0.00    +0.008 C 
ATOM     12  C   LIG    1       17.462  15.193  -8.347  0.00  0.00    +0.049 C 
ATOM     13  C   LIG    1       16.691  15.585  -6.985  0.00  0.00    +0.132 C 
ATOM     14  C   LIG    1       15.398  16.237  -7.613  0.00  0.00    +0.012 C 
ATOM     15  C   LIG    1       15.807  17.562  -8.354  0.00  0.00    +0.015 C 
ATOM     16  C   LIG    1       13.964  16.639  -7.139  0.00  0.00    +0.023 C 
ATOM     17  C   LIG    1       13.334  15.814  -6.027  0.00  0.00    +0.046 C 
ATOM     18  C   LIG    1       11.456  12.925  -7.856  0.00  0.00    -0.041 C 
ATOM     19  C   LIG    1       10.194  12.756  -8.289  0.00  0.00    +0.050 C 
ENDROOT
BRANCH  17  20
ATOM     20  C   LIG    1       14.159  16.103  -4.751  0.00  0.00    -0.040 A 
ATOM     21  C   LIG    1       14.727  17.310  -4.359  0.00  0.00    +0.006 A 
ATOM     22  C   LIG    1       15.506  17.400  -3.152  0.00  0.00    +0.023 A 
ATOM     23  C   LIG    1       15.753  16.309  -2.289  0.00  0.00    +0.029 A 
ATOM     24  C   LIG    1       15.260  15.100  -2.742  0.00  0.00    +0.023 A 
ATOM     25  C   LIG    1       14.526  15.004  -3.926  0.00  0.00    +0.006 A 
BRANCH  23  26
ATOM     26  N   LIG    1       16.465  16.361  -1.101  0.00  0.00    -0.336 N 
ATOM     27  C   LIG    1       16.441  15.281  -0.128  0.00  0.00    +0.129 C 
ATOM     28  C   LIG    1       17.477  17.395  -0.853  0.00  0.00    +0.129 C 
ENDBRANCH  23  26
ENDBRANCH  17  20
BRANCH  13  29
ATOM     29  C   LIG    1       17.629  16.175  -6.046  0.00  0.00    -0.067 C 
ATOM     30  C   LIG    1       18.347  16.141  -5.098  0.00  0.00    -0.103 C 
ATOM     31  C   LIG    1       19.220  16.099  -3.948  0.00  0.00    +0.106 C 
ENDBRANCH  13  29
BRANCH  13  32
ATOM     32  O   LIG    1       16.378  14.359  -6.290  0.00  0.00    -0.376 OA
ATOM     33  H   LIG    1       15.408  14.282  -6.282  0.00  0.00    +0.211 HD
ENDBRANCH  13  32
TORSDOF 4
ENDMDL
MODEL 6
REMARK VINA RESULT:      -2.5      3.995      9.080
REMARK  Name = 
REMARK                            x       y       z     vdW  Elec       q    Type
REMARK                         _______ _______ _______ _____ _____    ______ ____
ROOT
ATOM      1  O   LIG    1        2.996   8.849  -3.966  0.00  0.00    -0.293 OA
ATOM      2  C   LIG    1        3.946   9.336  -4.575  0.00  0.00    +0.157 C 
ATOM      3  C   LIG    1        4.875  10.384  -3.981  0.00  0.00    +0.083 C 
ATOM      4  C   LIG    1        5.578  11.194  -5.099  0.00  0.00    +0.043 C 
ATOM      5  C   LIG    1        6.270  10.255  -6.067  0.00  0.00    -0.044 C 
ATOM      6  C   LIG    1        7.403  10.464  -6.793  0.00  0.00    -0.055 C 
ATOM      7  C   LIG    1        7.992   9.217  -7.529  0.00  0.00    +0.020 C 
ATOM      8  C   LIG    1        7.189   7.903  -7.554  0.00  0.00    +0.013 C 
ATOM      9  C   LIG    1        6.430   7.743  -6.261  0.00  0.00    +0.036 C 
ATOM     10  C   LIG    1        8.701   9.371  -8.944  0.00  0.00    +0.006 C 
ATOM     11  C   LIG    1        9.494   8.566  -9.982  0.00  0.00    +0.008 C 
ATOM     12  C   LIG    1       10.956   9.110  -9.671  0.00  0.00    +0.049 C 
ATOM     13  C   LIG    1       10.738  10.382  -8.702  0.00  0.00    +0.132 C 
ATOM     14  C   LIG    1        9.297  10.813  -9.183  0.00  0.00    +0.012 C 
ATOM     15  C   LIG    1        9.389  11.327 -10.665  0.00  0.00    +0.015 C 
ATOM     16  C   LIG    1        8.135  11.723  -8.667  0.00  0.00    +0.023 C 
ATOM     17  C   LIG    1        7.969  11.866  -7.162  0.00  0.00    +0.046 C 
ATOM     18  C   LIG    1        5.580   8.960  -6.130  0.00  0.00    -0.041 C 
ATOM     19  C   LIG    1        4.249   8.856  -5.966  0.00  0.00    +0.050 C 
ENDROOT
BRANCH  17  20
ATOM     20  C   LIG    1        9.203  12.652  -6.662  0.00  0.00    -0.040 A 
ATOM     21  C   LIG    1        9.918  12.459  -5.485  0.00  0.00    +0.006 A 
ATOM     22  C   LIG    1       11.026  13.313  -5.147  0.00  0.00    +0.023 A 
ATOM     23  C   LIG    1       11.472  14.384  -5.954  0.00  0.00    +0.029 A 
ATOM     24  C   LIG    1       10.694  14.619  -7.071  0.00  0.00    +0.023 A 
ATOM     25  C   LIG    1        9.602  13.809  -7.389  0.00  0.00    +0.006 A 
BRANCH  23  26
ATOM     26  N   LIG    1       12.555  15.205  -5.684  0.00  0.00    -0.336 N 
ATOM     27  C   LIG    1       13.055  16.178  -6.640  0.00  0.00    +0.129 C 
ATOM     28  C   LIG    1       13.119  15.319  -4.333  0.00  0.00    +0.129 C 
ENDBRANCH  23  26
ENDBRANCH  17  20
BRANCH  13  29
ATOM     29  C   LIG    1       11.949  11.182  -8.666  0.00  0.00    -0.067 C 
ATOM     30  C   LIG    1       12.568  12.182  -8.844  0.00  0.00    -0.103 C 
ATOM     31  C   LIG    1       13.318  13.397  -9.061  0.00  0.00    +0.106 C 
ENDBRANCH  13  29
BRANCH  13  32
ATOM     32  O   LIG    1       10.716   9.898  -7.342  0.00  0.00    -0.376 OA
ATOM     33  H   LIG    1        9.854  10.151  -6.969  0.00  0.00    +0.211 HD
ENDBRANCH  13  32
TORSDOF 4
ENDMDL
MODEL 7
REMARK VINA RESULT:      -1.5      7.314     10.916
REMARK  Name = 
REMARK                            x       y       z     vdW  Elec       q    Type
REMARK                         _______ _______ _______ _____ _____    ______ ____
ROOT
ATOM      1  O   LIG    1        8.026   9.903  -8.074  0.00  0.00    -0.293 OA
ATOM      2  C   LIG    1        8.703  10.845  -7.670  0.00  0.00    +0.157 C 
ATOM      3  C   LIG    1        8.721  11.304  -6.220  0.00  0.00    +0.083 C 
ATOM      4  C   LIG    1        9.178  12.781  -6.115  0.00  0.00    +0.043 C 
ATOM      5  C   LIG    1       10.504  12.969  -6.823  0.00  0.00    -0.044 C 
ATOM      6  C   LIG    1       11.508  13.842  -6.533  0.00  0.00    -0.055 C 
ATOM      7  C   LIG    1       12.849  13.638  -7.310  0.00  0.00    +0.020 C 
ATOM      8  C   LIG    1       12.907  12.617  -8.462  0.00  0.00    +0.013 C 
ATOM      9  C   LIG    1       12.014  11.442  -8.151  0.00  0.00    +0.036 C 
ATOM     10  C   LIG    1       13.741  14.885  -7.731  0.00  0.00    +0.006 C 
ATOM     11  C   LIG    1       15.097  15.232  -8.356  0.00  0.00    +0.008 C 
ATOM     12  C   LIG    1       15.889  15.654  -7.043  0.00  0.00    +0.049 C 
ATOM     13  C   LIG    1       14.765  15.779  -5.892  0.00  0.00    +0.132 C 
ATOM     14  C   LIG    1       13.525  16.141  -6.799  0.00  0.00    +0.012 C 
ATOM     15  C   LIG    1       13.753  17.562  -7.429  0.00  0.00    +0.015 C 
ATOM     16  C   LIG    1       11.967  16.167  -6.663  0.00  0.00    +0.023 C 
ATOM     17  C   LIG    1       11.326  15.158  -5.723  0.00  0.00    +0.046 C 
ATOM     18  C   LIG    1       10.655  12.010  -7.925  0.00  0.00    -0.041 C 
ATOM     19  C   LIG    1        9.598  11.571  -8.634  0.00  0.00    +0.050 C 
ENDROOT
BRANCH  17  20
ATOM     20  C   LIG    1       11.754  15.565  -4.293  0.00  0.00    -0.040 A 
ATOM     21  C   LIG    1       11.831  16.846  -3.758  0.00  0.00    +0.006 A 
ATOM     22  C   LIG    1       12.292  17.056  -2.411  0.00  0.00    +0.023 A 
ATOM     23  C   LIG    1       12.690  16.016  -1.542  0.00  0.00    +0.029 A 
ATOM     24  C   LIG    1       12.696  14.761  -2.120  0.00  0.00    +0.023 A 
ATOM     25  C   LIG    1       12.274  14.556  -3.435  0.00  0.00    +0.006 A 
BRANCH  23  26
ATOM     26  N   LIG    1       13.104  16.171  -0.228  0.00  0.00    -0.336 N 
ATOM     27  C   LIG    1       12.965  15.119   0.764  0.00  0.00    +0.129 C 
ATOM     28  C   LIG    1       13.927  17.312   0.191  0.00  0.00    +0.129 C 
ENDBRANCH  23  26
ENDBRANCH  17  20
BRANCH  13  29
ATOM     29  C   LIG    1       15.301  16.522  -4.765  0.00  0.00    -0.067 C 
ATOM     30  C   LIG    1       15.784  16.608  -3.681  0.00  0.00    -0.103 C 
ATOM     31  C   LIG    1       16.370  16.711  -2.366  0.00  0.00    +0.106 C 
ENDBRANCH  13  29
BRANCH  13  32
ATOM     32  O   LIG    1       14.612  14.478  -5.285  0.00  0.00    -0.376 OA
ATOM     33  H   LIG    1       15.508  14.120  -5.162  0.00  0.00    +0.211 HD
ENDBRANCH  13  32
TORSDOF 4
ENDMDL
