MODEL 1
REMARK VINA RESULT:       5.2      0.000      0.000
REMARK  Name = 
REMARK                            x       y       z     vdW  Elec       q    Type
REMARK                         _______ _______ _______ _____ _____    ______ ____
ROOT
ATOM      1  O   LIG    1        4.203  25.238   6.075  0.00  0.00    -0.293 OA
ATOM      2  C   LIG    1        3.707  26.320   5.772  0.00  0.00    +0.157 C 
ATOM      3  C   LIG    1        2.435  26.867   6.404  0.00  0.00    +0.083 C 
ATOM      4  C   LIG    1        1.763  27.909   5.475  0.00  0.00    +0.043 C 
ATOM      5  C   LIG    1        2.757  28.987   5.093  0.00  0.00    -0.044 C 
ATOM      6  C   LIG    1        2.526  30.300   4.820  0.00  0.00    -0.055 C 
ATOM      7  C   LIG    1        3.789  31.210   4.681  0.00  0.00    +0.020 C 
ATOM      8  C   LIG    1        5.188  30.566   4.670  0.00  0.00    +0.013 C 
ATOM      9  C   LIG    1        5.206  29.364   5.579  0.00  0.00    +0.036 C 
ATOM     10  C   LIG    1        3.810  32.416   3.645  0.00  0.00    +0.006 C 
ATOM     11  C   LIG    1        4.673  33.606   3.207  0.00  0.00    +0.008 C 
ATOM     12  C   LIG    1        3.865  34.785   3.906  0.00  0.00    +0.049 C 
ATOM     13  C   LIG    1        2.476  34.119   4.389  0.00  0.00    +0.132 C 
ATOM     14  C   LIG    1        2.368  32.969   3.312  0.00  0.00    +0.012 C 
ATOM     15  C   LIG    1        2.146  33.616   1.898  0.00  0.00    +0.015 C 
ATOM     16  C   LIG    1        1.561  31.644   3.119  0.00  0.00    +0.023 C 
ATOM     17  C   LIG    1        1.154  30.880   4.370  0.00  0.00    +0.046 C 
ATOM     18  C   LIG    1        4.129  28.461   5.086  0.00  0.00    -0.041 C 
ATOM     19  C   LIG    1        4.397  27.184   4.755  0.00  0.00    +0.050 C 
ENDROOT
BRANCH  17  20
ATOM     20  C   LIG    1        0.109  31.760   5.095  0.00  0.00    -0.040 A 
ATOM     21  C   LIG    1       -0.984  32.416   4.542  0.00  0.00    +0.006 A 
ATOM     22  C   LIG    1       -1.842  33.235   5.356  0.00  0.00    +0.023 A 
ATOM     23  C   LIG    1       -1.657  33.436   6.743  0.00  0.00    +0.029 A 
ATOM     24  C   LIG    1       -0.515  32.853   7.256  0.00  0.00    +0.023 A 
ATOM     25  C   LIG    1        0.334  32.078   6.464  0.00  0.00    +0.006 A 
BRANCH  23  26
ATOM     26  N   LIG    1       -2.480  34.185   7.570  0.00  0.00    -0.336 N 
ATOM     27  C   LIG    1       -3.908  34.319   7.337  0.00  0.00    +0.129 C 
ATOM     28  C   LIG    1       -2.014  34.695   8.865  0.00  0.00    +0.129 C 
ENDBRANCH  23  26
ENDBRANCH  17  20
BRANCH  13  29
ATOM     29  C   LIG    1        1.512  35.163   4.686  0.00  0.00    -0.067 C 
ATOM     30  C   LIG    1        0.556  35.828   4.442  0.00  0.00    -0.103 C 
ATOM     31  C   LIG    1       -0.606  36.634   4.146  0.00  0.00    +0.106 C 
ENDBRANCH  13  29
BRANCH  13  32
ATOM     32  O   LIG    1        2.683  33.583   5.713  0.00  0.00    -0.376 OA
ATOM     33  H   LIG    1        2.777  32.620   5.613  0.00  0.00    +0.211 HD
ENDBRANCH  13  32
TORSDOF 4
ENDMDL
