MODEL 1
REMARK VINA RESULT:      -8.0      0.000      0.000
REMARK  Name = 
REMARK                            x       y       z     vdW  Elec       q    Type
REMARK                         _______ _______ _______ _____ _____    ______ ____
ROOT
ATOM      1  O   LIG    1      -47.924   7.868 -45.964  0.00  0.00    -0.293 OA
ATOM      2  C   LIG    1      -46.902   8.525 -45.782  0.00  0.00    +0.157 C 
ATOM      3  C   LIG    1      -45.506   8.015 -46.108  0.00  0.00    +0.083 C 
ATOM      4  C   LIG    1      -44.436   8.774 -45.284  0.00  0.00    +0.043 C 
ATOM      5  C   LIG    1      -44.591  10.269 -45.476  0.00  0.00    -0.044 C 
ATOM      6  C   LIG    1      -43.631  11.235 -45.454  0.00  0.00    -0.055 C 
ATOM      7  C   LIG    1      -44.075  12.661 -45.914  0.00  0.00    +0.020 C 
ATOM      8  C   LIG    1      -45.566  12.941 -46.177  0.00  0.00    +0.013 C 
ATOM      9  C   LIG    1      -46.225  11.712 -46.750  0.00  0.00    +0.036 C 
ATOM     10  C   LIG    1      -43.457  13.960 -45.236  0.00  0.00    +0.006 C 
ATOM     11  C   LIG    1      -43.446  15.489 -45.363  0.00  0.00    +0.008 C 
ATOM     12  C   LIG    1      -42.019  15.684 -46.036  0.00  0.00    +0.049 C 
ATOM     13  C   LIG    1      -41.291  14.249 -45.912  0.00  0.00    +0.132 C 
ATOM     14  C   LIG    1      -42.024  13.713 -44.621  0.00  0.00    +0.012 C 
ATOM     15  C   LIG    1      -41.598  14.595 -43.392  0.00  0.00    +0.015 C 
ATOM     16  C   LIG    1      -42.226  12.343 -43.896  0.00  0.00    +0.023 C 
ATOM     17  C   LIG    1      -42.249  11.089 -44.756  0.00  0.00    +0.046 C 
ATOM     18  C   LIG    1      -45.988  10.622 -45.762  0.00  0.00    -0.041 C 
ATOM     19  C   LIG    1      -47.016   9.924 -45.245  0.00  0.00    +0.050 C 
ENDROOT
BRANCH  17  20
ATOM     20  C   LIG    1      -40.815  10.919 -45.314  0.00  0.00    -0.040 A 
ATOM     21  C   LIG    1      -39.617  10.968 -44.613  0.00  0.00    +0.006 A 
ATOM     22  C   LIG    1      -38.357  10.831 -45.295  0.00  0.00    +0.023 A 
ATOM     23  C   LIG    1      -38.232  10.640 -46.690  0.00  0.00    +0.029 A 
ATOM     24  C   LIG    1      -39.427  10.688 -47.381  0.00  0.00    +0.023 A 
ATOM     25  C   LIG    1      -40.649  10.846 -46.725  0.00  0.00    +0.006 A 
BRANCH  23  26
ATOM     26  N   LIG    1      -37.043  10.467 -47.380  0.00  0.00    -0.336 N 
ATOM     27  C   LIG    1      -36.300  11.580 -47.947  0.00  0.00    +0.129 C 
ATOM     28  C   LIG    1      -36.330   9.184 -47.379  0.00  0.00    +0.129 C 
ENDBRANCH  23  26
ENDBRANCH  17  20
BRANCH  13  29
ATOM     29  C   LIG    1      -39.865  14.404 -46.136  0.00  0.00    -0.067 C 
ATOM     30  C   LIG    1      -38.812  14.927 -45.956  0.00  0.00    -0.103 C 
ATOM     31  C   LIG    1      -37.533  15.562 -45.738  0.00  0.00    +0.106 C 
ENDBRANCH  13  29
BRANCH  13  32
ATOM     32  O   LIG    1      -41.646  13.475 -47.078  0.00  0.00    -0.376 OA
ATOM     33  H   LIG    1      -42.304  13.996 -47.569  0.00  0.00    +0.211 HD
ENDBRANCH  13  32
TORSDOF 4
ENDMDL
MODEL 2
REMARK VINA RESULT:      -7.7      1.462      2.007
REMARK  Name = 
REMARK                            x       y       z     vdW  Elec       q    Type
REMARK                         _______ _______ _______ _____ _____    ______ ____
ROOT
ATOM      1  O   LIG    1      -47.246   9.411 -43.353  0.00  0.00    -0.293 OA
ATOM      2  C   LIG    1      -46.176   9.941 -43.643  0.00  0.00    +0.157 C 
ATOM      3  C   LIG    1      -45.009   9.189 -44.266  0.00  0.00    +0.083 C 
ATOM      4  C   LIG    1      -43.673   9.926 -43.999  0.00  0.00    +0.043 C 
ATOM      5  C   LIG    1      -43.772  11.368 -44.454  0.00  0.00    -0.044 C 
ATOM      6  C   LIG    1      -42.791  12.177 -44.941  0.00  0.00    -0.055 C 
ATOM      7  C   LIG    1      -43.255  13.544 -45.540  0.00  0.00    +0.020 C 
ATOM      8  C   LIG    1      -44.725  13.979 -45.383  0.00  0.00    +0.013 C 
ATOM      9  C   LIG    1      -45.625  12.771 -45.442  0.00  0.00    +0.036 C 
ATOM     10  C   LIG    1      -42.353  14.845 -45.386  0.00  0.00    +0.006 C 
ATOM     11  C   LIG    1      -42.272  16.308 -45.839  0.00  0.00    +0.008 C 
ATOM     12  C   LIG    1      -41.138  16.175 -46.947  0.00  0.00    +0.049 C 
ATOM     13  C   LIG    1      -40.519  14.698 -46.745  0.00  0.00    +0.132 C 
ATOM     14  C   LIG    1      -40.820  14.515 -45.206  0.00  0.00    +0.012 C 
ATOM     15  C   LIG    1      -39.946  15.537 -44.392  0.00  0.00    +0.015 C 
ATOM     16  C   LIG    1      -40.871  13.341 -44.174  0.00  0.00    +0.023 C 
ATOM     17  C   LIG    1      -41.270  11.967 -44.691  0.00  0.00    +0.046 C 
ATOM     18  C   LIG    1      -45.155  11.857 -44.364  0.00  0.00    -0.041 C 
ATOM     19  C   LIG    1      -46.002  11.416 -43.416  0.00  0.00    +0.050 C 
ENDROOT
BRANCH  17  20
ATOM     20  C   LIG    1      -40.119  11.500 -45.614  0.00  0.00    -0.040 A 
ATOM     21  C   LIG    1      -40.207  11.059 -46.929  0.00  0.00    +0.006 A 
ATOM     22  C   LIG    1      -39.036  10.616 -47.638  0.00  0.00    +0.023 A 
ATOM     23  C   LIG    1      -37.738  10.594 -47.080  0.00  0.00    +0.029 A 
ATOM     24  C   LIG    1      -37.684  10.946 -45.745  0.00  0.00    +0.023 A 
ATOM     25  C   LIG    1      -38.823  11.352 -45.046  0.00  0.00    +0.006 A 
BRANCH  23  26
ATOM     26  N   LIG    1      -36.580  10.211 -47.739  0.00  0.00    -0.336 N 
ATOM     27  C   LIG    1      -36.552   9.123 -48.701  0.00  0.00    +0.129 C 
ATOM     28  C   LIG    1      -35.360  11.027 -47.692  0.00  0.00    +0.129 C 
ENDBRANCH  23  26
ENDBRANCH  17  20
BRANCH  13  29
ATOM     29  C   LIG    1      -39.240  14.608 -47.427  0.00  0.00    -0.067 C 
ATOM     30  C   LIG    1      -38.513  14.189 -48.270  0.00  0.00    -0.103 C 
ATOM     31  C   LIG    1      -37.630  13.680 -49.293  0.00  0.00    +0.106 C 
ENDBRANCH  13  29
BRANCH  13  32
ATOM     32  O   LIG    1      -41.297  13.783 -47.546  0.00  0.00    -0.376 OA
ATOM     33  H   LIG    1      -42.125  13.624 -47.063  0.00  0.00    +0.211 HD
ENDBRANCH  13  32
TORSDOF 4
ENDMDL
MODEL 3
REMARK VINA RESULT:      -7.6      2.423      3.883
REMARK  Name = 
REMARK                            x       y       z     vdW  Elec       q    Type
REMARK                         _______ _______ _______ _____ _____    ______ ____
ROOT
ATOM      1  O   LIG    1      -44.951  10.927 -42.884  0.00  0.00    -0.293 OA
ATOM      2  C   LIG    1      -43.995  11.407 -43.490  0.00  0.00    +0.157 C 
ATOM      3  C   LIG    1      -43.119  10.608 -44.442  0.00  0.00    +0.083 C 
ATOM      4  C   LIG    1      -41.728  11.273 -44.599  0.00  0.00    +0.043 C 
ATOM      5  C   LIG    1      -41.885  12.726 -45.000  0.00  0.00    -0.044 C 
ATOM      6  C   LIG    1      -41.060  13.493 -45.765  0.00  0.00    -0.055 C 
ATOM      7  C   LIG    1      -41.612  14.891 -46.190  0.00  0.00    +0.020 C 
ATOM      8  C   LIG    1      -42.937  15.396 -45.589  0.00  0.00    +0.013 C 
ATOM      9  C   LIG    1      -43.875  14.236 -45.369  0.00  0.00    +0.036 C 
ATOM     10  C   LIG    1      -40.639  16.142 -46.321  0.00  0.00    +0.006 C 
ATOM     11  C   LIG    1      -40.624  17.607 -46.776  0.00  0.00    +0.008 C 
ATOM     12  C   LIG    1      -39.894  17.436 -48.179  0.00  0.00    +0.049 C 
ATOM     13  C   LIG    1      -39.322  15.927 -48.178  0.00  0.00    +0.132 C 
ATOM     14  C   LIG    1      -39.144  15.732 -46.622  0.00  0.00    +0.012 C 
ATOM     15  C   LIG    1      -38.010  16.695 -46.115  0.00  0.00    +0.015 C 
ATOM     16  C   LIG    1      -38.938  14.545 -45.625  0.00  0.00    +0.023 C 
ATOM     17  C   LIG    1      -39.549  13.202 -45.995  0.00  0.00    +0.046 C 
ATOM     18  C   LIG    1      -43.145  13.281 -44.488  0.00  0.00    -0.041 C 
ATOM     19  C   LIG    1      -43.682  12.868 -43.326  0.00  0.00    +0.050 C 
ENDROOT
BRANCH  17  20
ATOM     20  C   LIG    1      -38.764  12.693 -47.228  0.00  0.00    -0.040 A 
ATOM     21  C   LIG    1      -39.278  12.188 -48.416  0.00  0.00    +0.006 A 
ATOM     22  C   LIG    1      -38.403  11.715 -49.455  0.00  0.00    +0.023 A 
ATOM     23  C   LIG    1      -36.992  11.723 -49.364  0.00  0.00    +0.029 A 
ATOM     24  C   LIG    1      -36.503  12.141 -48.142  0.00  0.00    +0.023 A 
ATOM     25  C   LIG    1      -37.350  12.577 -47.121  0.00  0.00    +0.006 A 
BRANCH  23  26
ATOM     26  N   LIG    1      -36.114  11.312 -50.354  0.00  0.00    -0.336 N 
ATOM     27  C   LIG    1      -34.728  11.748 -50.399  0.00  0.00    +0.129 C 
ATOM     28  C   LIG    1      -36.451  10.226 -51.282  0.00  0.00    +0.129 C 
ENDBRANCH  23  26
ENDBRANCH  17  20
BRANCH  13  29
ATOM     29  C   LIG    1      -38.321  15.784 -49.221  0.00  0.00    -0.067 C 
ATOM     30  C   LIG    1      -37.222  15.557 -49.615  0.00  0.00    -0.103 C 
ATOM     31  C   LIG    1      -35.887  15.280 -50.092  0.00  0.00    +0.106 C 
ENDBRANCH  13  29
BRANCH  13  32
ATOM     32  O   LIG    1      -40.355  15.066 -48.702  0.00  0.00    -0.376 OA
ATOM     33  H   LIG    1      -40.952  14.863 -47.961  0.00  0.00    +0.211 HD
ENDBRANCH  13  32
TORSDOF 4
ENDMDL
MODEL 4
REMARK VINA RESULT:      -7.5      3.931      8.253
REMARK  Name = 
REMARK                            x       y       z     vdW  Elec       q    Type
REMARK                         _______ _______ _______ _____ _____    ______ ____
ROOT
ATOM      1  O   LIG    1      -39.944  16.746 -43.525  0.00  0.00    -0.293 OA
ATOM      2  C   LIG    1      -40.693  15.774 -43.588  0.00  0.00    +0.157 C 
ATOM      3  C   LIG    1      -41.474  15.238 -42.398  0.00  0.00    +0.083 C 
ATOM      4  C   LIG    1      -41.853  13.751 -42.613  0.00  0.00    +0.043 C 
ATOM      5  C   LIG    1      -42.576  13.582 -43.934  0.00  0.00    -0.044 C 
ATOM      6  C   LIG    1      -43.540  12.680 -44.268  0.00  0.00    -0.055 C 
ATOM      7  C   LIG    1      -44.253  12.906 -45.640  0.00  0.00    +0.020 C 
ATOM      8  C   LIG    1      -43.721  13.986 -46.600  0.00  0.00    +0.013 C 
ATOM      9  C   LIG    1      -43.187  15.155 -45.812  0.00  0.00    +0.036 C 
ATOM     10  C   LIG    1      -44.723  11.670 -46.523  0.00  0.00    +0.006 C 
ATOM     11  C   LIG    1      -45.509  11.337 -47.797  0.00  0.00    +0.008 C 
ATOM     12  C   LIG    1      -46.868  10.834 -47.140  0.00  0.00    +0.049 C 
ATOM     13  C   LIG    1      -46.542  10.664 -45.569  0.00  0.00    +0.132 C 
ATOM     14  C   LIG    1      -44.995  10.369 -45.670  0.00  0.00    +0.012 C 
ATOM     15  C   LIG    1      -44.787   8.980 -46.375  0.00  0.00    +0.015 C 
ATOM     16  C   LIG    1      -43.759  10.359 -44.712  0.00  0.00    +0.023 C 
ATOM     17  C   LIG    1      -43.772  11.326 -43.537  0.00  0.00    +0.046 C 
ATOM     18  C   LIG    1      -42.145  14.596 -44.905  0.00  0.00    -0.041 C 
ATOM     19  C   LIG    1      -40.892  15.087 -44.910  0.00  0.00    +0.050 C 
ENDROOT
BRANCH  17  20
ATOM     20  C   LIG    1      -44.889  10.837 -42.585  0.00  0.00    -0.040 A 
ATOM     21  C   LIG    1      -45.166   9.532 -42.195  0.00  0.00    +0.006 A 
ATOM     22  C   LIG    1      -46.277   9.241 -41.328  0.00  0.00    +0.023 A 
ATOM     23  C   LIG    1      -47.152  10.223 -40.812  0.00  0.00    +0.029 A 
ATOM     24  C   LIG    1      -46.919  11.500 -41.283  0.00  0.00    +0.023 A 
ATOM     25  C   LIG    1      -45.857  11.782 -42.146  0.00  0.00    +0.006 A 
BRANCH  23  26
ATOM     26  N   LIG    1      -48.209   9.991 -39.946  0.00  0.00    -0.336 N 
ATOM     27  C   LIG    1      -48.064   9.215 -38.726  0.00  0.00    +0.129 C 
ATOM     28  C   LIG    1      -49.483  10.709 -40.074  0.00  0.00    +0.129 C 
ENDBRANCH  23  26
ENDBRANCH  17  20
BRANCH  13  29
ATOM     29  C   LIG    1      -47.571   9.854 -44.942  0.00  0.00    -0.067 C 
ATOM     30  C   LIG    1      -47.990   8.844 -44.474  0.00  0.00    -0.103 C 
ATOM     31  C   LIG    1      -48.499   7.618 -43.905  0.00  0.00    +0.106 C 
ENDBRANCH  13  29
BRANCH  13  32
ATOM     32  O   LIG    1      -46.796  11.933 -44.929  0.00  0.00    -0.376 OA
ATOM     33  H   LIG    1      -46.790  11.768 -43.970  0.00  0.00    +0.211 HD
ENDBRANCH  13  32
TORSDOF 4
ENDMDL
MODEL 5
REMARK VINA RESULT:      -7.3      4.821      7.461
REMARK  Name = 
REMARK                            x       y       z     vdW  Elec       q    Type
REMARK                         _______ _______ _______ _____ _____    ______ ____
ROOT
ATOM      1  O   LIG    1      -36.206   7.410 -44.187  0.00  0.00    -0.293 OA
ATOM      2  C   LIG    1      -36.691   8.376 -44.771  0.00  0.00    +0.157 C 
ATOM      3  C   LIG    1      -37.316   9.563 -44.054  0.00  0.00    +0.083 C 
ATOM      4  C   LIG    1      -38.308  10.307 -44.983  0.00  0.00    +0.043 C 
ATOM      5  C   LIG    1      -37.626  10.680 -46.284  0.00  0.00    -0.044 C 
ATOM      6  C   LIG    1      -37.859  11.753 -47.090  0.00  0.00    -0.055 C 
ATOM      7  C   LIG    1      -36.833  11.984 -48.246  0.00  0.00    +0.020 C 
ATOM      8  C   LIG    1      -35.756  10.919 -48.526  0.00  0.00    +0.013 C 
ATOM      9  C   LIG    1      -35.321  10.277 -47.232  0.00  0.00    +0.036 C 
ATOM     10  C   LIG    1      -37.308  12.562 -49.649  0.00  0.00    +0.006 C 
ATOM     11  C   LIG    1      -36.756  13.056 -50.992  0.00  0.00    +0.008 C 
ATOM     12  C   LIG    1      -36.910  14.624 -50.776  0.00  0.00    +0.049 C 
ATOM     13  C   LIG    1      -37.820  14.783 -49.453  0.00  0.00    +0.132 C 
ATOM     14  C   LIG    1      -38.625  13.428 -49.545  0.00  0.00    +0.012 C 
ATOM     15  C   LIG    1      -39.564  13.478 -50.804  0.00  0.00    +0.015 C 
ATOM     16  C   LIG    1      -39.506  12.546 -48.602  0.00  0.00    +0.023 C 
ATOM     17  C   LIG    1      -39.184  12.566 -47.116  0.00  0.00    +0.046 C 
ATOM     18  C   LIG    1      -36.559   9.726 -46.613  0.00  0.00    -0.041 C 
ATOM     19  C   LIG    1      -36.640   8.427 -46.272  0.00  0.00    +0.050 C 
ENDROOT
BRANCH  17  20
ATOM     20  C   LIG    1      -39.543  13.985 -46.614  0.00  0.00    -0.040 A 
ATOM     21  C   LIG    1      -38.822  14.787 -45.737  0.00  0.00    +0.006 A 
ATOM     22  C   LIG    1      -39.320  16.076 -45.337  0.00  0.00    +0.023 A 
ATOM     23  C   LIG    1      -40.544  16.623 -45.785  0.00  0.00    +0.029 A 
ATOM     24  C   LIG    1      -41.291  15.774 -46.580  0.00  0.00    +0.023 A 
ATOM     25  C   LIG    1      -40.822  14.512 -46.950  0.00  0.00    +0.006 A 
BRANCH  23  26
ATOM     26  N   LIG    1      -41.043  17.873 -45.453  0.00  0.00    -0.336 N 
ATOM     27  C   LIG    1      -40.314  18.806 -44.612  0.00  0.00    +0.129 C 
ATOM     28  C   LIG    1      -42.224  18.434 -46.120  0.00  0.00    +0.129 C 
ENDBRANCH  23  26
ENDBRANCH  17  20
BRANCH  13  29
ATOM     29  C   LIG    1      -38.345  16.135 -49.381  0.00  0.00    -0.067 C 
ATOM     30  C   LIG    1      -38.475  17.198 -48.864  0.00  0.00    -0.103 C 
ATOM     31  C   LIG    1      -38.633  18.489 -48.235  0.00  0.00    +0.106 C 
ENDBRANCH  13  29
BRANCH  13  32
ATOM     32  O   LIG    1      -36.937  14.795 -48.312  0.00  0.00    -0.376 OA
ATOM     33  H   LIG    1      -36.029  14.770 -48.661  0.00  0.00    +0.211 HD
ENDBRANCH  13  32
TORSDOF 4
ENDMDL
MODEL 6
REMARK VINA RESULT:      -7.1      3.342      6.661
REMARK  Name = 
REMARK                            x       y       z     vdW  Elec       q    Type
REMARK                         _______ _______ _______ _____ _____    ______ ____
ROOT
ATOM      1  O   LIG    1      -50.806   7.730 -51.204  0.00  0.00    -0.293 OA
ATOM      2  C   LIG    1      -49.968   7.954 -50.334  0.00  0.00    +0.157 C 
ATOM      3  C   LIG    1      -49.113   9.211 -50.298  0.00  0.00    +0.083 C 
ATOM      4  C   LIG    1      -47.818   8.973 -49.480  0.00  0.00    +0.043 C 
ATOM      5  C   LIG    1      -48.161   8.437 -48.104  0.00  0.00    -0.044 C 
ATOM      6  C   LIG    1      -47.496   8.619 -46.930  0.00  0.00    -0.055 C 
ATOM      7  C   LIG    1      -48.226   8.126 -45.639  0.00  0.00    +0.020 C 
ATOM      8  C   LIG    1      -49.530   7.317 -45.769  0.00  0.00    +0.013 C 
ATOM      9  C   LIG    1      -50.319   7.805 -46.957  0.00  0.00    +0.036 C 
ATOM     10  C   LIG    1      -47.402   7.513 -44.425  0.00  0.00    +0.006 C 
ATOM     11  C   LIG    1      -47.579   7.017 -42.984  0.00  0.00    +0.008 C 
ATOM     12  C   LIG    1      -46.977   8.265 -42.203  0.00  0.00    +0.049 C 
ATOM     13  C   LIG    1      -46.258   9.166 -43.333  0.00  0.00    +0.132 C 
ATOM     14  C   LIG    1      -45.910   8.027 -44.370  0.00  0.00    +0.012 C 
ATOM     15  C   LIG    1      -44.835   7.073 -43.734  0.00  0.00    +0.015 C 
ATOM     16  C   LIG    1      -45.488   7.927 -45.872  0.00  0.00    +0.023 C 
ATOM     17  C   LIG    1      -45.993   9.005 -46.818  0.00  0.00    +0.046 C 
ATOM     18  C   LIG    1      -49.414   7.672 -48.133  0.00  0.00    -0.041 C 
ATOM     19  C   LIG    1      -49.790   6.966 -49.215  0.00  0.00    +0.050 C 
ENDROOT
BRANCH  17  20
ATOM     20  C   LIG    1      -45.285  10.316 -46.399  0.00  0.00    -0.040 A 
ATOM     21  C   LIG    1      -45.809  11.603 -46.394  0.00  0.00    +0.006 A 
ATOM     22  C   LIG    1      -44.997  12.728 -46.011  0.00  0.00    +0.023 A 
ATOM     23  C   LIG    1      -43.643  12.627 -45.620  0.00  0.00    +0.029 A 
ATOM     24  C   LIG    1      -43.114  11.355 -45.721  0.00  0.00    +0.023 A 
ATOM     25  C   LIG    1      -43.892  10.265 -46.116  0.00  0.00    +0.006 A 
BRANCH  23  26
ATOM     26  N   LIG    1      -42.838  13.678 -45.210  0.00  0.00    -0.336 N 
ATOM     27  C   LIG    1      -41.608  13.474 -44.462  0.00  0.00    +0.129 C 
ATOM     28  C   LIG    1      -43.040  15.044 -45.707  0.00  0.00    +0.129 C 
ENDBRANCH  23  26
ENDBRANCH  17  20
BRANCH  13  29
ATOM     29  C   LIG    1      -45.355  10.111 -42.701  0.00  0.00    -0.067 C 
ATOM     30  C   LIG    1      -44.942  11.207 -42.488  0.00  0.00    -0.103 C 
ATOM     31  C   LIG    1      -44.442  12.536 -42.228  0.00  0.00    +0.106 C 
ENDBRANCH  13  29
BRANCH  13  32
ATOM     32  O   LIG    1      -47.245  10.076 -43.862  0.00  0.00    -0.376 OA
ATOM     33  H   LIG    1      -48.096   9.605 -43.848  0.00  0.00    +0.211 HD
ENDBRANCH  13  32
TORSDOF 4
ENDMDL
MODEL 7
REMARK VINA RESULT:      -7.1      3.048      5.725
REMARK  Name = 
REMARK                            x       y       z     vdW  Elec       q    Type
REMARK                         _______ _______ _______ _____ _____    ______ ____
ROOT
ATOM      1  O   LIG    1      -45.190   9.660 -42.498  0.00  0.00    -0.293 OA
ATOM      2  C   LIG    1      -44.541  10.481 -43.143  0.00  0.00    +0.157 C 
ATOM      3  C   LIG    1      -44.440  11.952 -42.767  0.00  0.00    +0.083 C 
ATOM      4  C   LIG    1      -44.067  12.811 -44.001  0.00  0.00    +0.043 C 
ATOM      5  C   LIG    1      -42.812  12.269 -44.655  0.00  0.00    -0.044 C 
ATOM      6  C   LIG    1      -41.843  12.946 -45.331  0.00  0.00    -0.055 C 
ATOM      7  C   LIG    1      -40.555  12.136 -45.690  0.00  0.00    +0.020 C 
ATOM      8  C   LIG    1      -40.524  10.616 -45.441  0.00  0.00    +0.013 C 
ATOM      9  C   LIG    1      -41.319  10.283 -44.204  0.00  0.00    +0.036 C 
ATOM     10  C   LIG    1      -39.775  12.415 -47.047  0.00  0.00    +0.006 C 
ATOM     11  C   LIG    1      -38.493  12.026 -47.794  0.00  0.00    +0.008 C 
ATOM     12  C   LIG    1      -37.630  13.335 -47.530  0.00  0.00    +0.049 C 
ATOM     13  C   LIG    1      -38.668  14.413 -46.925  0.00  0.00    +0.132 C 
ATOM     14  C   LIG    1      -39.994  13.879 -47.596  0.00  0.00    +0.012 C 
ATOM     15  C   LIG    1      -39.900  14.095 -49.150  0.00  0.00    +0.015 C 
ATOM     16  C   LIG    1      -41.535  14.058 -47.404  0.00  0.00    +0.023 C 
ATOM     17  C   LIG    1      -42.041  14.338 -45.997  0.00  0.00    +0.046 C 
ATOM     18  C   LIG    1      -42.688  10.821 -44.440  0.00  0.00    -0.041 C 
ATOM     19  C   LIG    1      -43.767  10.023 -44.347  0.00  0.00    +0.050 C 
ENDROOT
BRANCH  17  20
ATOM     20  C   LIG    1      -41.530  15.751 -45.625  0.00  0.00    -0.040 A 
ATOM     21  C   LIG    1      -40.895  16.146 -44.454  0.00  0.00    +0.006 A 
ATOM     22  C   LIG    1      -40.519  17.520 -44.248  0.00  0.00    +0.023 A 
ATOM     23  C   LIG    1      -40.751  18.551 -45.186  0.00  0.00    +0.029 A 
ATOM     24  C   LIG    1      -41.464  18.158 -46.301  0.00  0.00    +0.023 A 
ATOM     25  C   LIG    1      -41.855  16.831 -46.493  0.00  0.00    +0.006 A 
BRANCH  23  26
ATOM     26  N   LIG    1      -40.372  19.877 -45.043  0.00  0.00    -0.336 N 
ATOM     27  C   LIG    1      -39.233  20.444 -45.745  0.00  0.00    +0.129 C 
ATOM     28  C   LIG    1      -41.230  20.856 -44.365  0.00  0.00    +0.129 C 
ENDBRANCH  23  26
ENDBRANCH  17  20
BRANCH  13  29
ATOM     29  C   LIG    1      -38.094  15.744 -47.007  0.00  0.00    -0.067 C 
ATOM     30  C   LIG    1      -38.001  16.834 -47.474  0.00  0.00    -0.103 C 
ATOM     31  C   LIG    1      -37.889  18.158 -48.040  0.00  0.00    +0.106 C 
ENDBRANCH  13  29
BRANCH  13  32
ATOM     32  O   LIG    1      -38.696  14.239 -45.492  0.00  0.00    -0.376 OA
ATOM     33  H   LIG    1      -39.593  13.939 -45.265  0.00  0.00    +0.211 HD
ENDBRANCH  13  32
TORSDOF 4
ENDMDL
MODEL 8
REMARK VINA RESULT:      -6.9      2.629      5.122
REMARK  Name = 
REMARK                            x       y       z     vdW  Elec       q    Type
REMARK                         _______ _______ _______ _____ _____    ______ ____
ROOT
ATOM      1  O   LIG    1      -47.763  10.298 -43.170  0.00  0.00    -0.293 OA
ATOM      2  C   LIG    1      -46.809  10.895 -43.663  0.00  0.00    +0.157 C 
ATOM      3  C   LIG    1      -46.487  12.352 -43.366  0.00  0.00    +0.083 C 
ATOM      4  C   LIG    1      -45.634  12.970 -44.502  0.00  0.00    +0.043 C 
ATOM      5  C   LIG    1      -44.405  12.121 -44.754  0.00  0.00    -0.044 C 
ATOM      6  C   LIG    1      -43.172  12.512 -45.180  0.00  0.00    -0.055 C 
ATOM      7  C   LIG    1      -42.045  11.431 -45.124  0.00  0.00    +0.020 C 
ATOM      8  C   LIG    1      -42.411   9.974 -44.781  0.00  0.00    +0.013 C 
ATOM      9  C   LIG    1      -43.547   9.951 -43.790  0.00  0.00    +0.036 C 
ATOM     10  C   LIG    1      -40.904  11.390 -46.230  0.00  0.00    +0.006 C 
ATOM     11  C   LIG    1      -39.592  10.674 -46.574  0.00  0.00    +0.008 C 
ATOM     12  C   LIG    1      -38.560  11.813 -46.165  0.00  0.00    +0.049 C 
ATOM     13  C   LIG    1      -39.456  13.135 -45.936  0.00  0.00    +0.132 C 
ATOM     14  C   LIG    1      -40.651  12.794 -46.908  0.00  0.00    +0.012 C 
ATOM     15  C   LIG    1      -40.121  12.801 -48.388  0.00  0.00    +0.015 C 
ATOM     16  C   LIG    1      -42.113  13.290 -47.156  0.00  0.00    +0.023 C 
ATOM     17  C   LIG    1      -42.885  13.827 -45.961  0.00  0.00    +0.046 C 
ATOM     18  C   LIG    1      -44.659  10.713 -44.423  0.00  0.00    -0.041 C 
ATOM     19  C   LIG    1      -45.875  10.156 -44.579  0.00  0.00    +0.050 C 
ENDROOT
BRANCH  17  20
ATOM     20  C   LIG    1      -42.189  15.148 -45.553  0.00  0.00    -0.040 A 
ATOM     21  C   LIG    1      -41.666  15.487 -44.311  0.00  0.00    +0.006 A 
ATOM     22  C   LIG    1      -41.084  16.783 -44.085  0.00  0.00    +0.023 A 
ATOM     23  C   LIG    1      -40.995  17.791 -45.072  0.00  0.00    +0.029 A 
ATOM     24  C   LIG    1      -41.603  17.471 -46.270  0.00  0.00    +0.023 A 
ATOM     25  C   LIG    1      -42.192  16.223 -46.485  0.00  0.00    +0.006 A 
BRANCH  23  26
ATOM     26  N   LIG    1      -40.411  19.037 -44.907  0.00  0.00    -0.336 N 
ATOM     27  C   LIG    1      -39.041  19.316 -45.304  0.00  0.00    +0.129 C 
ATOM     28  C   LIG    1      -41.203  20.219 -44.546  0.00  0.00    +0.129 C 
ENDBRANCH  23  26
ENDBRANCH  17  20
BRANCH  13  29
ATOM     29  C   LIG    1      -38.602  14.310 -45.941  0.00  0.00    -0.067 C 
ATOM     30  C   LIG    1      -38.204  15.333 -46.401  0.00  0.00    -0.103 C 
ATOM     31  C   LIG    1      -37.722  16.574 -46.959  0.00  0.00    +0.106 C 
ENDBRANCH  13  29
BRANCH  13  32
ATOM     32  O   LIG    1      -39.883  13.141 -44.557  0.00  0.00    -0.376 OA
ATOM     33  H   LIG    1      -39.789  14.055 -44.239  0.00  0.00    +0.211 HD
ENDBRANCH  13  32
TORSDOF 4
ENDMDL
MODEL 9
REMARK VINA RESULT:      -6.6      3.326      6.218
REMARK  Name = 
REMARK                            x       y       z     vdW  Elec       q    Type
REMARK                         _______ _______ _______ _____ _____    ______ ____
ROOT
ATOM      1  O   LIG    1      -44.062  11.348 -42.661  0.00  0.00    -0.293 OA
ATOM      2  C   LIG    1      -43.365  11.847 -43.541  0.00  0.00    +0.157 C 
ATOM      3  C   LIG    1      -42.925  13.303 -43.537  0.00  0.00    +0.083 C 
ATOM      4  C   LIG    1      -42.572  13.775 -44.970  0.00  0.00    +0.043 C 
ATOM      5  C   LIG    1      -41.555  12.840 -45.592  0.00  0.00    -0.044 C 
ATOM      6  C   LIG    1      -40.579  13.124 -46.499  0.00  0.00    -0.055 C 
ATOM      7  C   LIG    1      -39.541  11.989 -46.776  0.00  0.00    +0.020 C 
ATOM      8  C   LIG    1      -39.772  10.590 -46.177  0.00  0.00    +0.013 C 
ATOM      9  C   LIG    1      -40.431  10.713 -44.826  0.00  0.00    +0.036 C 
ATOM     10  C   LIG    1      -38.924  11.792 -48.228  0.00  0.00    +0.006 C 
ATOM     11  C   LIG    1      -37.864  10.977 -48.980  0.00  0.00    +0.008 C 
ATOM     12  C   LIG    1      -36.733  12.086 -49.118  0.00  0.00    +0.049 C 
ATOM     13  C   LIG    1      -37.442  13.471 -48.692  0.00  0.00    +0.132 C 
ATOM     14  C   LIG    1      -38.929  13.117 -49.087  0.00  0.00    +0.012 C 
ATOM     15  C   LIG    1      -39.019  12.971 -50.649  0.00  0.00    +0.015 C 
ATOM     16  C   LIG    1      -40.361  13.673 -48.797  0.00  0.00    +0.023 C 
ATOM     17  C   LIG    1      -40.595  14.351 -47.456  0.00  0.00    +0.046 C 
ATOM     18  C   LIG    1      -41.688  11.481 -45.052  0.00  0.00    -0.041 C 
ATOM     19  C   LIG    1      -42.877  10.983 -44.669  0.00  0.00    +0.050 C 
ENDROOT
BRANCH  17  20
ATOM     20  C   LIG    1      -39.770  15.659 -47.482  0.00  0.00    -0.040 A 
ATOM     21  C   LIG    1      -39.078  16.252 -46.432  0.00  0.00    +0.006 A 
ATOM     22  C   LIG    1      -38.390  17.502 -46.615  0.00  0.00    +0.023 A 
ATOM     23  C   LIG    1      -38.355  18.212 -47.836  0.00  0.00    +0.029 A 
ATOM     24  C   LIG    1      -39.124  17.657 -48.841  0.00  0.00    +0.023 A 
ATOM     25  C   LIG    1      -39.815  16.457 -48.659  0.00  0.00    +0.006 A 
BRANCH  23  26
ATOM     26  N   LIG    1      -37.675  19.398 -48.065  0.00  0.00    -0.336 N 
ATOM     27  C   LIG    1      -37.246  19.810 -49.391  0.00  0.00    +0.129 C 
ATOM     28  C   LIG    1      -37.552  20.430 -47.027  0.00  0.00    +0.129 C 
ENDBRANCH  23  26
ENDBRANCH  17  20
BRANCH  13  29
ATOM     29  C   LIG    1      -36.636  14.591 -49.143  0.00  0.00    -0.067 C 
ATOM     30  C   LIG    1      -36.384  15.491 -49.880  0.00  0.00    -0.103 C 
ATOM     31  C   LIG    1      -36.078  16.582 -50.775  0.00  0.00    +0.106 C 
ENDBRANCH  13  29
BRANCH  13  32
ATOM     32  O   LIG    1      -37.297  13.617 -47.263  0.00  0.00    -0.376 OA
ATOM     33  H   LIG    1      -36.396  13.947 -47.106  0.00  0.00    +0.211 HD
ENDBRANCH  13  32
TORSDOF 4
ENDMDL
