MODEL 1
REMARK VINA RESULT:       3.8      0.000      0.000
REMARK  Name = 
REMARK                            x       y       z     vdW  Elec       q    Type
REMARK                         _______ _______ _______ _____ _____    ______ ____
ROOT
ATOM      1  O   LIG    1       25.070 -20.810 -13.433  0.00  0.00    -0.293 OA
ATOM      2  C   LIG    1       25.094 -21.916 -12.898  0.00  0.00    +0.157 C 
ATOM      3  C   LIG    1       23.919 -22.882 -12.917  0.00  0.00    +0.083 C 
ATOM      4  C   LIG    1       24.015 -23.888 -11.742  0.00  0.00    +0.043 C 
ATOM      5  C   LIG    1       25.363 -24.579 -11.755  0.00  0.00    -0.044 C 
ATOM      6  C   LIG    1       25.679 -25.840 -11.347  0.00  0.00    -0.055 C 
ATOM      7  C   LIG    1       27.116 -26.342 -11.701  0.00  0.00    +0.020 C 
ATOM      8  C   LIG    1       28.135 -25.357 -12.304  0.00  0.00    +0.013 C 
ATOM      9  C   LIG    1       27.426 -24.370 -13.196  0.00  0.00    +0.036 C 
ATOM     10  C   LIG    1       27.906 -27.301 -10.709  0.00  0.00    +0.006 C 
ATOM     11  C   LIG    1       29.197 -28.124 -10.611  0.00  0.00    +0.008 C 
ATOM     12  C   LIG    1       28.598 -29.577 -10.853  0.00  0.00    +0.049 C 
ATOM     13  C   LIG    1       26.997 -29.399 -10.746  0.00  0.00    +0.132 C 
ATOM     14  C   LIG    1       26.953 -28.151  -9.780  0.00  0.00    +0.012 C 
ATOM     15  C   LIG    1       27.502 -28.579  -8.371  0.00  0.00    +0.015 C 
ATOM     16  C   LIG    1       25.909 -27.076  -9.335  0.00  0.00    +0.023 C 
ATOM     17  C   LIG    1       24.839 -26.676 -10.339  0.00  0.00    +0.046 C 
ATOM     18  C   LIG    1       26.394 -23.714 -12.345  0.00  0.00    -0.041 C 
ATOM     19  C   LIG    1       26.353 -22.375 -12.219  0.00  0.00    +0.050 C 
ENDROOT
BRANCH  17  20
ATOM     20  C   LIG    1       23.929 -27.914 -10.520  0.00  0.00    -0.040 A 
ATOM     21  C   LIG    1       23.328 -28.682  -9.530  0.00  0.00    +0.006 A 
ATOM     22  C   LIG    1       22.539 -29.837  -9.869  0.00  0.00    +0.023 A 
ATOM     23  C   LIG    1       22.311 -30.275 -11.193  0.00  0.00    +0.029 A 
ATOM     24  C   LIG    1       22.991 -29.556 -12.157  0.00  0.00    +0.023 A 
ATOM     25  C   LIG    1       23.779 -28.451 -11.829  0.00  0.00    +0.006 A 
BRANCH  23  26
ATOM     26  N   LIG    1       21.529 -31.357 -11.565  0.00  0.00    -0.336 N 
ATOM     27  C   LIG    1       20.600 -31.303 -12.682  0.00  0.00    +0.129 C 
ATOM     28  C   LIG    1       21.757 -32.699 -11.015  0.00  0.00    +0.129 C 
ENDBRANCH  23  26
ENDBRANCH  17  20
BRANCH  13  29
ATOM     29  C   LIG    1       26.373 -30.697 -10.564  0.00  0.00    -0.067 C 
ATOM     30  C   LIG    1       25.643 -31.458 -10.012  0.00  0.00    -0.103 C 
ATOM     31  C   LIG    1       24.756 -32.380  -9.342  0.00  0.00    +0.106 C 
ENDBRANCH  13  29
BRANCH  13  32
ATOM     32  O   LIG    1       26.505 -29.065 -12.061  0.00  0.00    -0.376 OA
ATOM     33  H   LIG    1       27.280 -29.015 -12.646  0.00  0.00    +0.211 HD
ENDBRANCH  13  32
TORSDOF 4
ENDMDL
MODEL 2
REMARK VINA RESULT:       4.3      2.153      4.917
REMARK  Name = 
REMARK                            x       y       z     vdW  Elec       q    Type
REMARK                         _______ _______ _______ _____ _____    ______ ____
ROOT
ATOM      1  O   LIG    1       25.029 -20.420 -13.062  0.00  0.00    -0.293 OA
ATOM      2  C   LIG    1       25.190 -21.624 -12.877  0.00  0.00    +0.157 C 
ATOM      3  C   LIG    1       26.399 -22.209 -12.163  0.00  0.00    +0.083 C 
ATOM      4  C   LIG    1       26.612 -23.690 -12.566  0.00  0.00    +0.043 C 
ATOM      5  C   LIG    1       25.339 -24.481 -12.343  0.00  0.00    -0.044 C 
ATOM      6  C   LIG    1       25.200 -25.793 -12.006  0.00  0.00    -0.055 C 
ATOM      7  C   LIG    1       23.758 -26.260 -11.623  0.00  0.00    +0.020 C 
ATOM      8  C   LIG    1       22.573 -25.295 -11.821  0.00  0.00    +0.013 C 
ATOM      9  C   LIG    1       23.017 -23.879 -11.557  0.00  0.00    +0.036 C 
ATOM     10  C   LIG    1       23.253 -27.721 -11.995  0.00  0.00    +0.006 C 
ATOM     11  C   LIG    1       22.068 -28.670 -11.780  0.00  0.00    +0.008 C 
ATOM     12  C   LIG    1       22.702 -29.634 -10.685  0.00  0.00    +0.049 C 
ATOM     13  C   LIG    1       24.275 -29.273 -10.662  0.00  0.00    +0.132 C 
ATOM     14  C   LIG    1       24.431 -28.761 -12.148  0.00  0.00    +0.012 C 
ATOM     15  C   LIG    1       24.211 -29.970 -13.127  0.00  0.00    +0.015 C 
ATOM     16  C   LIG    1       25.468 -27.940 -12.980  0.00  0.00    +0.023 C 
ATOM     17  C   LIG    1       26.282 -26.885 -12.247  0.00  0.00    +0.046 C 
ATOM     18  C   LIG    1       24.154 -23.625 -12.485  0.00  0.00    -0.041 C 
ATOM     19  C   LIG    1       24.129 -22.584 -13.337  0.00  0.00    +0.050 C 
ENDROOT
BRANCH  17  20
ATOM     20  C   LIG    1       27.217 -27.652 -11.281  0.00  0.00    -0.040 A 
ATOM     21  C   LIG    1       27.811 -28.893 -11.476  0.00  0.00    +0.006 A 
ATOM     22  C   LIG    1       28.628 -29.489 -10.452  0.00  0.00    +0.023 A 
ATOM     23  C   LIG    1       28.891 -28.884  -9.202  0.00  0.00    +0.029 A 
ATOM     24  C   LIG    1       28.218 -27.696  -8.990  0.00  0.00    +0.023 A 
ATOM     25  C   LIG    1       27.404 -27.128  -9.972  0.00  0.00    +0.006 A 
BRANCH  23  26
ATOM     26  N   LIG    1       29.700 -29.406  -8.204  0.00  0.00    -0.336 N 
ATOM     27  C   LIG    1       30.846 -30.251  -8.491  0.00  0.00    +0.129 C 
ATOM     28  C   LIG    1       29.601 -28.947  -6.813  0.00  0.00    +0.129 C 
ENDBRANCH  23  26
ENDBRANCH  17  20
BRANCH  13  29
ATOM     29  C   LIG    1       25.009 -30.334  -9.997  0.00  0.00    -0.067 C 
ATOM     30  C   LIG    1       25.588 -31.373  -9.974  0.00  0.00    -0.103 C 
ATOM     31  C   LIG    1       26.292 -32.634  -9.946  0.00  0.00    +0.106 C 
ENDBRANCH  13  29
BRANCH  13  32
ATOM     32  O   LIG    1       24.465 -28.202  -9.714  0.00  0.00    -0.376 OA
ATOM     33  H   LIG    1       24.990 -27.519 -10.165  0.00  0.00    +0.211 HD
ENDBRANCH  13  32
TORSDOF 4
ENDMDL
MODEL 3
REMARK VINA RESULT:       6.3      1.840      2.326
REMARK  Name = 
REMARK                            x       y       z     vdW  Elec       q    Type
REMARK                         _______ _______ _______ _____ _____    ______ ____
ROOT
ATOM      1  O   LIG    1       26.414 -21.599 -14.566  0.00  0.00    -0.293 OA
ATOM      2  C   LIG    1       26.163 -22.543 -13.821  0.00  0.00    +0.157 C 
ATOM      3  C   LIG    1       24.784 -22.806 -13.235  0.00  0.00    +0.083 C 
ATOM      4  C   LIG    1       24.887 -23.665 -11.950  0.00  0.00    +0.043 C 
ATOM      5  C   LIG    1       25.673 -24.930 -12.228  0.00  0.00    -0.044 C 
ATOM      6  C   LIG    1       25.541 -26.158 -11.656  0.00  0.00    -0.055 C 
ATOM      7  C   LIG    1       26.348 -27.321 -12.320  0.00  0.00    +0.020 C 
ATOM      8  C   LIG    1       27.364 -26.998 -13.432  0.00  0.00    +0.013 C 
ATOM      9  C   LIG    1       26.868 -25.839 -14.258  0.00  0.00    +0.036 C 
ATOM     10  C   LIG    1       26.962 -28.491 -11.436  0.00  0.00    +0.006 C 
ATOM     11  C   LIG    1       27.688 -29.836 -11.563  0.00  0.00    +0.008 C 
ATOM     12  C   LIG    1       26.476 -30.816 -11.250  0.00  0.00    +0.049 C 
ATOM     13  C   LIG    1       25.299 -29.869 -10.684  0.00  0.00    +0.132 C 
ATOM     14  C   LIG    1       26.185 -28.711 -10.078  0.00  0.00    +0.012 C 
ATOM     15  C   LIG    1       26.999 -29.279  -8.859  0.00  0.00    +0.015 C 
ATOM     16  C   LIG    1       25.983 -27.240  -9.591  0.00  0.00    +0.023 C 
ATOM     17  C   LIG    1       24.894 -26.419 -10.265  0.00  0.00    +0.046 C 
ATOM     18  C   LIG    1       26.652 -24.717 -13.302  0.00  0.00    -0.041 C 
ATOM     19  C   LIG    1       27.251 -23.526 -13.491  0.00  0.00    +0.050 C 
ENDROOT
BRANCH  17  20
ATOM     20  C   LIG    1       23.548 -27.057  -9.848  0.00  0.00    -0.040 A 
ATOM     21  C   LIG    1       23.281 -27.824  -8.720  0.00  0.00    +0.006 A 
ATOM     22  C   LIG    1       21.973 -28.381  -8.501  0.00  0.00    +0.023 A 
ATOM     23  C   LIG    1       20.881 -28.203  -9.380  0.00  0.00    +0.029 A 
ATOM     24  C   LIG    1       21.189 -27.518 -10.540  0.00  0.00    +0.023 A 
ATOM     25  C   LIG    1       22.464 -26.998 -10.769  0.00  0.00    +0.006 A 
BRANCH  23  26
ATOM     26  N   LIG    1       19.598 -28.691  -9.188  0.00  0.00    -0.336 N 
ATOM     27  C   LIG    1       19.308 -29.793  -8.287  0.00  0.00    +0.129 C 
ATOM     28  C   LIG    1       18.418 -27.978  -9.692  0.00  0.00    +0.129 C 
ENDBRANCH  23  26
ENDBRANCH  17  20
BRANCH  13  29
ATOM     29  C   LIG    1       24.300 -30.680 -10.011  0.00  0.00    -0.067 C 
ATOM     30  C   LIG    1       23.292 -31.311  -9.973  0.00  0.00    -0.103 C 
ATOM     31  C   LIG    1       22.069 -32.077  -9.929  0.00  0.00    +0.106 C 
ENDBRANCH  13  29
BRANCH  13  32
ATOM     32  O   LIG    1       24.527 -29.406 -11.812  0.00  0.00    -0.376 OA
ATOM     33  H   LIG    1       24.435 -30.162 -12.417  0.00  0.00    +0.211 HD
ENDBRANCH  13  32
TORSDOF 4
ENDMDL
