MODEL 1
REMARK VINA RESULT:      -0.0      0.000      0.000
REMARK  Name = 
REMARK                            x       y       z     vdW  Elec       q    Type
REMARK                         _______ _______ _______ _____ _____    ______ ____
ROOT
ATOM      1  O   LIG    1       25.061  50.164  12.464  0.00  0.00    -0.293 OA
ATOM      2  C   LIG    1       23.942  50.001  12.946  0.00  0.00    +0.157 C 
ATOM      3  C   LIG    1       22.819  49.266  12.229  0.00  0.00    +0.083 C 
ATOM      4  C   LIG    1       21.438  49.694  12.784  0.00  0.00    +0.043 C 
ATOM      5  C   LIG    1       21.404  49.524  14.290  0.00  0.00    -0.044 C 
ATOM      6  C   LIG    1       20.345  49.220  15.089  0.00  0.00    -0.055 C 
ATOM      7  C   LIG    1       20.676  48.888  16.580  0.00  0.00    +0.020 C 
ATOM      8  C   LIG    1       22.110  49.098  17.101  0.00  0.00    +0.013 C 
ATOM      9  C   LIG    1       23.102  48.791  16.008  0.00  0.00    +0.036 C 
ATOM     10  C   LIG    1       19.678  49.305  17.745  0.00  0.00    +0.006 C 
ATOM     11  C   LIG    1       19.463  49.144  19.255  0.00  0.00    +0.008 C 
ATOM     12  C   LIG    1       18.306  48.052  19.238  0.00  0.00    +0.049 C 
ATOM     13  C   LIG    1       17.816  47.977  17.702  0.00  0.00    +0.132 C 
ATOM     14  C   LIG    1       18.183  49.446  17.256  0.00  0.00    +0.012 C 
ATOM     15  C   LIG    1       17.258  50.458  18.025  0.00  0.00    +0.015 C 
ATOM     16  C   LIG    1       18.364  50.232  15.916  0.00  0.00    +0.023 C 
ATOM     17  C   LIG    1       18.855  49.453  14.705  0.00  0.00    +0.046 C 
ATOM     18  C   LIG    1       22.745  49.681  14.869  0.00  0.00    -0.041 C 
ATOM     19  C   LIG    1       23.657  50.511  14.330  0.00  0.00    +0.050 C 
ENDROOT
BRANCH  17  20
ATOM     20  C   LIG    1       17.715  48.478  14.325  0.00  0.00    -0.040 A 
ATOM     21  C   LIG    1       16.372  48.774  14.128  0.00  0.00    +0.006 A 
ATOM     22  C   LIG    1       15.426  47.735  13.816  0.00  0.00    +0.023 A 
ATOM     23  C   LIG    1       15.768  46.370  13.685  0.00  0.00    +0.029 A 
ATOM     24  C   LIG    1       17.088  46.082  13.976  0.00  0.00    +0.023 A 
ATOM     25  C   LIG    1       18.003  47.085  14.304  0.00  0.00    +0.006 A 
BRANCH  23  26
ATOM     26  N   LIG    1       14.898  45.345  13.350  0.00  0.00    -0.336 N 
ATOM     27  C   LIG    1       13.534  45.590  12.913  0.00  0.00    +0.129 C 
ATOM     28  C   LIG    1       15.362  43.962  13.182  0.00  0.00    +0.129 C 
ENDBRANCH  23  26
ENDBRANCH  17  20
BRANCH  13  29
ATOM     29  C   LIG    1       16.526  47.315  17.634  0.00  0.00    -0.067 C 
ATOM     30  C   LIG    1       15.809  46.412  17.338  0.00  0.00    -0.103 C 
ATOM     31  C   LIG    1       14.939  45.317  16.979  0.00  0.00    +0.106 C 
ENDBRANCH  13  29
BRANCH  13  32
ATOM     32  O   LIG    1       18.637  47.001  17.027  0.00  0.00    -0.376 OA
ATOM     33  H   LIG    1       18.098  46.636  16.304  0.00  0.00    +0.211 HD
ENDBRANCH  13  32
TORSDOF 4
ENDMDL
MODEL 2
REMARK VINA RESULT:       2.2      2.650      7.126
REMARK  Name = 
REMARK                            x       y       z     vdW  Elec       q    Type
REMARK                         _______ _______ _______ _____ _____    ______ ____
ROOT
ATOM      1  O   LIG    1       14.842  51.053  21.869  0.00  0.00    -0.293 OA
ATOM      2  C   LIG    1       15.323  50.688  20.798  0.00  0.00    +0.157 C 
ATOM      3  C   LIG    1       16.645  51.205  20.253  0.00  0.00    +0.083 C 
ATOM      4  C   LIG    1       16.713  51.029  18.715  0.00  0.00    +0.043 C 
ATOM      5  C   LIG    1       16.429  49.588  18.341  0.00  0.00    -0.044 C 
ATOM      6  C   LIG    1       16.910  48.871  17.288  0.00  0.00    -0.055 C 
ATOM      7  C   LIG    1       16.609  47.337  17.302  0.00  0.00    +0.020 C 
ATOM      8  C   LIG    1       15.657  46.762  18.367  0.00  0.00    +0.013 C 
ATOM      9  C   LIG    1       15.812  47.524  19.658  0.00  0.00    +0.036 C 
ATOM     10  C   LIG    1       16.341  46.551  15.946  0.00  0.00    +0.006 C 
ATOM     11  C   LIG    1       16.125  45.132  15.405  0.00  0.00    +0.008 C 
ATOM     12  C   LIG    1       17.561  44.875  14.769  0.00  0.00    +0.049 C 
ATOM     13  C   LIG    1       18.290  46.315  14.772  0.00  0.00    +0.132 C 
ATOM     14  C   LIG    1       17.011  47.238  14.692  0.00  0.00    +0.012 C 
ATOM     15  C   LIG    1       16.321  47.031  13.295  0.00  0.00    +0.015 C 
ATOM     16  C   LIG    1       16.659  48.742  14.932  0.00  0.00    +0.023 C 
ATOM     17  C   LIG    1       17.468  49.495  15.977  0.00  0.00    +0.046 C 
ATOM     18  C   LIG    1       15.544  48.952  19.326  0.00  0.00    -0.041 C 
ATOM     19  C   LIG    1       14.602  49.648  19.988  0.00  0.00    +0.050 C 
ENDROOT
BRANCH  17  20
ATOM     20  C   LIG    1       18.903  49.614  15.412  0.00  0.00    -0.040 A 
ATOM     21  C   LIG    1       20.103  49.402  16.080  0.00  0.00    +0.006 A 
ATOM     22  C   LIG    1       21.363  49.598  15.414  0.00  0.00    +0.023 A 
ATOM     23  C   LIG    1       21.488  50.006  14.066  0.00  0.00    +0.029 A 
ATOM     24  C   LIG    1       20.289  50.301  13.446  0.00  0.00    +0.023 A 
ATOM     25  C   LIG    1       19.065  50.137  14.098  0.00  0.00    +0.006 A 
BRANCH  23  26
ATOM     26  N   LIG    1       22.679  50.169  13.377  0.00  0.00    -0.336 N 
ATOM     27  C   LIG    1       23.976  49.957  13.996  0.00  0.00    +0.129 C 
ATOM     28  C   LIG    1       22.710  50.332  11.918  0.00  0.00    +0.129 C 
ENDBRANCH  23  26
ENDBRANCH  17  20
BRANCH  13  29
ATOM     29  C   LIG    1       19.432  46.285  13.876  0.00  0.00    -0.067 C 
ATOM     30  C   LIG    1       20.564  46.512  13.590  0.00  0.00    -0.103 C 
ATOM     31  C   LIG    1       21.939  46.788  13.243  0.00  0.00    +0.106 C 
ENDBRANCH  13  29
BRANCH  13  32
ATOM     32  O   LIG    1       18.966  46.462  16.038  0.00  0.00    -0.376 OA
ATOM     33  H   LIG    1       19.092  47.416  16.179  0.00  0.00    +0.211 HD
ENDBRANCH  13  32
TORSDOF 4
ENDMDL
