REMARK  Name = 
REMARK                            x       y       z     vdW  Elec       q    Type
REMARK                         _______ _______ _______ _____ _____    ______ ____
ROOT
ATOM      1  O   LIG    1        2.299   1.307  -3.050  0.00  0.00    -0.293 OA
ATOM      2  C   LIG    1        2.748   0.303  -3.598  0.00  0.00    +0.157 C 
ATOM      3  C   LIG    1        4.070   0.278  -4.350  0.00  0.00    +0.083 C 
ATOM      4  C   LIG    1        4.101  -0.887  -5.371  0.00  0.00    +0.043 C 
ATOM      5  C   LIG    1        3.776  -2.196  -4.680  0.00  0.00    -0.044 C 
ATOM      6  C   LIG    1        4.218  -3.449  -4.978  0.00  0.00    -0.055 C 
ATOM      7  C   LIG    1        3.884  -4.566  -3.937  0.00  0.00    +0.020 C 
ATOM      8  C   LIG    1        2.942  -4.247  -2.761  0.00  0.00    +0.013 C 
ATOM      9  C   LIG    1        3.142  -2.820  -2.317  0.00  0.00    +0.036 C 
ATOM     10  C   LIG    1        3.569  -6.050  -4.413  0.00  0.00    +0.006 C 
ATOM     11  C   LIG    1        3.310  -7.457  -3.860  0.00  0.00    +0.008 C 
ATOM     12  C   LIG    1        4.725  -8.119  -4.160  0.00  0.00    +0.049 C 
ATOM     13  C   LIG    1        5.486  -7.074  -5.126  0.00  0.00    +0.132 C 
ATOM     14  C   LIG    1        4.227  -6.405  -5.804  0.00  0.00    +0.012 C 
ATOM     15  C   LIG    1        3.503  -7.475  -6.699  0.00  0.00    +0.015 C 
ATOM     16  C   LIG    1        3.914  -5.119  -6.636  0.00  0.00    +0.023 C 
ATOM     17  C   LIG    1        4.762  -3.885  -6.369  0.00  0.00    +0.046 C 
ATOM     18  C   LIG    1        2.899  -1.978  -3.522  0.00  0.00    -0.041 C 
ATOM     19  C   LIG    1        1.987  -0.989  -3.499  0.00  0.00    +0.050 C 
ENDROOT
BRANCH  17  20
ATOM     20  C   LIG    1        6.187  -4.221  -6.869  0.00  0.00    -0.040 A 
ATOM     21  C   LIG    1        7.389  -3.656  -6.460  0.00  0.00    +0.006 A 
ATOM     22  C   LIG    1        8.634  -4.056  -7.061  0.00  0.00    +0.023 A 
ATOM     23  C   LIG    1        8.741  -5.026  -8.083  0.00  0.00    +0.029 A 
ATOM     24  C   LIG    1        7.530  -5.508  -8.541  0.00  0.00    +0.023 A 
ATOM     25  C   LIG    1        6.318  -5.103  -7.978  0.00  0.00    +0.006 A 
BRANCH  23  26
ATOM     26  N   LIG    1        9.921  -5.466  -8.662  0.00  0.00    -0.336 N 
ATOM     27  C   LIG    1       11.183  -4.766  -8.492  0.00  0.00    +0.129 C 
ATOM     28  C   LIG    1       10.028  -6.792  -9.283  0.00  0.00    +0.129 C 
ENDBRANCH  23  26
ENDBRANCH  17  20
BRANCH  13  29
ATOM     29  C   LIG    1        6.608  -7.733  -5.770  0.00  0.00    -0.067 C 
ATOM     30  C   LIG    1        7.735  -8.112  -5.815  0.00  0.00    -0.103 C 
ATOM     31  C   LIG    1        9.103  -8.572  -5.869  0.00  0.00    +0.106 C 
ENDBRANCH  13  29
BRANCH  13  32
ATOM     32  O   LIG    1        6.193  -6.136  -4.287  0.00  0.00    -0.376 OA
ATOM     33  H   LIG    1        6.800  -5.645  -4.867  0.00  0.00    +0.211 HD
ENDBRANCH  13  32
TORSDOF 4
