MODEL 1
REMARK VINA RESULT:      -6.3      0.000      0.000
REMARK  Name = 
REMARK                            x       y       z     vdW  Elec       q    Type
REMARK                         _______ _______ _______ _____ _____    ______ ____
ROOT
ATOM      1  C   LIG    1       -6.080  -4.656  11.922  0.00  0.00    +0.073 A 
ATOM      2  C   LIG    1       -6.353  -3.861  13.041  0.00  0.00    +0.073 A 
ATOM      3  C   LIG    1       -5.452  -3.864  14.119  0.00  0.00    +0.016 A 
ATOM      4  C   LIG    1       -4.287  -4.632  14.069  0.00  0.00    +0.001 A 
ATOM      5  C   LIG    1       -4.011  -5.408  12.945  0.00  0.00    +0.001 A 
ATOM      6  C   LIG    1       -4.905  -5.426  11.875  0.00  0.00    +0.016 A 
ENDROOT
BRANCH   1   7
ATOM      7  C   LIG    1       -7.037  -4.779  10.808  0.00  0.00    +0.340 C 
ATOM      8  O   LIG    1       -7.970  -5.562  10.790  0.00  0.00    -0.245 OA
BRANCH   7   9
ATOM      9  O   LIG    1       -6.695  -3.883   9.852  0.00  0.00    -0.461 OA
BRANCH   9  11
ATOM     10  C   LIG    1       -8.178  -2.032   9.583  0.00  0.00    +0.048 C 
ATOM     11  C   LIG    1       -7.800  -3.410   9.073  0.00  0.00    +0.229 C 
ENDBRANCH   9  11
ENDBRANCH   7   9
ENDBRANCH   1   7
BRANCH   2  12
ATOM     12  C   LIG    1       -7.543  -2.989  13.167  0.00  0.00    +0.340 C 
ATOM     13  O   LIG    1       -7.535  -1.805  12.872  0.00  0.00    -0.245 OA
BRANCH  12  14
ATOM     14  O   LIG    1       -8.625  -3.722  13.517  0.00  0.00    -0.461 OA
BRANCH  14  15
ATOM     15  C   LIG    1       -9.891  -3.147  13.165  0.00  0.00    +0.229 C 
ATOM     16  C   LIG    1      -10.683  -4.190  12.400  0.00  0.00    +0.048 C 
ENDBRANCH  14  15
ENDBRANCH  12  14
ENDBRANCH   2  12
TORSDOF 6
ENDMDL
MODEL 2
REMARK VINA RESULT:      -6.2      0.060      3.472
REMARK  Name = 
REMARK                            x       y       z     vdW  Elec       q    Type
REMARK                         _______ _______ _______ _____ _____    ______ ____
ROOT
ATOM      1  C   LIG    1       -6.386  -3.888  13.053  0.00  0.00    +0.073 A 
ATOM      2  C   LIG    1       -6.132  -4.668  11.918  0.00  0.00    +0.073 A 
ATOM      3  C   LIG    1       -4.945  -5.415  11.852  0.00  0.00    +0.016 A 
ATOM      4  C   LIG    1       -4.038  -5.402  12.913  0.00  0.00    +0.001 A 
ATOM      5  C   LIG    1       -4.303  -4.639  14.048  0.00  0.00    +0.001 A 
ATOM      6  C   LIG    1       -5.471  -3.879  14.119  0.00  0.00    +0.016 A 
ENDROOT
BRANCH   1   7
ATOM      7  C   LIG    1       -7.558  -2.999  13.134  0.00  0.00    +0.340 C 
ATOM      8  O   LIG    1       -7.535  -1.809  12.875  0.00  0.00    -0.245 OA
BRANCH   7   9
ATOM      9  O   LIG    1       -8.624  -3.735  13.531  0.00  0.00    -0.461 OA
BRANCH   9  11
ATOM     10  C   LIG    1      -10.668  -4.183  12.383  0.00  0.00    +0.048 C 
ATOM     11  C   LIG    1       -9.890  -3.160  13.188  0.00  0.00    +0.229 C 
ENDBRANCH   9  11
ENDBRANCH   7   9
ENDBRANCH   1   7
BRANCH   2  12
ATOM     12  C   LIG    1       -7.053  -4.771  10.762  0.00  0.00    +0.340 C 
ATOM     13  O   LIG    1       -8.004  -5.534  10.735  0.00  0.00    -0.245 OA
BRANCH  12  14
ATOM     14  O   LIG    1       -6.755  -3.825   9.841  0.00  0.00    -0.461 OA
BRANCH  14  15
ATOM     15  C   LIG    1       -7.876  -3.315   9.107  0.00  0.00    +0.229 C 
ATOM     16  C   LIG    1       -8.173  -1.917   9.616  0.00  0.00    +0.048 C 
ENDBRANCH  14  15
ENDBRANCH  12  14
ENDBRANCH   2  12
TORSDOF 6
ENDMDL
MODEL 3
REMARK VINA RESULT:      -6.2      1.309      3.385
REMARK  Name = 
REMARK                            x       y       z     vdW  Elec       q    Type
REMARK                         _______ _______ _______ _____ _____    ______ ____
ROOT
ATOM      1  C   LIG    1       -6.455  -4.140  13.375  0.00  0.00    +0.073 A 
ATOM      2  C   LIG    1       -5.935  -4.819  12.267  0.00  0.00    +0.073 A 
ATOM      3  C   LIG    1       -4.618  -5.304  12.317  0.00  0.00    +0.016 A 
ATOM      4  C   LIG    1       -3.841  -5.132  13.464  0.00  0.00    +0.001 A 
ATOM      5  C   LIG    1       -4.369  -4.470  14.571  0.00  0.00    +0.001 A 
ATOM      6  C   LIG    1       -5.670  -3.970  14.528  0.00  0.00    +0.016 A 
ENDROOT
BRANCH   1   7
ATOM      7  C   LIG    1       -7.789  -3.514  13.343  0.00  0.00    +0.340 C 
ATOM      8  O   LIG    1       -8.823  -4.090  13.629  0.00  0.00    -0.245 OA
BRANCH   7   9
ATOM      9  O   LIG    1       -7.644  -2.224  12.957  0.00  0.00    -0.461 OA
BRANCH   9  11
ATOM     10  C   LIG    1       -8.365  -1.615  10.765  0.00  0.00    +0.048 C 
ATOM     11  C   LIG    1       -8.761  -1.705  12.226  0.00  0.00    +0.229 C 
ENDBRANCH   9  11
ENDBRANCH   7   9
ENDBRANCH   1   7
BRANCH   2  12
ATOM     12  C   LIG    1       -6.696  -5.079  11.023  0.00  0.00    +0.340 C 
ATOM     13  O   LIG    1       -6.578  -4.400  10.016  0.00  0.00    -0.245 OA
BRANCH  12  14
ATOM     14  O   LIG    1       -7.411  -6.222  11.142  0.00  0.00    -0.461 OA
BRANCH  14  15
ATOM     15  C   LIG    1       -7.140  -7.216  10.145  0.00  0.00    +0.229 C 
ATOM     16  C   LIG    1       -6.346  -8.332  10.796  0.00  0.00    +0.048 C 
ENDBRANCH  14  15
ENDBRANCH  12  14
ENDBRANCH   2  12
TORSDOF 6
ENDMDL
MODEL 4
REMARK VINA RESULT:      -6.2      1.308      2.560
REMARK  Name = 
REMARK                            x       y       z     vdW  Elec       q    Type
REMARK                         _______ _______ _______ _____ _____    ______ ____
ROOT
ATOM      1  C   LIG    1       -5.867  -4.797  12.178  0.00  0.00    +0.073 A 
ATOM      2  C   LIG    1       -6.417  -4.088  13.253  0.00  0.00    +0.073 A 
ATOM      3  C   LIG    1       -5.667  -3.941  14.431  0.00  0.00    +0.016 A 
ATOM      4  C   LIG    1       -4.381  -4.475  14.525  0.00  0.00    +0.001 A 
ATOM      5  C   LIG    1       -3.831  -5.165  13.447  0.00  0.00    +0.001 A 
ATOM      6  C   LIG    1       -4.571  -5.331  12.277  0.00  0.00    +0.016 A 
ENDROOT
BRANCH   1   7
ATOM      7  C   LIG    1       -6.645  -5.078  10.958  0.00  0.00    +0.340 C 
ATOM      8  O   LIG    1       -6.629  -4.381   9.959  0.00  0.00    -0.245 OA
BRANCH   7   9
ATOM      9  O   LIG    1       -7.346  -6.220  11.154  0.00  0.00    -0.461 OA
BRANCH   9  11
ATOM     10  C   LIG    1       -6.357  -8.365  10.810  0.00  0.00    +0.048 C 
ATOM     11  C   LIG    1       -7.116  -7.224  10.159  0.00  0.00    +0.229 C 
ENDBRANCH   9  11
ENDBRANCH   7   9
ENDBRANCH   1   7
BRANCH   2  12
ATOM     12  C   LIG    1       -7.757  -3.458  13.230  0.00  0.00    +0.340 C 
ATOM     13  O   LIG    1       -8.774  -4.044  13.562  0.00  0.00    -0.245 OA
BRANCH  12  14
ATOM     14  O   LIG    1       -7.651  -2.144  12.922  0.00  0.00    -0.461 OA
BRANCH  14  15
ATOM     15  C   LIG    1       -8.747  -1.604  12.171  0.00  0.00    +0.229 C 
ATOM     16  C   LIG    1       -8.355  -1.598  10.706  0.00  0.00    +0.048 C 
ENDBRANCH  14  15
ENDBRANCH  12  14
ENDBRANCH   2  12
TORSDOF 6
ENDMDL
MODEL 5
REMARK VINA RESULT:      -6.2      1.526      4.971
REMARK  Name = 
REMARK                            x       y       z     vdW  Elec       q    Type
REMARK                         _______ _______ _______ _____ _____    ______ ____
ROOT
ATOM      1  C   LIG    1       -8.036  -3.316  11.667  0.00  0.00    +0.073 A 
ATOM      2  C   LIG    1       -7.835  -4.249  10.643  0.00  0.00    +0.073 A 
ATOM      3  C   LIG    1       -7.827  -3.809   9.309  0.00  0.00    +0.016 A 
ATOM      4  C   LIG    1       -7.993  -2.457   9.005  0.00  0.00    +0.001 A 
ATOM      5  C   LIG    1       -8.175  -1.530  10.029  0.00  0.00    +0.001 A 
ATOM      6  C   LIG    1       -8.202  -1.955  11.357  0.00  0.00    +0.016 A 
ENDROOT
BRANCH   1   7
ATOM      7  C   LIG    1       -8.164  -3.729  13.076  0.00  0.00    +0.340 C 
ATOM      8  O   LIG    1       -9.202  -4.110  13.587  0.00  0.00    -0.245 OA
BRANCH   7   9
ATOM      9  O   LIG    1       -6.949  -3.613  13.665  0.00  0.00    -0.461 OA
BRANCH   9  11
ATOM     10  C   LIG    1       -5.402  -4.171  15.395  0.00  0.00    +0.048 C 
ATOM     11  C   LIG    1       -6.810  -4.377  14.869  0.00  0.00    +0.229 C 
ENDBRANCH   9  11
ENDBRANCH   7   9
ENDBRANCH   1   7
BRANCH   2  12
ATOM     12  C   LIG    1       -7.615  -5.695  10.873  0.00  0.00    +0.340 C 
ATOM     13  O   LIG    1       -8.525  -6.484  11.070  0.00  0.00    -0.245 OA
BRANCH  12  14
ATOM     14  O   LIG    1       -6.308  -6.002  10.701  0.00  0.00    -0.461 OA
BRANCH  14  15
ATOM     15  C   LIG    1       -5.639  -6.491  11.871  0.00  0.00    +0.229 C 
ATOM     16  C   LIG    1       -4.429  -5.611  12.122  0.00  0.00    +0.048 C 
ENDBRANCH  14  15
ENDBRANCH  12  14
ENDBRANCH   2  12
TORSDOF 6
ENDMDL
MODEL 6
REMARK VINA RESULT:      -6.2      1.648      4.781
REMARK  Name = 
REMARK                            x       y       z     vdW  Elec       q    Type
REMARK                         _______ _______ _______ _____ _____    ______ ____
ROOT
ATOM      1  C   LIG    1       -7.541  -3.386  12.269  0.00  0.00    +0.073 A 
ATOM      2  C   LIG    1       -7.322  -3.977  11.019  0.00  0.00    +0.073 A 
ATOM      3  C   LIG    1       -7.675  -3.272   9.857  0.00  0.00    +0.016 A 
ATOM      4  C   LIG    1       -8.218  -1.989   9.942  0.00  0.00    +0.001 A 
ATOM      5  C   LIG    1       -8.419  -1.398  11.188  0.00  0.00    +0.001 A 
ATOM      6  C   LIG    1       -8.087  -2.094  12.350  0.00  0.00    +0.016 A 
ENDROOT
BRANCH   1   7
ATOM      7  C   LIG    1       -7.293  -4.117  13.525  0.00  0.00    +0.340 C 
ATOM      8  O   LIG    1       -8.040  -4.962  13.985  0.00  0.00    -0.245 OA
BRANCH   7   9
ATOM      9  O   LIG    1       -6.117  -3.687  14.042  0.00  0.00    -0.461 OA
BRANCH   9  11
ATOM     10  C   LIG    1       -3.928  -4.639  14.014  0.00  0.00    +0.048 C 
ATOM     11  C   LIG    1       -5.318  -4.727  14.616  0.00  0.00    +0.229 C 
ENDBRANCH   9  11
ENDBRANCH   7   9
ENDBRANCH   1   7
BRANCH   2  12
ATOM     12  C   LIG    1       -6.718  -5.317  10.832  0.00  0.00    +0.340 C 
ATOM     13  O   LIG    1       -5.549  -5.561  11.081  0.00  0.00    -0.245 OA
BRANCH  12  14
ATOM     14  O   LIG    1       -7.670  -6.214  10.483  0.00  0.00    -0.461 OA
BRANCH  14  15
ATOM     15  C   LIG    1       -7.366  -7.004   9.326  0.00  0.00    +0.229 C 
ATOM     16  C   LIG    1       -8.216  -6.499   8.176  0.00  0.00    +0.048 C 
ENDBRANCH  14  15
ENDBRANCH  12  14
ENDBRANCH   2  12
TORSDOF 6
ENDMDL
MODEL 7
REMARK VINA RESULT:      -6.2      1.531      3.981
REMARK  Name = 
REMARK                            x       y       z     vdW  Elec       q    Type
REMARK                         _______ _______ _______ _____ _____    ______ ____
ROOT
ATOM      1  C   LIG    1       -7.931  -4.217  10.629  0.00  0.00    +0.073 A 
ATOM      2  C   LIG    1       -8.122  -3.307  11.675  0.00  0.00    +0.073 A 
ATOM      3  C   LIG    1       -8.236  -1.938  11.381  0.00  0.00    +0.016 A 
ATOM      4  C   LIG    1       -8.182  -1.490  10.060  0.00  0.00    +0.001 A 
ATOM      5  C   LIG    1       -8.009  -2.401   9.020  0.00  0.00    +0.001 A 
ATOM      6  C   LIG    1       -7.879  -3.761   9.300  0.00  0.00    +0.016 A 
ENDROOT
BRANCH   1   7
ATOM      7  C   LIG    1       -7.696  -5.649  10.882  0.00  0.00    +0.340 C 
ATOM      8  O   LIG    1       -8.567  -6.442  11.193  0.00  0.00    -0.245 OA
BRANCH   7   9
ATOM      9  O   LIG    1       -6.378  -5.903  10.702  0.00  0.00    -0.461 OA
BRANCH   9  11
ATOM     10  C   LIG    1       -4.488  -5.632  12.134  0.00  0.00    +0.048 C 
ATOM     11  C   LIG    1       -5.728  -6.459  11.850  0.00  0.00    +0.229 C 
ENDBRANCH   9  11
ENDBRANCH   7   9
ENDBRANCH   1   7
BRANCH   2  12
ATOM     12  C   LIG    1       -8.227  -3.695  13.101  0.00  0.00    +0.340 C 
ATOM     13  O   LIG    1       -9.259  -4.112  13.603  0.00  0.00    -0.245 OA
BRANCH  12  14
ATOM     14  O   LIG    1       -7.011  -3.642  13.691  0.00  0.00    -0.461 OA
BRANCH  14  15
ATOM     15  C   LIG    1       -6.865  -4.460  14.859  0.00  0.00    +0.229 C 
ATOM     16  C   LIG    1       -5.515  -4.156  15.481  0.00  0.00    +0.048 C 
ENDBRANCH  14  15
ENDBRANCH  12  14
ENDBRANCH   2  12
TORSDOF 6
ENDMDL
MODEL 8
REMARK VINA RESULT:      -6.0      1.525      3.510
REMARK  Name = 
REMARK                            x       y       z     vdW  Elec       q    Type
REMARK                         _______ _______ _______ _____ _____    ______ ____
ROOT
ATOM      1  C   LIG    1       -6.538  -4.723  14.135  0.00  0.00    +0.073 A 
ATOM      2  C   LIG    1       -5.449  -5.129  13.354  0.00  0.00    +0.073 A 
ATOM      3  C   LIG    1       -4.152  -5.031  13.885  0.00  0.00    +0.016 A 
ATOM      4  C   LIG    1       -3.949  -4.555  15.181  0.00  0.00    +0.001 A 
ATOM      5  C   LIG    1       -5.037  -4.168  15.961  0.00  0.00    +0.001 A 
ATOM      6  C   LIG    1       -6.329  -4.246  15.440  0.00  0.00    +0.016 A 
ENDROOT
BRANCH   1   7
ATOM      7  C   LIG    1       -7.909  -4.699  13.596  0.00  0.00    +0.340 C 
ATOM      8  O   LIG    1       -8.477  -5.668  13.124  0.00  0.00    -0.245 OA
BRANCH   7   9
ATOM      9  O   LIG    1       -8.397  -3.442  13.731  0.00  0.00    -0.461 OA
BRANCH   9  11
ATOM     10  C   LIG    1       -9.077  -1.904  12.037  0.00  0.00    +0.048 C 
ATOM     11  C   LIG    1       -7.893  -2.514  12.764  0.00  0.00    +0.229 C 
ENDBRANCH   9  11
ENDBRANCH   7   9
ENDBRANCH   1   7
BRANCH   2  12
ATOM     12  C   LIG    1       -5.571  -5.679  11.984  0.00  0.00    +0.340 C 
ATOM     13  O   LIG    1       -5.563  -6.875  11.744  0.00  0.00    -0.245 OA
BRANCH  12  14
ATOM     14  O   LIG    1       -5.818  -4.683  11.101  0.00  0.00    -0.461 OA
BRANCH  14  15
ATOM     15  C   LIG    1       -6.763  -5.003  10.071  0.00  0.00    +0.229 C 
ATOM     16  C   LIG    1       -7.078  -3.730   9.311  0.00  0.00    +0.048 C 
ENDBRANCH  14  15
ENDBRANCH  12  14
ENDBRANCH   2  12
TORSDOF 6
ENDMDL
MODEL 9
REMARK VINA RESULT:      -5.9      2.277      4.179
REMARK  Name = 
REMARK                            x       y       z     vdW  Elec       q    Type
REMARK                         _______ _______ _______ _____ _____    ______ ____
ROOT
ATOM      1  C   LIG    1       -7.316  -5.440  12.978  0.00  0.00    +0.073 A 
ATOM      2  C   LIG    1       -5.941  -5.618  12.782  0.00  0.00    +0.073 A 
ATOM      3  C   LIG    1       -5.499  -6.629  11.913  0.00  0.00    +0.016 A 
ATOM      4  C   LIG    1       -6.416  -7.433  11.234  0.00  0.00    +0.001 A 
ATOM      5  C   LIG    1       -7.784  -7.241  11.419  0.00  0.00    +0.001 A 
ATOM      6  C   LIG    1       -8.236  -6.251  12.292  0.00  0.00    +0.016 A 
ENDROOT
BRANCH   1   7
ATOM      7  C   LIG    1       -7.839  -4.472  13.958  0.00  0.00    +0.340 C 
ATOM      8  O   LIG    1       -7.636  -4.533  15.157  0.00  0.00    -0.245 OA
BRANCH   7   9
ATOM      9  O   LIG    1       -8.554  -3.535  13.290  0.00  0.00    -0.461 OA
BRANCH   9  11
ATOM     10  C   LIG    1       -8.198  -2.025  11.476  0.00  0.00    +0.048 C 
ATOM     11  C   LIG    1       -7.788  -2.392  12.890  0.00  0.00    +0.229 C 
ENDBRANCH   9  11
ENDBRANCH   7   9
ENDBRANCH   1   7
BRANCH   2  12
ATOM     12  C   LIG    1       -4.899  -4.790  13.431  0.00  0.00    +0.340 C 
ATOM     13  O   LIG    1       -4.607  -3.668  13.050  0.00  0.00    -0.245 OA
BRANCH  12  14
ATOM     14  O   LIG    1       -4.441  -5.404  14.547  0.00  0.00    -0.461 OA
BRANCH  14  15
ATOM     15  C   LIG    1       -4.126  -4.528  15.638  0.00  0.00    +0.229 C 
ATOM     16  C   LIG    1       -4.665  -5.151  16.911  0.00  0.00    +0.048 C 
ENDBRANCH  14  15
ENDBRANCH  12  14
ENDBRANCH   2  12
TORSDOF 6
ENDMDL
