MODEL 1
REMARK VINA RESULT:      -6.2      0.000      0.000
REMARK  Name = 
REMARK                            x       y       z     vdW  Elec       q    Type
REMARK                         _______ _______ _______ _____ _____    ______ ____
ROOT
ATOM      1  C   LIG    1       17.566  29.837  10.182  0.00  0.00    +0.073 A 
ATOM      2  C   LIG    1       17.240  30.732  11.207  0.00  0.00    +0.073 A 
ATOM      3  C   LIG    1       16.281  31.730  10.966  0.00  0.00    +0.016 A 
ATOM      4  C   LIG    1       15.642  31.816   9.727  0.00  0.00    +0.001 A 
ATOM      5  C   LIG    1       15.958  30.911   8.715  0.00  0.00    +0.001 A 
ATOM      6  C   LIG    1       16.920  29.926   8.937  0.00  0.00    +0.016 A 
ENDROOT
BRANCH   1   7
ATOM      7  C   LIG    1       18.640  28.840  10.338  0.00  0.00    +0.340 C 
ATOM      8  O   LIG    1       19.782  28.994   9.941  0.00  0.00    -0.245 OA
BRANCH   7   9
ATOM      9  O   LIG    1       18.133  27.766  10.989  0.00  0.00    -0.461 OA
BRANCH   9  11
ATOM     10  C   LIG    1       18.306  27.056  13.261  0.00  0.00    +0.048 C 
ATOM     11  C   LIG    1       19.033  27.179  11.935  0.00  0.00    +0.229 C 
ENDBRANCH   9  11
ENDBRANCH   7   9
ENDBRANCH   1   7
BRANCH   2  12
ATOM     12  C   LIG    1       17.839  30.694  12.561  0.00  0.00    +0.340 C 
ATOM     13  O   LIG    1       17.219  30.349  13.554  0.00  0.00    -0.245 OA
BRANCH  12  14
ATOM     14  O   LIG    1       19.164  30.963  12.495  0.00  0.00    -0.461 OA
BRANCH  14  15
ATOM     15  C   LIG    1       19.944  30.452  13.583  0.00  0.00    +0.229 C 
ATOM     16  C   LIG    1       21.265  29.960  13.023  0.00  0.00    +0.048 C 
ENDBRANCH  14  15
ENDBRANCH  12  14
ENDBRANCH   2  12
TORSDOF 6
ENDMDL
MODEL 2
REMARK VINA RESULT:      -6.2      0.036      3.301
REMARK  Name = 
REMARK                            x       y       z     vdW  Elec       q    Type
REMARK                         _______ _______ _______ _____ _____    ______ ____
ROOT
ATOM      1  C   LIG    1       17.251  30.749  11.201  0.00  0.00    +0.073 A 
ATOM      2  C   LIG    1       17.583  29.848  10.182  0.00  0.00    +0.073 A 
ATOM      3  C   LIG    1       16.918  29.933   8.948  0.00  0.00    +0.016 A 
ATOM      4  C   LIG    1       15.952  30.916   8.729  0.00  0.00    +0.001 A 
ATOM      5  C   LIG    1       15.636  31.822   9.740  0.00  0.00    +0.001 A 
ATOM      6  C   LIG    1       16.278  31.738  10.975  0.00  0.00    +0.016 A 
ENDROOT
BRANCH   1   7
ATOM      7  C   LIG    1       17.834  30.642  12.549  0.00  0.00    +0.340 C 
ATOM      8  O   LIG    1       17.211  30.304  13.540  0.00  0.00    -0.245 OA
BRANCH   7   9
ATOM      9  O   LIG    1       19.146  30.971  12.473  0.00  0.00    -0.461 OA
BRANCH   9  11
ATOM     10  C   LIG    1       21.242  29.949  12.980  0.00  0.00    +0.048 C 
ATOM     11  C   LIG    1       19.938  30.467  13.555  0.00  0.00    +0.229 C 
ENDBRANCH   9  11
ENDBRANCH   7   9
ENDBRANCH   1   7
BRANCH   2  12
ATOM     12  C   LIG    1       18.619  28.797  10.313  0.00  0.00    +0.340 C 
ATOM     13  O   LIG    1       19.769  28.945   9.934  0.00  0.00    -0.245 OA
BRANCH  12  14
ATOM     14  O   LIG    1       18.132  27.745  11.012  0.00  0.00    -0.461 OA
BRANCH  14  15
ATOM     15  C   LIG    1       19.047  27.162  11.949  0.00  0.00    +0.229 C 
ATOM     16  C   LIG    1       18.332  27.025  13.280  0.00  0.00    +0.048 C 
ENDBRANCH  14  15
ENDBRANCH  12  14
ENDBRANCH   2  12
TORSDOF 6
ENDMDL
MODEL 3
REMARK VINA RESULT:      -6.2      1.544      2.762
REMARK  Name = 
REMARK                            x       y       z     vdW  Elec       q    Type
REMARK                         _______ _______ _______ _____ _____    ______ ____
ROOT
ATOM      1  C   LIG    1       17.702  30.104   9.877  0.00  0.00    +0.073 A 
ATOM      2  C   LIG    1       17.562  30.650  11.158  0.00  0.00    +0.073 A 
ATOM      3  C   LIG    1       16.520  31.559  11.406  0.00  0.00    +0.016 A 
ATOM      4  C   LIG    1       15.620  31.899  10.394  0.00  0.00    +0.001 A 
ATOM      5  C   LIG    1       15.753  31.340   9.125  0.00  0.00    +0.001 A 
ATOM      6  C   LIG    1       16.793  30.449   8.862  0.00  0.00    +0.016 A 
ENDROOT
BRANCH   1   7
ATOM      7  C   LIG    1       18.837  29.232   9.527  0.00  0.00    +0.340 C 
ATOM      8  O   LIG    1       18.833  28.020   9.647  0.00  0.00    -0.245 OA
BRANCH   7   9
ATOM      9  O   LIG    1       19.842  30.010   9.058  0.00  0.00    -0.461 OA
BRANCH   9  11
ATOM     10  C   LIG    1       21.876  30.231   7.829  0.00  0.00    +0.048 C 
ATOM     11  C   LIG    1       20.981  29.275   8.594  0.00  0.00    +0.229 C 
ENDBRANCH   9  11
ENDBRANCH   7   9
ENDBRANCH   1   7
BRANCH   2  12
ATOM     12  C   LIG    1       18.447  30.320  12.300  0.00  0.00    +0.340 C 
ATOM     13  O   LIG    1       19.579  30.760  12.413  0.00  0.00    -0.245 OA
BRANCH  12  14
ATOM     14  O   LIG    1       17.772  29.592  13.219  0.00  0.00    -0.461 OA
BRANCH  14  15
ATOM     15  C   LIG    1       18.520  28.527  13.821  0.00  0.00    +0.229 C 
ATOM     16  C   LIG    1       18.237  27.256  13.043  0.00  0.00    +0.048 C 
ENDBRANCH  14  15
ENDBRANCH  12  14
ENDBRANCH   2  12
TORSDOF 6
ENDMDL
MODEL 4
REMARK VINA RESULT:      -6.1      1.297      3.061
REMARK  Name = 
REMARK                            x       y       z     vdW  Elec       q    Type
REMARK                         _______ _______ _______ _____ _____    ______ ____
ROOT
ATOM      1  C   LIG    1       17.648  30.709  11.386  0.00  0.00    +0.073 A 
ATOM      2  C   LIG    1       17.468  30.075  10.150  0.00  0.00    +0.073 A 
ATOM      3  C   LIG    1       16.470  30.543   9.280  0.00  0.00    +0.016 A 
ATOM      4  C   LIG    1       15.681  31.640   9.629  0.00  0.00    +0.001 A 
ATOM      5  C   LIG    1       15.875  32.279  10.852  0.00  0.00    +0.001 A 
ATOM      6  C   LIG    1       16.852  31.814  11.733  0.00  0.00    +0.016 A 
ENDROOT
BRANCH   1   7
ATOM      7  C   LIG    1       18.602  30.198  12.386  0.00  0.00    +0.340 C 
ATOM      8  O   LIG    1       19.799  30.421  12.368  0.00  0.00    -0.245 OA
BRANCH   7   9
ATOM      9  O   LIG    1       17.914  29.466  13.295  0.00  0.00    -0.461 OA
BRANCH   9  11
ATOM     10  C   LIG    1       18.279  27.109  13.229  0.00  0.00    +0.048 C 
ATOM     11  C   LIG    1       18.677  28.413  13.894  0.00  0.00    +0.229 C 
ENDBRANCH   9  11
ENDBRANCH   7   9
ENDBRANCH   1   7
BRANCH   2  12
ATOM     12  C   LIG    1       18.281  28.930   9.682  0.00  0.00    +0.340 C 
ATOM     13  O   LIG    1       17.929  27.768   9.806  0.00  0.00    -0.245 OA
BRANCH  12  14
ATOM     14  O   LIG    1       19.366  29.372   9.004  0.00  0.00    -0.461 OA
BRANCH  14  15
ATOM     15  C   LIG    1       20.606  28.749   9.366  0.00  0.00    +0.229 C 
ATOM     16  C   LIG    1       21.039  27.861   8.215  0.00  0.00    +0.048 C 
ENDBRANCH  14  15
ENDBRANCH  12  14
ENDBRANCH   2  12
TORSDOF 6
ENDMDL
MODEL 5
REMARK VINA RESULT:      -5.9      1.289      1.953
REMARK  Name = 
REMARK                            x       y       z     vdW  Elec       q    Type
REMARK                         _______ _______ _______ _____ _____    ______ ____
ROOT
ATOM      1  C   LIG    1       17.830  29.786  10.996  0.00  0.00    +0.073 A 
ATOM      2  C   LIG    1       17.684  30.539  12.167  0.00  0.00    +0.073 A 
ATOM      3  C   LIG    1       16.940  31.729  12.127  0.00  0.00    +0.016 A 
ATOM      4  C   LIG    1       16.332  32.147  10.942  0.00  0.00    +0.001 A 
ATOM      5  C   LIG    1       16.465  31.385   9.783  0.00  0.00    +0.001 A 
ATOM      6  C   LIG    1       17.215  30.210   9.805  0.00  0.00    +0.016 A 
ENDROOT
BRANCH   1   7
ATOM      7  C   LIG    1       18.687  28.588  10.947  0.00  0.00    +0.340 C 
ATOM      8  O   LIG    1       18.337  27.479  11.308  0.00  0.00    -0.245 OA
BRANCH   7   9
ATOM      9  O   LIG    1       19.890  28.947  10.437  0.00  0.00    -0.461 OA
BRANCH   9  11
ATOM     10  C   LIG    1       20.709  27.602   8.643  0.00  0.00    +0.048 C 
ATOM     11  C   LIG    1       20.751  27.841  10.141  0.00  0.00    +0.229 C 
ENDBRANCH   9  11
ENDBRANCH   7   9
ENDBRANCH   1   7
BRANCH   2  12
ATOM     12  C   LIG    1       18.262  30.155  13.475  0.00  0.00    +0.340 C 
ATOM     13  O   LIG    1       17.705  29.397  14.252  0.00  0.00    -0.245 OA
BRANCH  12  14
ATOM     14  O   LIG    1       19.514  30.655  13.598  0.00  0.00    -0.461 OA
BRANCH  14  15
ATOM     15  C   LIG    1       20.352  29.972  14.539  0.00  0.00    +0.229 C 
ATOM     16  C   LIG    1       21.167  28.941  13.782  0.00  0.00    +0.048 C 
ENDBRANCH  14  15
ENDBRANCH  12  14
ENDBRANCH   2  12
TORSDOF 6
ENDMDL
MODEL 6
REMARK VINA RESULT:      -5.9      1.755      4.692
REMARK  Name = 
REMARK                            x       y       z     vdW  Elec       q    Type
REMARK                         _______ _______ _______ _____ _____    ______ ____
ROOT
ATOM      1  C   LIG    1       17.809  29.803  11.850  0.00  0.00    +0.073 A 
ATOM      2  C   LIG    1       18.247  28.618  11.248  0.00  0.00    +0.073 A 
ATOM      3  C   LIG    1       18.633  27.539  12.061  0.00  0.00    +0.016 A 
ATOM      4  C   LIG    1       18.561  27.638  13.452  0.00  0.00    +0.001 A 
ATOM      5  C   LIG    1       18.108  28.814  14.046  0.00  0.00    +0.001 A 
ATOM      6  C   LIG    1       17.736  29.897  13.250  0.00  0.00    +0.016 A 
ENDROOT
BRANCH   1   7
ATOM      7  C   LIG    1       17.495  31.004  11.055  0.00  0.00    +0.340 C 
ATOM      8  O   LIG    1       18.332  31.734  10.555  0.00  0.00    -0.245 OA
BRANCH   7   9
ATOM      9  O   LIG    1       16.147  31.127  10.985  0.00  0.00    -0.461 OA
BRANCH   9  11
ATOM     10  C   LIG    1       14.555  31.089   9.208  0.00  0.00    +0.048 C 
ATOM     11  C   LIG    1       15.687  31.868   9.849  0.00  0.00    +0.229 C 
ENDBRANCH   9  11
ENDBRANCH   7   9
ENDBRANCH   1   7
BRANCH   2  12
ATOM     12  C   LIG    1       18.322  28.411   9.783  0.00  0.00    +0.340 C 
ATOM     13  O   LIG    1       17.371  28.043   9.113  0.00  0.00    -0.245 OA
BRANCH  12  14
ATOM     14  O   LIG    1       19.528  28.810   9.316  0.00  0.00    -0.461 OA
BRANCH  14  15
ATOM     15  C   LIG    1       20.219  27.846   8.511  0.00  0.00    +0.229 C 
ATOM     16  C   LIG    1       21.160  27.070   9.413  0.00  0.00    +0.048 C 
ENDBRANCH  14  15
ENDBRANCH  12  14
ENDBRANCH   2  12
TORSDOF 6
ENDMDL
MODEL 7
REMARK VINA RESULT:      -5.9      1.769      4.275
REMARK  Name = 
REMARK                            x       y       z     vdW  Elec       q    Type
REMARK                         _______ _______ _______ _____ _____    ______ ____
ROOT
ATOM      1  C   LIG    1       18.300  28.471  11.423  0.00  0.00    +0.073 A 
ATOM      2  C   LIG    1       17.931  29.763  11.814  0.00  0.00    +0.073 A 
ATOM      3  C   LIG    1       17.813  30.058  13.182  0.00  0.00    +0.016 A 
ATOM      4  C   LIG    1       18.083  29.083  14.144  0.00  0.00    +0.001 A 
ATOM      5  C   LIG    1       18.467  27.803  13.751  0.00  0.00    +0.001 A 
ATOM      6  C   LIG    1       18.572  27.493  12.395  0.00  0.00    +0.016 A 
ENDROOT
BRANCH   1   7
ATOM      7  C   LIG    1       18.334  28.071  10.006  0.00  0.00    +0.340 C 
ATOM      8  O   LIG    1       17.366  28.085   9.266  0.00  0.00    -0.245 OA
BRANCH   7   9
ATOM      9  O   LIG    1       19.601  27.706   9.697  0.00  0.00    -0.461 OA
BRANCH   9  11
ATOM     10  C   LIG    1       21.049  29.408   8.857  0.00  0.00    +0.048 C 
ATOM     11  C   LIG    1       20.097  28.288   8.485  0.00  0.00    +0.229 C 
ENDBRANCH   9  11
ENDBRANCH   7   9
ENDBRANCH   1   7
BRANCH   2  12
ATOM     12  C   LIG    1       17.661  30.869  10.866  0.00  0.00    +0.340 C 
ATOM     13  O   LIG    1       18.520  31.353  10.146  0.00  0.00    -0.245 OA
BRANCH  12  14
ATOM     14  O   LIG    1       16.337  31.147  10.836  0.00  0.00    -0.461 OA
BRANCH  14  15
ATOM     15  C   LIG    1       15.856  31.687   9.597  0.00  0.00    +0.229 C 
ATOM     16  C   LIG    1       14.453  31.159   9.369  0.00  0.00    +0.048 C 
ENDBRANCH  14  15
ENDBRANCH  12  14
ENDBRANCH   2  12
TORSDOF 6
ENDMDL
MODEL 8
REMARK VINA RESULT:      -5.8      1.823      3.240
REMARK  Name = 
REMARK                            x       y       z     vdW  Elec       q    Type
REMARK                         _______ _______ _______ _____ _____    ______ ____
ROOT
ATOM      1  C   LIG    1       18.380  30.708  10.648  0.00  0.00    +0.073 A 
ATOM      2  C   LIG    1       18.935  30.272  11.857  0.00  0.00    +0.073 A 
ATOM      3  C   LIG    1       18.401  30.747  13.066  0.00  0.00    +0.016 A 
ATOM      4  C   LIG    1       17.317  31.627  13.067  0.00  0.00    +0.001 A 
ATOM      5  C   LIG    1       16.757  32.045  11.861  0.00  0.00    +0.001 A 
ATOM      6  C   LIG    1       17.288  31.592  10.653  0.00  0.00    +0.016 A 
ENDROOT
BRANCH   1   7
ATOM      7  C   LIG    1       18.964  30.331   9.349  0.00  0.00    +0.340 C 
ATOM      8  O   LIG    1       20.133  30.497   9.049  0.00  0.00    -0.245 OA
BRANCH   7   9
ATOM      9  O   LIG    1       17.988  29.781   8.587  0.00  0.00    -0.461 OA
BRANCH   9  11
ATOM     10  C   LIG    1       16.284  28.121   8.394  0.00  0.00    +0.048 C 
ATOM     11  C   LIG    1       17.666  28.431   8.939  0.00  0.00    +0.229 C 
ENDBRANCH   9  11
ENDBRANCH   7   9
ENDBRANCH   1   7
BRANCH   2  12
ATOM     12  C   LIG    1       20.060  29.314  11.954  0.00  0.00    +0.340 C 
ATOM     13  O   LIG    1       21.160  29.620  12.385  0.00  0.00    -0.245 OA
BRANCH  12  14
ATOM     14  O   LIG    1       19.645  28.069  11.626  0.00  0.00    -0.461 OA
BRANCH  14  15
ATOM     15  C   LIG    1       19.685  27.112  12.693  0.00  0.00    +0.229 C 
ATOM     16  C   LIG    1       18.294  27.012  13.287  0.00  0.00    +0.048 C 
ENDBRANCH  14  15
ENDBRANCH  12  14
ENDBRANCH   2  12
TORSDOF 6
ENDMDL
MODEL 9
REMARK VINA RESULT:      -5.8      2.426      5.120
REMARK  Name = 
REMARK                            x       y       z     vdW  Elec       q    Type
REMARK                         _______ _______ _______ _____ _____    ______ ____
ROOT
ATOM      1  C   LIG    1       18.457  28.345  10.317  0.00  0.00    +0.073 A 
ATOM      2  C   LIG    1       19.837  28.337  10.084  0.00  0.00    +0.073 A 
ATOM      3  C   LIG    1       20.694  27.802  11.060  0.00  0.00    +0.016 A 
ATOM      4  C   LIG    1       20.177  27.264  12.240  0.00  0.00    +0.001 A 
ATOM      5  C   LIG    1       18.801  27.258  12.460  0.00  0.00    +0.001 A 
ATOM      6  C   LIG    1       17.941  27.800  11.506  0.00  0.00    +0.016 A 
ENDROOT
BRANCH   1   7
ATOM      7  C   LIG    1       17.518  28.989   9.382  0.00  0.00    +0.340 C 
ATOM      8  O   LIG    1       16.897  28.398   8.517  0.00  0.00    -0.245 OA
BRANCH   7   9
ATOM      9  O   LIG    1       17.475  30.313   9.666  0.00  0.00    -0.461 OA
BRANCH   9  11
ATOM     10  C   LIG    1       16.215  32.030  10.744  0.00  0.00    +0.048 C 
ATOM     11  C   LIG    1       16.150  30.838   9.808  0.00  0.00    +0.229 C 
ENDBRANCH   9  11
ENDBRANCH   7   9
ENDBRANCH   1   7
BRANCH   2  12
ATOM     12  C   LIG    1       20.470  28.854   8.848  0.00  0.00    +0.340 C 
ATOM     13  O   LIG    1       20.762  30.028   8.691  0.00  0.00    -0.245 OA
BRANCH  12  14
ATOM     14  O   LIG    1       20.780  27.831   8.018  0.00  0.00    -0.461 OA
BRANCH  14  15
ATOM     15  C   LIG    1       22.177  27.673   7.741  0.00  0.00    +0.229 C 
ATOM     16  C   LIG    1       22.429  28.132   6.318  0.00  0.00    +0.048 C 
ENDBRANCH  14  15
ENDBRANCH  12  14
ENDBRANCH   2  12
TORSDOF 6
ENDMDL
