MODEL 1
REMARK VINA RESULT:      -6.0      0.000      0.000
REMARK  Name = 
REMARK                            x       y       z     vdW  Elec       q    Type
REMARK                         _______ _______ _______ _____ _____    ______ ____
ROOT
ATOM      1  C   LIG    1       28.812  -1.302  27.751  0.00  0.00    +0.073 A 
ATOM      2  C   LIG    1       28.608   0.081  27.684  0.00  0.00    +0.073 A 
ATOM      3  C   LIG    1       27.302   0.574  27.521  0.00  0.00    +0.016 A 
ATOM      4  C   LIG    1       26.217  -0.302  27.449  0.00  0.00    +0.001 A 
ATOM      5  C   LIG    1       26.424  -1.677  27.533  0.00  0.00    +0.001 A 
ATOM      6  C   LIG    1       27.717  -2.180  27.679  0.00  0.00    +0.016 A 
ENDROOT
BRANCH   1   7
ATOM      7  C   LIG    1       30.165  -1.882  27.811  0.00  0.00    +0.340 C 
ATOM      8  O   LIG    1       30.824  -1.981  28.831  0.00  0.00    -0.245 OA
BRANCH   7   9
ATOM      9  O   LIG    1       30.516  -2.275  26.563  0.00  0.00    -0.461 OA
BRANCH   9  11
ATOM     10  C   LIG    1       31.264  -0.947  24.727  0.00  0.00    +0.048 C 
ATOM     11  C   LIG    1       31.663  -1.596  26.039  0.00  0.00    +0.229 C 
ENDBRANCH   9  11
ENDBRANCH   7   9
ENDBRANCH   1   7
BRANCH   2  12
ATOM     12  C   LIG    1       29.693   1.084  27.788  0.00  0.00    +0.340 C 
ATOM     13  O   LIG    1       30.157   1.665  26.820  0.00  0.00    -0.245 OA
BRANCH  12  14
ATOM     14  O   LIG    1       29.975   1.335  29.087  0.00  0.00    -0.461 OA
BRANCH  14  15
ATOM     15  C   LIG    1       31.371   1.445  29.396  0.00  0.00    +0.229 C 
ATOM     16  C   LIG    1       31.601   0.820  30.759  0.00  0.00    +0.048 C 
ENDBRANCH  14  15
ENDBRANCH  12  14
ENDBRANCH   2  12
TORSDOF 6
ENDMDL
MODEL 2
REMARK VINA RESULT:      -6.0      0.728      3.971
REMARK  Name = 
REMARK                            x       y       z     vdW  Elec       q    Type
REMARK                         _______ _______ _______ _____ _____    ______ ____
ROOT
ATOM      1  C   LIG    1       28.901  -0.509  27.787  0.00  0.00    +0.073 A 
ATOM      2  C   LIG    1       29.512  -1.761  27.654  0.00  0.00    +0.073 A 
ATOM      3  C   LIG    1       28.717  -2.918  27.685  0.00  0.00    +0.016 A 
ATOM      4  C   LIG    1       27.331  -2.824  27.823  0.00  0.00    +0.001 A 
ATOM      5  C   LIG    1       26.725  -1.574  27.938  0.00  0.00    +0.001 A 
ATOM      6  C   LIG    1       27.505  -0.418  27.925  0.00  0.00    +0.016 A 
ENDROOT
BRANCH   1   7
ATOM      7  C   LIG    1       29.690   0.733  27.871  0.00  0.00    +0.340 C 
ATOM      8  O   LIG    1       30.036   1.392  26.908  0.00  0.00    -0.245 OA
BRANCH   7   9
ATOM      9  O   LIG    1       29.938   0.991  29.178  0.00  0.00    -0.461 OA
BRANCH   9  11
ATOM     10  C   LIG    1       31.680   0.699  30.783  0.00  0.00    +0.048 C 
ATOM     11  C   LIG    1       31.301   1.330  29.457  0.00  0.00    +0.229 C 
ENDBRANCH   9  11
ENDBRANCH   7   9
ENDBRANCH   1   7
BRANCH   2  12
ATOM     12  C   LIG    1       30.969  -1.955  27.466  0.00  0.00    +0.340 C 
ATOM     13  O   LIG    1       31.764  -1.956  28.392  0.00  0.00    -0.245 OA
BRANCH  12  14
ATOM     14  O   LIG    1       31.239  -2.251  26.174  0.00  0.00    -0.461 OA
BRANCH  14  15
ATOM     15  C   LIG    1       32.029  -1.277  25.479  0.00  0.00    +0.229 C 
ATOM     16  C   LIG    1       31.309  -0.917  24.194  0.00  0.00    +0.048 C 
ENDBRANCH  14  15
ENDBRANCH  12  14
ENDBRANCH   2  12
TORSDOF 6
ENDMDL
MODEL 3
REMARK VINA RESULT:      -5.7      1.426      4.368
REMARK  Name = 
REMARK                            x       y       z     vdW  Elec       q    Type
REMARK                         _______ _______ _______ _____ _____    ______ ____
ROOT
ATOM      1  C   LIG    1       31.007  -0.789  25.889  0.00  0.00    +0.073 A 
ATOM      2  C   LIG    1       31.477  -1.779  26.760  0.00  0.00    +0.073 A 
ATOM      3  C   LIG    1       32.247  -2.835  26.245  0.00  0.00    +0.016 A 
ATOM      4  C   LIG    1       32.560  -2.888  24.885  0.00  0.00    +0.001 A 
ATOM      5  C   LIG    1       32.103  -1.891  24.025  0.00  0.00    +0.001 A 
ATOM      6  C   LIG    1       31.325  -0.846  24.521  0.00  0.00    +0.016 A 
ENDROOT
BRANCH   1   7
ATOM      7  C   LIG    1       30.105   0.282  26.349  0.00  0.00    +0.340 C 
ATOM      8  O   LIG    1       30.483   1.352  26.793  0.00  0.00    -0.245 OA
BRANCH   7   9
ATOM      9  O   LIG    1       28.828  -0.136  26.182  0.00  0.00    -0.461 OA
BRANCH   9  11
ATOM     10  C   LIG    1       27.181  -0.409  27.888  0.00  0.00    +0.048 C 
ATOM     11  C   LIG    1       27.871   0.582  26.970  0.00  0.00    +0.229 C 
ENDBRANCH   9  11
ENDBRANCH   7   9
ENDBRANCH   1   7
BRANCH   2  12
ATOM     12  C   LIG    1       31.226  -1.784  28.219  0.00  0.00    +0.340 C 
ATOM     13  O   LIG    1       30.174  -2.160  28.712  0.00  0.00    -0.245 OA
BRANCH  12  14
ATOM     14  O   LIG    1       32.352  -1.446  28.890  0.00  0.00    -0.461 OA
BRANCH  14  15
ATOM     15  C   LIG    1       32.403  -0.089  29.348  0.00  0.00    +0.229 C 
ATOM     16  C   LIG    1       32.084  -0.082  30.831  0.00  0.00    +0.048 C 
ENDBRANCH  14  15
ENDBRANCH  12  14
ENDBRANCH   2  12
TORSDOF 6
ENDMDL
MODEL 4
REMARK VINA RESULT:      -5.6      1.782      4.634
REMARK  Name = 
REMARK                            x       y       z     vdW  Elec       q    Type
REMARK                         _______ _______ _______ _____ _____    ______ ____
ROOT
ATOM      1  C   LIG    1       32.727   0.590  28.161  0.00  0.00    +0.073 A 
ATOM      2  C   LIG    1       31.598   0.397  28.966  0.00  0.00    +0.073 A 
ATOM      3  C   LIG    1       31.692   0.639  30.347  0.00  0.00    +0.016 A 
ATOM      4  C   LIG    1       32.889   1.087  30.909  0.00  0.00    +0.001 A 
ATOM      5  C   LIG    1       34.005   1.294  30.100  0.00  0.00    +0.001 A 
ATOM      6  C   LIG    1       33.929   1.042  28.731  0.00  0.00    +0.016 A 
ENDROOT
BRANCH   1   7
ATOM      7  C   LIG    1       32.721   0.249  26.727  0.00  0.00    +0.340 C 
ATOM      8  O   LIG    1       32.582   1.062  25.830  0.00  0.00    -0.245 OA
BRANCH   7   9
ATOM      9  O   LIG    1       32.902  -1.088  26.607  0.00  0.00    -0.461 OA
BRANCH   9  11
ATOM     10  C   LIG    1       32.754  -3.036  25.235  0.00  0.00    +0.048 C 
ATOM     11  C   LIG    1       32.136  -1.688  25.556  0.00  0.00    +0.229 C 
ENDBRANCH   9  11
ENDBRANCH   7   9
ENDBRANCH   1   7
BRANCH   2  12
ATOM     12  C   LIG    1       30.280  -0.041  28.452  0.00  0.00    +0.340 C 
ATOM     13  O   LIG    1       29.949  -1.213  28.380  0.00  0.00    -0.245 OA
BRANCH  12  14
ATOM     14  O   LIG    1       29.490   1.032  28.214  0.00  0.00    -0.461 OA
BRANCH  14  15
ATOM     15  C   LIG    1       28.713   0.961  27.012  0.00  0.00    +0.229 C 
ATOM     16  C   LIG    1       27.246   1.007  27.396  0.00  0.00    +0.048 C 
ENDBRANCH  14  15
ENDBRANCH  12  14
ENDBRANCH   2  12
TORSDOF 6
ENDMDL
MODEL 5
REMARK VINA RESULT:      -5.5      1.722      2.330
REMARK  Name = 
REMARK                            x       y       z     vdW  Elec       q    Type
REMARK                         _______ _______ _______ _____ _____    ______ ____
ROOT
ATOM      1  C   LIG    1       29.781  -0.234  26.386  0.00  0.00    +0.073 A 
ATOM      2  C   LIG    1       30.323   0.767  27.201  0.00  0.00    +0.073 A 
ATOM      3  C   LIG    1       29.458   1.601  27.929  0.00  0.00    +0.016 A 
ATOM      4  C   LIG    1       28.076   1.422  27.860  0.00  0.00    +0.001 A 
ATOM      5  C   LIG    1       27.541   0.414  27.061  0.00  0.00    +0.001 A 
ATOM      6  C   LIG    1       28.388  -0.411  26.321  0.00  0.00    +0.016 A 
ENDROOT
BRANCH   1   7
ATOM      7  C   LIG    1       30.629  -1.068  25.516  0.00  0.00    +0.340 C 
ATOM      8  O   LIG    1       30.990  -0.746  24.399  0.00  0.00    -0.245 OA
BRANCH   7   9
ATOM      9  O   LIG    1       30.923  -2.212  26.179  0.00  0.00    -0.461 OA
BRANCH   9  11
ATOM     10  C   LIG    1       32.801  -3.329  25.217  0.00  0.00    +0.048 C 
ATOM     11  C   LIG    1       32.326  -2.442  26.353  0.00  0.00    +0.229 C 
ENDBRANCH   9  11
ENDBRANCH   7   9
ENDBRANCH   1   7
BRANCH   2  12
ATOM     12  C   LIG    1       31.776   1.005  27.363  0.00  0.00    +0.340 C 
ATOM     13  O   LIG    1       32.406   1.777  26.660  0.00  0.00    -0.245 OA
BRANCH  12  14
ATOM     14  O   LIG    1       32.238   0.355  28.457  0.00  0.00    -0.461 OA
BRANCH  14  15
ATOM     15  C   LIG    1       32.774   1.198  29.485  0.00  0.00    +0.229 C 
ATOM     16  C   LIG    1       32.097   0.833  30.792  0.00  0.00    +0.048 C 
ENDBRANCH  14  15
ENDBRANCH  12  14
ENDBRANCH   2  12
TORSDOF 6
ENDMDL
MODEL 6
REMARK VINA RESULT:      -5.3      1.814      2.615
REMARK  Name = 
REMARK                            x       y       z     vdW  Elec       q    Type
REMARK                         _______ _______ _______ _____ _____    ______ ____
ROOT
ATOM      1  C   LIG    1       29.945  -0.379  26.976  0.00  0.00    +0.073 A 
ATOM      2  C   LIG    1       30.307   0.450  28.045  0.00  0.00    +0.073 A 
ATOM      3  C   LIG    1       29.405   1.433  28.485  0.00  0.00    +0.016 A 
ATOM      4  C   LIG    1       28.154   1.570  27.881  0.00  0.00    +0.001 A 
ATOM      5  C   LIG    1       27.792   0.731  26.829  0.00  0.00    +0.001 A 
ATOM      6  C   LIG    1       28.684  -0.238  26.372  0.00  0.00    +0.016 A 
ENDROOT
BRANCH   1   7
ATOM      7  C   LIG    1       30.888  -1.354  26.399  0.00  0.00    +0.340 C 
ATOM      8  O   LIG    1       30.936  -2.529  26.714  0.00  0.00    -0.245 OA
BRANCH   7   9
ATOM      9  O   LIG    1       31.653  -0.714  25.483  0.00  0.00    -0.461 OA
BRANCH   9  11
ATOM     10  C   LIG    1       32.212  -2.009  23.557  0.00  0.00    +0.048 C 
ATOM     11  C   LIG    1       31.270  -0.964  24.125  0.00  0.00    +0.229 C 
ENDBRANCH   9  11
ENDBRANCH   7   9
ENDBRANCH   1   7
BRANCH   2  12
ATOM     12  C   LIG    1       31.596   0.353  28.767  0.00  0.00    +0.340 C 
ATOM     13  O   LIG    1       31.847  -0.537  29.564  0.00  0.00    -0.245 OA
BRANCH  12  14
ATOM     14  O   LIG    1       32.457   1.294  28.317  0.00  0.00    -0.461 OA
BRANCH  14  15
ATOM     15  C   LIG    1       33.765   0.813  27.981  0.00  0.00    +0.229 C 
ATOM     16  C   LIG    1       34.649   2.012  27.696  0.00  0.00    +0.048 C 
ENDBRANCH  14  15
ENDBRANCH  12  14
ENDBRANCH   2  12
TORSDOF 6
ENDMDL
MODEL 7
REMARK VINA RESULT:      -5.3      2.093      3.887
REMARK  Name = 
REMARK                            x       y       z     vdW  Elec       q    Type
REMARK                         _______ _______ _______ _____ _____    ______ ____
ROOT
ATOM      1  C   LIG    1       29.735  -0.141  26.695  0.00  0.00    +0.073 A 
ATOM      2  C   LIG    1       28.911  -0.912  27.524  0.00  0.00    +0.073 A 
ATOM      3  C   LIG    1       27.698  -0.370  27.979  0.00  0.00    +0.016 A 
ATOM      4  C   LIG    1       27.304   0.912  27.593  0.00  0.00    +0.001 A 
ATOM      5  C   LIG    1       28.119   1.669  26.753  0.00  0.00    +0.001 A 
ATOM      6  C   LIG    1       29.334   1.149  26.308  0.00  0.00    +0.016 A 
ENDROOT
BRANCH   1   7
ATOM      7  C   LIG    1       31.067  -0.611  26.275  0.00  0.00    +0.340 C 
ATOM      8  O   LIG    1       31.260  -1.411  25.377  0.00  0.00    -0.245 OA
BRANCH   7   9
ATOM      9  O   LIG    1       31.997   0.001  27.047  0.00  0.00    -0.461 OA
BRANCH   9  11
ATOM     10  C   LIG    1       33.221   1.896  26.269  0.00  0.00    +0.048 C 
ATOM     11  C   LIG    1       33.183   0.382  26.340  0.00  0.00    +0.229 C 
ENDBRANCH   9  11
ENDBRANCH   7   9
ENDBRANCH   1   7
BRANCH   2  12
ATOM     12  C   LIG    1       29.230  -2.293  27.955  0.00  0.00    +0.340 C 
ATOM     13  O   LIG    1       30.105  -2.552  28.766  0.00  0.00    -0.245 OA
BRANCH  12  14
ATOM     14  O   LIG    1       28.342  -3.165  27.425  0.00  0.00    -0.461 OA
BRANCH  14  15
ATOM     15  C   LIG    1       27.644  -3.978  28.378  0.00  0.00    +0.229 C 
ATOM     16  C   LIG    1       26.182  -3.576  28.358  0.00  0.00    +0.048 C 
ENDBRANCH  14  15
ENDBRANCH  12  14
ENDBRANCH   2  12
TORSDOF 6
ENDMDL
MODEL 8
REMARK VINA RESULT:      -5.2      1.356      4.787
REMARK  Name = 
REMARK                            x       y       z     vdW  Elec       q    Type
REMARK                         _______ _______ _______ _____ _____    ______ ____
ROOT
ATOM      1  C   LIG    1       30.379   0.258  28.345  0.00  0.00    +0.073 A 
ATOM      2  C   LIG    1       31.268  -0.816  28.212  0.00  0.00    +0.073 A 
ATOM      3  C   LIG    1       32.213  -1.052  29.225  0.00  0.00    +0.016 A 
ATOM      4  C   LIG    1       32.252  -0.243  30.361  0.00  0.00    +0.001 A 
ATOM      5  C   LIG    1       31.354   0.813  30.498  0.00  0.00    +0.001 A 
ATOM      6  C   LIG    1       30.422   1.069  29.492  0.00  0.00    +0.016 A 
ENDROOT
BRANCH   1   7
ATOM      7  C   LIG    1       29.441   0.623  27.269  0.00  0.00    +0.340 C 
ATOM      8  O   LIG    1       29.569   1.596  26.549  0.00  0.00    -0.245 OA
BRANCH   7   9
ATOM      9  O   LIG    1       28.452  -0.303  27.235  0.00  0.00    -0.461 OA
BRANCH   9  11
ATOM     10  C   LIG    1       26.367  -0.813  28.279  0.00  0.00    +0.048 C 
ATOM     11  C   LIG    1       27.148   0.227  27.498  0.00  0.00    +0.229 C 
ENDBRANCH   9  11
ENDBRANCH   7   9
ENDBRANCH   1   7
BRANCH   2  12
ATOM     12  C   LIG    1       31.275  -1.747  27.060  0.00  0.00    +0.340 C 
ATOM     13  O   LIG    1       30.387  -2.557  26.854  0.00  0.00    -0.245 OA
BRANCH  12  14
ATOM     14  O   LIG    1       32.315  -1.468  26.240  0.00  0.00    -0.461 OA
BRANCH  14  15
ATOM     15  C   LIG    1       32.076  -0.425  25.286  0.00  0.00    +0.229 C 
ATOM     16  C   LIG    1       31.580  -1.065  24.003  0.00  0.00    +0.048 C 
ENDBRANCH  14  15
ENDBRANCH  12  14
ENDBRANCH   2  12
TORSDOF 6
ENDMDL
MODEL 9
REMARK VINA RESULT:      -5.1      1.582      3.829
REMARK  Name = 
REMARK                            x       y       z     vdW  Elec       q    Type
REMARK                         _______ _______ _______ _____ _____    ______ ____
ROOT
ATOM      1  C   LIG    1       30.083  -0.024  26.564  0.00  0.00    +0.073 A 
ATOM      2  C   LIG    1       31.168   0.212  27.417  0.00  0.00    +0.073 A 
ATOM      3  C   LIG    1       32.442  -0.250  27.049  0.00  0.00    +0.016 A 
ATOM      4  C   LIG    1       32.632  -0.917  25.838  0.00  0.00    +0.001 A 
ATOM      5  C   LIG    1       31.553  -1.135  24.983  0.00  0.00    +0.001 A 
ATOM      6  C   LIG    1       30.280  -0.695  25.345  0.00  0.00    +0.016 A 
ENDROOT
BRANCH   1   7
ATOM      7  C   LIG    1       28.707   0.339  26.944  0.00  0.00    +0.340 C 
ATOM      8  O   LIG    1       28.133   1.344  26.565  0.00  0.00    -0.245 OA
BRANCH   7   9
ATOM      9  O   LIG    1       28.221  -0.629  27.759  0.00  0.00    -0.461 OA
BRANCH   9  11
ATOM     10  C   LIG    1       27.015  -2.058  26.276  0.00  0.00    +0.048 C 
ATOM     11  C   LIG    1       26.901  -1.068  27.420  0.00  0.00    +0.229 C 
ENDBRANCH   9  11
ENDBRANCH   7   9
ENDBRANCH   1   7
BRANCH   2  12
ATOM     12  C   LIG    1       31.066   0.941  28.703  0.00  0.00    +0.340 C 
ATOM     13  O   LIG    1       30.672   2.093  28.785  0.00  0.00    -0.245 OA
BRANCH  12  14
ATOM     14  O   LIG    1       31.342   0.110  29.735  0.00  0.00    -0.461 OA
BRANCH  14  15
ATOM     15  C   LIG    1       31.994   0.725  30.854  0.00  0.00    +0.229 C 
ATOM     16  C   LIG    1       33.396   1.115  30.426  0.00  0.00    +0.048 C 
ENDBRANCH  14  15
ENDBRANCH  12  14
ENDBRANCH   2  12
TORSDOF 6
ENDMDL
