MODEL 1
REMARK VINA RESULT:      -5.8      0.000      0.000
REMARK  Name = 
REMARK                            x       y       z     vdW  Elec       q    Type
REMARK                         _______ _______ _______ _____ _____    ______ ____
ROOT
ATOM      1  C   LIG    1       38.162  32.066   8.382  0.00  0.00    +0.073 A 
ATOM      2  C   LIG    1       39.178  32.064   7.419  0.00  0.00    +0.073 A 
ATOM      3  C   LIG    1       39.323  33.177   6.573  0.00  0.00    +0.016 A 
ATOM      4  C   LIG    1       38.480  34.282   6.704  0.00  0.00    +0.001 A 
ATOM      5  C   LIG    1       37.481  34.286   7.675  0.00  0.00    +0.001 A 
ATOM      6  C   LIG    1       37.316  33.182   8.510  0.00  0.00    +0.016 A 
ENDROOT
BRANCH   1   7
ATOM      7  C   LIG    1       37.890  30.887   9.223  0.00  0.00    +0.340 C 
ATOM      8  O   LIG    1       38.211  30.792  10.394  0.00  0.00    -0.245 OA
BRANCH   7   9
ATOM      9  O   LIG    1       37.234  29.970   8.471  0.00  0.00    -0.461 OA
BRANCH   9  11
ATOM     10  C   LIG    1       38.411  27.900   8.634  0.00  0.00    +0.048 C 
ATOM     11  C   LIG    1       37.174  28.667   9.062  0.00  0.00    +0.229 C 
ENDBRANCH   9  11
ENDBRANCH   7   9
ENDBRANCH   1   7
BRANCH   2  12
ATOM     12  C   LIG    1       40.140  30.953   7.233  0.00  0.00    +0.340 C 
ATOM     13  O   LIG    1       40.033  30.122   6.346  0.00  0.00    -0.245 OA
BRANCH  12  14
ATOM     14  O   LIG    1       41.180  31.087   8.087  0.00  0.00    -0.461 OA
BRANCH  14  15
ATOM     15  C   LIG    1       41.371  29.992   8.992  0.00  0.00    +0.229 C 
ATOM     16  C   LIG    1       41.596  30.562  10.379  0.00  0.00    +0.048 C 
ENDBRANCH  14  15
ENDBRANCH  12  14
ENDBRANCH   2  12
TORSDOF 6
ENDMDL
MODEL 2
REMARK VINA RESULT:      -5.8      0.076      3.491
REMARK  Name = 
REMARK                            x       y       z     vdW  Elec       q    Type
REMARK                         _______ _______ _______ _____ _____    ______ ____
ROOT
ATOM      1  C   LIG    1       39.159  32.028   7.352  0.00  0.00    +0.073 A 
ATOM      2  C   LIG    1       38.156  31.985   8.328  0.00  0.00    +0.073 A 
ATOM      3  C   LIG    1       37.329  33.106   8.510  0.00  0.00    +0.016 A 
ATOM      4  C   LIG    1       37.487  34.242   7.715  0.00  0.00    +0.001 A 
ATOM      5  C   LIG    1       38.475  34.274   6.733  0.00  0.00    +0.001 A 
ATOM      6  C   LIG    1       39.313  33.174   6.552  0.00  0.00    +0.016 A 
ENDROOT
BRANCH   1   7
ATOM      7  C   LIG    1       40.126  30.929   7.187  0.00  0.00    +0.340 C 
ATOM      8  O   LIG    1       40.002  30.021   6.384  0.00  0.00    -0.245 OA
BRANCH   7   9
ATOM      9  O   LIG    1       41.142  31.122   8.061  0.00  0.00    -0.461 OA
BRANCH   9  11
ATOM     10  C   LIG    1       41.556  30.582  10.349  0.00  0.00    +0.048 C 
ATOM     11  C   LIG    1       41.362  30.023   8.952  0.00  0.00    +0.229 C 
ENDBRANCH   9  11
ENDBRANCH   7   9
ENDBRANCH   1   7
BRANCH   2  12
ATOM     12  C   LIG    1       37.892  30.811   9.192  0.00  0.00    +0.340 C 
ATOM     13  O   LIG    1       38.176  30.781  10.378  0.00  0.00    -0.245 OA
BRANCH  12  14
ATOM     14  O   LIG    1       37.195  29.874   8.508  0.00  0.00    -0.461 OA
BRANCH  14  15
ATOM     15  C   LIG    1       37.170  28.574   9.111  0.00  0.00    +0.229 C 
ATOM     16  C   LIG    1       38.436  27.843   8.709  0.00  0.00    +0.048 C 
ENDBRANCH  14  15
ENDBRANCH  12  14
ENDBRANCH   2  12
TORSDOF 6
ENDMDL
MODEL 3
REMARK VINA RESULT:      -5.8      4.258      6.834
REMARK  Name = 
REMARK                            x       y       z     vdW  Elec       q    Type
REMARK                         _______ _______ _______ _____ _____    ______ ____
ROOT
ATOM      1  C   LIG    1       41.054  27.483  12.401  0.00  0.00    +0.073 A 
ATOM      2  C   LIG    1       41.002  26.244  11.752  0.00  0.00    +0.073 A 
ATOM      3  C   LIG    1       41.261  25.075  12.485  0.00  0.00    +0.016 A 
ATOM      4  C   LIG    1       41.545  25.142  13.850  0.00  0.00    +0.001 A 
ATOM      5  C   LIG    1       41.579  26.376  14.497  0.00  0.00    +0.001 A 
ATOM      6  C   LIG    1       41.339  27.546  13.776  0.00  0.00    +0.016 A 
ENDROOT
BRANCH   1   7
ATOM      7  C   LIG    1       40.900  28.750  11.665  0.00  0.00    +0.340 C 
ATOM      8  O   LIG    1       41.773  29.259  10.985  0.00  0.00    -0.245 OA
BRANCH   7   9
ATOM      9  O   LIG    1       39.645  29.215  11.876  0.00  0.00    -0.461 OA
BRANCH   9  11
ATOM     10  C   LIG    1       37.661  29.175  10.550  0.00  0.00    +0.048 C 
ATOM     11  C   LIG    1       39.035  29.796  10.718  0.00  0.00    +0.229 C 
ENDBRANCH   9  11
ENDBRANCH   7   9
ENDBRANCH   1   7
BRANCH   2  12
ATOM     12  C   LIG    1       40.674  26.075  10.317  0.00  0.00    +0.340 C 
ATOM     13  O   LIG    1       39.623  26.453   9.825  0.00  0.00    -0.245 OA
BRANCH  12  14
ATOM     14  O   LIG    1       41.740  25.577   9.649  0.00  0.00    -0.461 OA
BRANCH  14  15
ATOM     15  C   LIG    1       42.588  26.557   9.036  0.00  0.00    +0.229 C 
ATOM     16  C   LIG    1       43.986  26.388   9.598  0.00  0.00    +0.048 C 
ENDBRANCH  14  15
ENDBRANCH  12  14
ENDBRANCH   2  12
TORSDOF 6
ENDMDL
MODEL 4
REMARK VINA RESULT:      -5.8      4.268      7.156
REMARK  Name = 
REMARK                            x       y       z     vdW  Elec       q    Type
REMARK                         _______ _______ _______ _____ _____    ______ ____
ROOT
ATOM      1  C   LIG    1       41.041  26.239  11.780  0.00  0.00    +0.073 A 
ATOM      2  C   LIG    1       41.095  27.486  12.415  0.00  0.00    +0.073 A 
ATOM      3  C   LIG    1       41.352  27.542  13.795  0.00  0.00    +0.016 A 
ATOM      4  C   LIG    1       41.575  26.372  14.523  0.00  0.00    +0.001 A 
ATOM      5  C   LIG    1       41.537  25.134  13.884  0.00  0.00    +0.001 A 
ATOM      6  C   LIG    1       41.267  25.064  12.517  0.00  0.00    +0.016 A 
ENDROOT
BRANCH   1   7
ATOM      7  C   LIG    1       40.668  26.109  10.361  0.00  0.00    +0.340 C 
ATOM      8  O   LIG    1       39.587  26.433   9.904  0.00  0.00    -0.245 OA
BRANCH   7   9
ATOM      9  O   LIG    1       41.723  25.588   9.690  0.00  0.00    -0.461 OA
BRANCH   9  11
ATOM     10  C   LIG    1       43.968  26.395   9.601  0.00  0.00    +0.048 C 
ATOM     11  C   LIG    1       42.559  26.568   9.064  0.00  0.00    +0.229 C 
ENDBRANCH   9  11
ENDBRANCH   7   9
ENDBRANCH   1   7
BRANCH   2  12
ATOM     12  C   LIG    1       40.907  28.779  11.717  0.00  0.00    +0.340 C 
ATOM     13  O   LIG    1       41.762  29.281  11.006  0.00  0.00    -0.245 OA
BRANCH  12  14
ATOM     14  O   LIG    1       39.640  29.221  11.884  0.00  0.00    -0.461 OA
BRANCH  14  15
ATOM     15  C   LIG    1       39.039  29.803  10.719  0.00  0.00    +0.229 C 
ATOM     16  C   LIG    1       37.664  29.188  10.542  0.00  0.00    +0.048 C 
ENDBRANCH  14  15
ENDBRANCH  12  14
ENDBRANCH   2  12
TORSDOF 6
ENDMDL
MODEL 5
REMARK VINA RESULT:      -5.8      1.799      3.627
REMARK  Name = 
REMARK                            x       y       z     vdW  Elec       q    Type
REMARK                         _______ _______ _______ _____ _____    ______ ____
ROOT
ATOM      1  C   LIG    1       39.084  31.510   8.016  0.00  0.00    +0.073 A 
ATOM      2  C   LIG    1       39.089  30.111   7.954  0.00  0.00    +0.073 A 
ATOM      3  C   LIG    1       39.776  29.475   6.907  0.00  0.00    +0.016 A 
ATOM      4  C   LIG    1       40.467  30.223   5.952  0.00  0.00    +0.001 A 
ATOM      5  C   LIG    1       40.474  31.615   6.029  0.00  0.00    +0.001 A 
ATOM      6  C   LIG    1       39.782  32.259   7.053  0.00  0.00    +0.016 A 
ENDROOT
BRANCH   1   7
ATOM      7  C   LIG    1       38.292  32.237   9.024  0.00  0.00    +0.340 C 
ATOM      8  O   LIG    1       38.602  32.335  10.198  0.00  0.00    -0.245 OA
BRANCH   7   9
ATOM      9  O   LIG    1       37.202  32.758   8.413  0.00  0.00    -0.461 OA
BRANCH   9  11
ATOM     10  C   LIG    1       37.533  35.052   7.841  0.00  0.00    +0.048 C 
ATOM     11  C   LIG    1       36.886  34.094   8.823  0.00  0.00    +0.229 C 
ENDBRANCH   9  11
ENDBRANCH   7   9
ENDBRANCH   1   7
BRANCH   2  12
ATOM     12  C   LIG    1       38.415  29.236   8.941  0.00  0.00    +0.340 C 
ATOM     13  O   LIG    1       37.210  29.044   8.947  0.00  0.00    -0.245 OA
BRANCH  12  14
ATOM     14  O   LIG    1       39.333  28.610   9.714  0.00  0.00    -0.461 OA
BRANCH  14  15
ATOM     15  C   LIG    1       39.432  29.100  11.058  0.00  0.00    +0.229 C 
ATOM     16  C   LIG    1       40.790  29.755  11.220  0.00  0.00    +0.048 C 
ENDBRANCH  14  15
ENDBRANCH  12  14
ENDBRANCH   2  12
TORSDOF 6
ENDMDL
MODEL 6
REMARK VINA RESULT:      -5.7      1.327      3.309
REMARK  Name = 
REMARK                            x       y       z     vdW  Elec       q    Type
REMARK                         _______ _______ _______ _____ _____    ______ ____
ROOT
ATOM      1  C   LIG    1       39.340  31.764   7.626  0.00  0.00    +0.073 A 
ATOM      2  C   LIG    1       38.084  31.581   8.217  0.00  0.00    +0.073 A 
ATOM      3  C   LIG    1       37.116  32.591   8.096  0.00  0.00    +0.016 A 
ATOM      4  C   LIG    1       37.391  33.756   7.378  0.00  0.00    +0.001 A 
ATOM      5  C   LIG    1       38.637  33.927   6.777  0.00  0.00    +0.001 A 
ATOM      6  C   LIG    1       39.612  32.938   6.903  0.00  0.00    +0.016 A 
ENDROOT
BRANCH   1   7
ATOM      7  C   LIG    1       40.431  30.792   7.810  0.00  0.00    +0.340 C 
ATOM      8  O   LIG    1       41.198  30.792   8.756  0.00  0.00    -0.245 OA
BRANCH   7   9
ATOM      9  O   LIG    1       40.410  29.927   6.767  0.00  0.00    -0.461 OA
BRANCH   9  11
ATOM     10  C   LIG    1       42.107  30.805   5.336  0.00  0.00    +0.048 C 
ATOM     11  C   LIG    1       41.702  29.640   6.221  0.00  0.00    +0.229 C 
ENDBRANCH   9  11
ENDBRANCH   7   9
ENDBRANCH   1   7
BRANCH   2  12
ATOM     12  C   LIG    1       37.692  30.364   8.966  0.00  0.00    +0.340 C 
ATOM     13  O   LIG    1       37.161  29.400   8.439  0.00  0.00    -0.245 OA
BRANCH  12  14
ATOM     14  O   LIG    1       38.123  30.444  10.246  0.00  0.00    -0.461 OA
BRANCH  14  15
ATOM     15  C   LIG    1       38.462  29.190  10.853  0.00  0.00    +0.229 C 
ATOM     16  C   LIG    1       39.749  29.379  11.634  0.00  0.00    +0.048 C 
ENDBRANCH  14  15
ENDBRANCH  12  14
ENDBRANCH   2  12
TORSDOF 6
ENDMDL
MODEL 7
REMARK VINA RESULT:      -5.7      1.976      3.066
REMARK  Name = 
REMARK                            x       y       z     vdW  Elec       q    Type
REMARK                         _______ _______ _______ _____ _____    ______ ____
ROOT
ATOM      1  C   LIG    1       39.800  31.041   8.259  0.00  0.00    +0.073 A 
ATOM      2  C   LIG    1       40.797  30.062   8.174  0.00  0.00    +0.073 A 
ATOM      3  C   LIG    1       41.545  29.947   6.991  0.00  0.00    +0.016 A 
ATOM      4  C   LIG    1       41.315  30.810   5.919  0.00  0.00    +0.001 A 
ATOM      5  C   LIG    1       40.333  31.794   6.013  0.00  0.00    +0.001 A 
ATOM      6  C   LIG    1       39.572  31.909   7.177  0.00  0.00    +0.016 A 
ENDROOT
BRANCH   1   7
ATOM      7  C   LIG    1       38.910  31.141   9.429  0.00  0.00    +0.340 C 
ATOM      8  O   LIG    1       39.122  31.856  10.392  0.00  0.00    -0.245 OA
BRANCH   7   9
ATOM      9  O   LIG    1       37.851  30.321   9.229  0.00  0.00    -0.461 OA
BRANCH   9  11
ATOM     10  C   LIG    1       37.243  28.054   9.665  0.00  0.00    +0.048 C 
ATOM     11  C   LIG    1       37.631  29.382  10.288  0.00  0.00    +0.229 C 
ENDBRANCH   9  11
ENDBRANCH   7   9
ENDBRANCH   1   7
BRANCH   2  12
ATOM     12  C   LIG    1       41.135  29.128   9.273  0.00  0.00    +0.340 C 
ATOM     13  O   LIG    1       41.649  29.489  10.319  0.00  0.00    -0.245 OA
BRANCH  12  14
ATOM     14  O   LIG    1       40.676  27.887   8.990  0.00  0.00    -0.461 OA
BRANCH  14  15
ATOM     15  C   LIG    1       41.416  26.814   9.585  0.00  0.00    +0.229 C 
ATOM     16  C   LIG    1       42.651  26.569   8.740  0.00  0.00    +0.048 C 
ENDBRANCH  14  15
ENDBRANCH  12  14
ENDBRANCH   2  12
TORSDOF 6
ENDMDL
MODEL 8
REMARK VINA RESULT:      -5.7      1.759      3.917
REMARK  Name = 
REMARK                            x       y       z     vdW  Elec       q    Type
REMARK                         _______ _______ _______ _____ _____    ______ ____
ROOT
ATOM      1  C   LIG    1       39.702  30.811   7.679  0.00  0.00    +0.073 A 
ATOM      2  C   LIG    1       40.553  29.724   7.918  0.00  0.00    +0.073 A 
ATOM      3  C   LIG    1       41.600  29.464   7.019  0.00  0.00    +0.016 A 
ATOM      4  C   LIG    1       41.807  30.289   5.912  0.00  0.00    +0.001 A 
ATOM      5  C   LIG    1       40.969  31.379   5.687  0.00  0.00    +0.001 A 
ATOM      6  C   LIG    1       39.916  31.639   6.564  0.00  0.00    +0.016 A 
ENDROOT
BRANCH   1   7
ATOM      7  C   LIG    1       38.523  31.070   8.522  0.00  0.00    +0.340 C 
ATOM      8  O   LIG    1       37.505  30.402   8.502  0.00  0.00    -0.245 OA
BRANCH   7   9
ATOM      9  O   LIG    1       38.784  32.149   9.299  0.00  0.00    -0.461 OA
BRANCH   9  11
ATOM     10  C   LIG    1       37.331  33.860   8.489  0.00  0.00    +0.048 C 
ATOM     11  C   LIG    1       37.625  32.917   9.641  0.00  0.00    +0.229 C 
ENDBRANCH   9  11
ENDBRANCH   7   9
ENDBRANCH   1   7
BRANCH   2  12
ATOM     12  C   LIG    1       40.430  28.819   9.083  0.00  0.00    +0.340 C 
ATOM     13  O   LIG    1       40.945  29.053  10.165  0.00  0.00    -0.245 OA
BRANCH  12  14
ATOM     14  O   LIG    1       39.581  27.804   8.800  0.00  0.00    -0.461 OA
BRANCH  14  15
ATOM     15  C   LIG    1       39.070  27.101   9.941  0.00  0.00    +0.229 C 
ATOM     16  C   LIG    1       37.558  27.206   9.919  0.00  0.00    +0.048 C 
ENDBRANCH  14  15
ENDBRANCH  12  14
ENDBRANCH   2  12
TORSDOF 6
ENDMDL
MODEL 9
REMARK VINA RESULT:      -5.6      2.079      4.159
REMARK  Name = 
REMARK                            x       y       z     vdW  Elec       q    Type
REMARK                         _______ _______ _______ _____ _____    ______ ____
ROOT
ATOM      1  C   LIG    1       40.800  29.723   7.960  0.00  0.00    +0.073 A 
ATOM      2  C   LIG    1       39.852  30.735   8.152  0.00  0.00    +0.073 A 
ATOM      3  C   LIG    1       39.711  31.735   7.176  0.00  0.00    +0.016 A 
ATOM      4  C   LIG    1       40.489  31.711   6.017  0.00  0.00    +0.001 A 
ATOM      5  C   LIG    1       41.420  30.693   5.823  0.00  0.00    +0.001 A 
ATOM      6  C   LIG    1       41.581  29.703   6.792  0.00  0.00    +0.016 A 
ENDROOT
BRANCH   1   7
ATOM      7  C   LIG    1       41.071  28.711   8.995  0.00  0.00    +0.340 C 
ATOM      8  O   LIG    1       40.774  27.534   8.897  0.00  0.00    -0.245 OA
BRANCH   7   9
ATOM      9  O   LIG    1       41.697  29.319  10.032  0.00  0.00    -0.461 OA
BRANCH   9  11
ATOM     10  C   LIG    1       40.731  29.071  12.200  0.00  0.00    +0.048 C 
ATOM     11  C   LIG    1       41.756  28.526  11.224  0.00  0.00    +0.229 C 
ENDBRANCH   9  11
ENDBRANCH   7   9
ENDBRANCH   1   7
BRANCH   2  12
ATOM     12  C   LIG    1       38.959  30.820   9.330  0.00  0.00    +0.340 C 
ATOM     13  O   LIG    1       39.150  31.592  10.256  0.00  0.00    -0.245 OA
BRANCH  12  14
ATOM     14  O   LIG    1       37.874  30.031   9.154  0.00  0.00    -0.461 OA
BRANCH  14  15
ATOM     15  C   LIG    1       37.539  29.196  10.270  0.00  0.00    +0.229 C 
ATOM     16  C   LIG    1       37.360  27.779   9.760  0.00  0.00    +0.048 C 
ENDBRANCH  14  15
ENDBRANCH  12  14
ENDBRANCH   2  12
TORSDOF 6
ENDMDL
