MODEL 1
REMARK VINA RESULT:      -6.7      0.000      0.000
REMARK  Name = 
REMARK                            x       y       z     vdW  Elec       q    Type
REMARK                         _______ _______ _______ _____ _____    ______ ____
ROOT
ATOM      1  C   LIG    1       23.870 -16.224  16.862  0.00  0.00    +0.073 A 
ATOM      2  C   LIG    1       24.151 -15.397  17.957  0.00  0.00    +0.073 A 
ATOM      3  C   LIG    1       23.277 -14.341  18.261  0.00  0.00    +0.016 A 
ATOM      4  C   LIG    1       22.128 -14.128  17.497  0.00  0.00    +0.001 A 
ATOM      5  C   LIG    1       21.843 -14.964  16.419  0.00  0.00    +0.001 A 
ATOM      6  C   LIG    1       22.711 -16.006  16.097  0.00  0.00    +0.016 A 
ENDROOT
BRANCH   1   7
ATOM      7  C   LIG    1       24.803 -17.278  16.428  0.00  0.00    +0.340 C 
ATOM      8  O   LIG    1       25.924 -17.067  16.002  0.00  0.00    -0.245 OA
BRANCH   7   9
ATOM      9  O   LIG    1       24.197 -18.478  16.596  0.00  0.00    -0.461 OA
BRANCH   9  11
ATOM     10  C   LIG    1       23.965 -19.667  18.653  0.00  0.00    +0.048 C 
ATOM     11  C   LIG    1       24.888 -19.360  17.489  0.00  0.00    +0.229 C 
ENDBRANCH   9  11
ENDBRANCH   7   9
ENDBRANCH   1   7
BRANCH   2  12
ATOM     12  C   LIG    1       25.325 -15.570  18.843  0.00  0.00    +0.340 C 
ATOM     13  O   LIG    1       25.358 -16.381  19.754  0.00  0.00    -0.245 OA
BRANCH  12  14
ATOM     14  O   LIG    1       26.356 -14.808  18.409  0.00  0.00    -0.461 OA
BRANCH  14  15
ATOM     15  C   LIG    1       26.700 -13.707  19.260  0.00  0.00    +0.229 C 
ATOM     16  C   LIG    1       26.603 -12.433  18.444  0.00  0.00    +0.048 C 
ENDBRANCH  14  15
ENDBRANCH  12  14
ENDBRANCH   2  12
TORSDOF 6
ENDMDL
MODEL 2
REMARK VINA RESULT:      -6.7      0.067      4.384
REMARK  Name = 
REMARK                            x       y       z     vdW  Elec       q    Type
REMARK                         _______ _______ _______ _____ _____    ______ ____
ROOT
ATOM      1  C   LIG    1       24.112 -15.361  17.936  0.00  0.00    +0.073 A 
ATOM      2  C   LIG    1       23.846 -16.187  16.837  0.00  0.00    +0.073 A 
ATOM      3  C   LIG    1       22.669 -15.985  16.098  0.00  0.00    +0.016 A 
ATOM      4  C   LIG    1       21.784 -14.960  16.438  0.00  0.00    +0.001 A 
ATOM      5  C   LIG    1       22.062 -14.130  17.522  0.00  0.00    +0.001 A 
ATOM      6  C   LIG    1       23.219 -14.330  18.274  0.00  0.00    +0.016 A 
ENDROOT
BRANCH   1   7
ATOM      7  C   LIG    1       25.272 -15.592  18.814  0.00  0.00    +0.340 C 
ATOM      8  O   LIG    1       25.273 -16.357  19.763  0.00  0.00    -0.245 OA
BRANCH   7   9
ATOM      9  O   LIG    1       26.299 -14.825  18.374  0.00  0.00    -0.461 OA
BRANCH   9  11
ATOM     10  C   LIG    1       26.600 -12.459  18.465  0.00  0.00    +0.048 C 
ATOM     11  C   LIG    1       26.645 -13.752  19.257  0.00  0.00    +0.229 C 
ENDBRANCH   9  11
ENDBRANCH   7   9
ENDBRANCH   1   7
BRANCH   2  12
ATOM     12  C   LIG    1       24.744 -17.274  16.382  0.00  0.00    +0.340 C 
ATOM     13  O   LIG    1       25.892 -17.080  16.019  0.00  0.00    -0.245 OA
BRANCH  12  14
ATOM     14  O   LIG    1       24.148 -18.476  16.557  0.00  0.00    -0.461 OA
BRANCH  14  15
ATOM     15  C   LIG    1       24.853 -19.386  17.412  0.00  0.00    +0.229 C 
ATOM     16  C   LIG    1       24.023 -19.594  18.664  0.00  0.00    +0.048 C 
ENDBRANCH  14  15
ENDBRANCH  12  14
ENDBRANCH   2  12
TORSDOF 6
ENDMDL
MODEL 3
REMARK VINA RESULT:      -6.3      1.506      3.638
REMARK  Name = 
REMARK                            x       y       z     vdW  Elec       q    Type
REMARK                         _______ _______ _______ _____ _____    ______ ____
ROOT
ATOM      1  C   LIG    1       26.296 -16.041  18.223  0.00  0.00    +0.073 A 
ATOM      2  C   LIG    1       25.336 -15.253  18.870  0.00  0.00    +0.073 A 
ATOM      3  C   LIG    1       25.759 -14.264  19.773  0.00  0.00    +0.016 A 
ATOM      4  C   LIG    1       27.118 -14.051  20.008  0.00  0.00    +0.001 A 
ATOM      5  C   LIG    1       28.070 -14.826  19.349  0.00  0.00    +0.001 A 
ATOM      6  C   LIG    1       27.663 -15.822  18.462  0.00  0.00    +0.016 A 
ENDROOT
BRANCH   1   7
ATOM      7  C   LIG    1       25.913 -17.164  17.350  0.00  0.00    +0.340 C 
ATOM      8  O   LIG    1       25.689 -17.060  16.157  0.00  0.00    -0.245 OA
BRANCH   7   9
ATOM      9  O   LIG    1       25.869 -18.291  18.101  0.00  0.00    -0.461 OA
BRANCH   9  11
ATOM     10  C   LIG    1       23.834 -19.525  18.286  0.00  0.00    +0.048 C 
ATOM     11  C   LIG    1       25.125 -19.360  17.506  0.00  0.00    +0.229 C 
ENDBRANCH   9  11
ENDBRANCH   7   9
ENDBRANCH   1   7
BRANCH   2  12
ATOM     12  C   LIG    1       23.877 -15.384  18.655  0.00  0.00    +0.340 C 
ATOM     13  O   LIG    1       23.139 -15.963  19.435  0.00  0.00    -0.245 OA
BRANCH  12  14
ATOM     14  O   LIG    1       23.498 -14.670  17.570  0.00  0.00    -0.461 OA
BRANCH  14  15
ATOM     15  C   LIG    1       22.468 -15.272  16.775  0.00  0.00    +0.229 C 
ATOM     16  C   LIG    1       21.361 -14.253  16.589  0.00  0.00    +0.048 C 
ENDBRANCH  14  15
ENDBRANCH  12  14
ENDBRANCH   2  12
TORSDOF 6
ENDMDL
MODEL 4
REMARK VINA RESULT:      -6.3      1.489      4.844
REMARK  Name = 
REMARK                            x       y       z     vdW  Elec       q    Type
REMARK                         _______ _______ _______ _____ _____    ______ ____
ROOT
ATOM      1  C   LIG    1       25.309 -15.251  18.890  0.00  0.00    +0.073 A 
ATOM      2  C   LIG    1       26.235 -16.066  18.229  0.00  0.00    +0.073 A 
ATOM      3  C   LIG    1       27.607 -15.807  18.381  0.00  0.00    +0.016 A 
ATOM      4  C   LIG    1       28.046 -14.765  19.198  0.00  0.00    +0.001 A 
ATOM      5  C   LIG    1       27.121 -13.967  19.869  0.00  0.00    +0.001 A 
ATOM      6  C   LIG    1       25.756 -14.203  19.713  0.00  0.00    +0.016 A 
ENDROOT
BRANCH   1   7
ATOM      7  C   LIG    1       23.858 -15.403  18.684  0.00  0.00    +0.340 C 
ATOM      8  O   LIG    1       23.134 -16.087  19.386  0.00  0.00    -0.245 OA
BRANCH   7   9
ATOM      9  O   LIG    1       23.500 -14.659  17.610  0.00  0.00    -0.461 OA
BRANCH   9  11
ATOM     10  C   LIG    1       21.448 -14.147  16.504  0.00  0.00    +0.048 C 
ATOM     11  C   LIG    1       22.453 -15.238  16.822  0.00  0.00    +0.229 C 
ENDBRANCH   9  11
ENDBRANCH   7   9
ENDBRANCH   1   7
BRANCH   2  12
ATOM     12  C   LIG    1       25.862 -17.215  17.371  0.00  0.00    +0.340 C 
ATOM     13  O   LIG    1       25.702 -17.121  16.165  0.00  0.00    -0.245 OA
BRANCH  12  14
ATOM     14  O   LIG    1       25.860 -18.358  18.095  0.00  0.00    -0.461 OA
BRANCH  14  15
ATOM     15  C   LIG    1       25.094 -19.433  17.535  0.00  0.00    +0.229 C 
ATOM     16  C   LIG    1       23.727 -19.427  18.192  0.00  0.00    +0.048 C 
ENDBRANCH  14  15
ENDBRANCH  12  14
ENDBRANCH   2  12
TORSDOF 6
ENDMDL
MODEL 5
REMARK VINA RESULT:      -6.2      2.118      4.698
REMARK  Name = 
REMARK                            x       y       z     vdW  Elec       q    Type
REMARK                         _______ _______ _______ _____ _____    ______ ____
ROOT
ATOM      1  C   LIG    1       23.848 -14.714  17.905  0.00  0.00    +0.073 A 
ATOM      2  C   LIG    1       24.350 -15.924  17.410  0.00  0.00    +0.073 A 
ATOM      3  C   LIG    1       25.737 -16.143  17.415  0.00  0.00    +0.016 A 
ATOM      4  C   LIG    1       26.607 -15.178  17.926  0.00  0.00    +0.001 A 
ATOM      5  C   LIG    1       26.102 -13.983  18.433  0.00  0.00    +0.001 A 
ATOM      6  C   LIG    1       24.727 -13.746  18.420  0.00  0.00    +0.016 A 
ENDROOT
BRANCH   1   7
ATOM      7  C   LIG    1       22.415 -14.381  17.826  0.00  0.00    +0.340 C 
ATOM      8  O   LIG    1       21.917 -13.698  16.950  0.00  0.00    -0.245 OA
BRANCH   7   9
ATOM      9  O   LIG    1       21.785 -14.966  18.873  0.00  0.00    -0.461 OA
BRANCH   9  11
ATOM     10  C   LIG    1       20.120 -16.543  18.212  0.00  0.00    +0.048 C 
ATOM     11  C   LIG    1       20.373 -15.125  18.689  0.00  0.00    +0.229 C 
ENDBRANCH   9  11
ENDBRANCH   7   9
ENDBRANCH   1   7
BRANCH   2  12
ATOM     12  C   LIG    1       23.502 -17.018  16.882  0.00  0.00    +0.340 C 
ATOM     13  O   LIG    1       23.095 -17.048  15.732  0.00  0.00    -0.245 OA
BRANCH  12  14
ATOM     14  O   LIG    1       23.372 -17.997  17.807  0.00  0.00    -0.461 OA
BRANCH  14  15
ATOM     15  C   LIG    1       23.766 -19.304  17.368  0.00  0.00    +0.229 C 
ATOM     16  C   LIG    1       25.124 -19.612  17.969  0.00  0.00    +0.048 C 
ENDBRANCH  14  15
ENDBRANCH  12  14
ENDBRANCH   2  12
TORSDOF 6
ENDMDL
MODEL 6
REMARK VINA RESULT:      -6.1      1.870      3.717
REMARK  Name = 
REMARK                            x       y       z     vdW  Elec       q    Type
REMARK                         _______ _______ _______ _____ _____    ______ ____
ROOT
ATOM      1  C   LIG    1       25.628 -15.754  17.720  0.00  0.00    +0.073 A 
ATOM      2  C   LIG    1       24.401 -15.141  17.998  0.00  0.00    +0.073 A 
ATOM      3  C   LIG    1       24.390 -13.885  18.627  0.00  0.00    +0.016 A 
ATOM      4  C   LIG    1       25.586 -13.242  18.951  0.00  0.00    +0.001 A 
ATOM      5  C   LIG    1       26.805 -13.848  18.656  0.00  0.00    +0.001 A 
ATOM      6  C   LIG    1       26.830 -15.103  18.047  0.00  0.00    +0.016 A 
ENDROOT
BRANCH   1   7
ATOM      7  C   LIG    1       25.704 -17.116  17.163  0.00  0.00    +0.340 C 
ATOM      8  O   LIG    1       25.790 -17.367  15.975  0.00  0.00    -0.245 OA
BRANCH   7   9
ATOM      9  O   LIG    1       25.669 -17.998  18.191  0.00  0.00    -0.461 OA
BRANCH   9  11
ATOM     10  C   LIG    1       23.913 -19.596  18.436  0.00  0.00    +0.048 C 
ATOM     11  C   LIG    1       25.268 -19.320  17.812  0.00  0.00    +0.229 C 
ENDBRANCH   9  11
ENDBRANCH   7   9
ENDBRANCH   1   7
BRANCH   2  12
ATOM     12  C   LIG    1       23.086 -15.731  17.659  0.00  0.00    +0.340 C 
ATOM     13  O   LIG    1       22.607 -15.690  16.537  0.00  0.00    -0.245 OA
BRANCH  12  14
ATOM     14  O   LIG    1       22.588 -16.408  18.719  0.00  0.00    -0.461 OA
BRANCH  14  15
ATOM     15  C   LIG    1       21.204 -16.167  19.002  0.00  0.00    +0.229 C 
ATOM     16  C   LIG    1       20.437 -17.444  18.718  0.00  0.00    +0.048 C 
ENDBRANCH  14  15
ENDBRANCH  12  14
ENDBRANCH   2  12
TORSDOF 6
ENDMDL
MODEL 7
REMARK VINA RESULT:      -6.1      1.648      2.184
REMARK  Name = 
REMARK                            x       y       z     vdW  Elec       q    Type
REMARK                         _______ _______ _______ _____ _____    ______ ____
ROOT
ATOM      1  C   LIG    1       22.482 -16.767  18.169  0.00  0.00    +0.073 A 
ATOM      2  C   LIG    1       23.068 -15.642  17.574  0.00  0.00    +0.073 A 
ATOM      3  C   LIG    1       22.241 -14.621  17.078  0.00  0.00    +0.016 A 
ATOM      4  C   LIG    1       20.853 -14.712  17.195  0.00  0.00    +0.001 A 
ATOM      5  C   LIG    1       20.275 -15.825  17.803  0.00  0.00    +0.001 A 
ATOM      6  C   LIG    1       21.084 -16.853  18.285  0.00  0.00    +0.016 A 
ENDROOT
BRANCH   1   7
ATOM      7  C   LIG    1       23.290 -17.918  18.608  0.00  0.00    +0.340 C 
ATOM      8  O   LIG    1       24.170 -17.857  19.447  0.00  0.00    -0.245 OA
BRANCH   7   9
ATOM      9  O   LIG    1       22.873 -19.014  17.930  0.00  0.00    -0.461 OA
BRANCH   9  11
ATOM     10  C   LIG    1       23.639 -19.151  15.674  0.00  0.00    +0.048 C 
ATOM     11  C   LIG    1       23.880 -19.605  17.101  0.00  0.00    +0.229 C 
ENDBRANCH   9  11
ENDBRANCH   7   9
ENDBRANCH   1   7
BRANCH   2  12
ATOM     12  C   LIG    1       24.529 -15.445  17.439  0.00  0.00    +0.340 C 
ATOM     13  O   LIG    1       25.231 -16.136  16.718  0.00  0.00    -0.245 OA
BRANCH  12  14
ATOM     14  O   LIG    1       24.916 -14.336  18.112  0.00  0.00    -0.461 OA
BRANCH  14  15
ATOM     15  C   LIG    1       26.325 -14.230  18.352  0.00  0.00    +0.229 C 
ATOM     16  C   LIG    1       26.615 -12.821  18.832  0.00  0.00    +0.048 C 
ENDBRANCH  14  15
ENDBRANCH  12  14
ENDBRANCH   2  12
TORSDOF 6
ENDMDL
MODEL 8
REMARK VINA RESULT:      -6.1      1.766      4.341
REMARK  Name = 
REMARK                            x       y       z     vdW  Elec       q    Type
REMARK                         _______ _______ _______ _____ _____    ______ ____
ROOT
ATOM      1  C   LIG    1       22.791 -15.543  17.630  0.00  0.00    +0.073 A 
ATOM      2  C   LIG    1       22.386 -16.771  18.168  0.00  0.00    +0.073 A 
ATOM      3  C   LIG    1       21.014 -17.042  18.301  0.00  0.00    +0.016 A 
ATOM      4  C   LIG    1       20.063 -16.109  17.883  0.00  0.00    +0.001 A 
ATOM      5  C   LIG    1       20.470 -14.896  17.333  0.00  0.00    +0.001 A 
ATOM      6  C   LIG    1       21.829 -14.608  17.210  0.00  0.00    +0.016 A 
ENDROOT
BRANCH   1   7
ATOM      7  C   LIG    1       24.211 -15.157  17.567  0.00  0.00    +0.340 C 
ATOM      8  O   LIG    1       25.050 -15.737  16.900  0.00  0.00    -0.245 OA
BRANCH   7   9
ATOM      9  O   LIG    1       24.393 -14.072  18.356  0.00  0.00    -0.461 OA
BRANCH   9  11
ATOM     10  C   LIG    1       26.280 -12.637  18.633  0.00  0.00    +0.048 C 
ATOM     11  C   LIG    1       25.691 -13.997  18.956  0.00  0.00    +0.229 C 
ENDBRANCH   9  11
ENDBRANCH   7   9
ENDBRANCH   1   7
BRANCH   2  12
ATOM     12  C   LIG    1       23.322 -17.833  18.604  0.00  0.00    +0.340 C 
ATOM     13  O   LIG    1       24.175 -17.658  19.459  0.00  0.00    -0.245 OA
BRANCH  12  14
ATOM     14  O   LIG    1       23.001 -19.010  18.019  0.00  0.00    -0.461 OA
BRANCH  14  15
ATOM     15  C   LIG    1       24.011 -19.560  17.163  0.00  0.00    +0.229 C 
ATOM     16  C   LIG    1       23.685 -19.165  15.736  0.00  0.00    +0.048 C 
ENDBRANCH  14  15
ENDBRANCH  12  14
ENDBRANCH   2  12
TORSDOF 6
ENDMDL
MODEL 9
REMARK VINA RESULT:      -6.1      3.029      5.089
REMARK  Name = 
REMARK                            x       y       z     vdW  Elec       q    Type
REMARK                         _______ _______ _______ _____ _____    ______ ____
ROOT
ATOM      1  C   LIG    1       20.276 -15.324  17.774  0.00  0.00    +0.073 A 
ATOM      2  C   LIG    1       20.473 -16.705  17.893  0.00  0.00    +0.073 A 
ATOM      3  C   LIG    1       19.415 -17.511  18.345  0.00  0.00    +0.016 A 
ATOM      4  C   LIG    1       18.174 -16.949  18.650  0.00  0.00    +0.001 A 
ATOM      5  C   LIG    1       17.978 -15.577  18.514  0.00  0.00    +0.001 A 
ATOM      6  C   LIG    1       19.025 -14.763  18.082  0.00  0.00    +0.016 A 
ENDROOT
BRANCH   1   7
ATOM      7  C   LIG    1       21.377 -14.414  17.412  0.00  0.00    +0.340 C 
ATOM      8  O   LIG    1       21.567 -13.981  16.289  0.00  0.00    -0.245 OA
BRANCH   7   9
ATOM      9  O   LIG    1       22.101 -14.158  18.527  0.00  0.00    -0.461 OA
BRANCH   9  11
ATOM     10  C   LIG    1       24.260 -15.082  18.957  0.00  0.00    +0.048 C 
ATOM     11  C   LIG    1       23.498 -13.957  18.282  0.00  0.00    +0.229 C 
ENDBRANCH   9  11
ENDBRANCH   7   9
ENDBRANCH   1   7
BRANCH   2  12
ATOM     12  C   LIG    1       21.742 -17.392  17.558  0.00  0.00    +0.340 C 
ATOM     13  O   LIG    1       22.319 -17.241  16.494  0.00  0.00    -0.245 OA
BRANCH  12  14
ATOM     14  O   LIG    1       22.200 -18.078  18.630  0.00  0.00    -0.461 OA
BRANCH  14  15
ATOM     15  C   LIG    1       23.553 -18.542  18.524  0.00  0.00    +0.229 C 
ATOM     16  C   LIG    1       23.522 -19.967  18.007  0.00  0.00    +0.048 C 
ENDBRANCH  14  15
ENDBRANCH  12  14
ENDBRANCH   2  12
TORSDOF 6
ENDMDL
