MODEL 1
REMARK VINA RESULT:      -5.7      0.000      0.000
REMARK  Name = 
REMARK                            x       y       z     vdW  Elec       q    Type
REMARK                         _______ _______ _______ _____ _____    ______ ____
ROOT
ATOM      1  C   LIG    1        3.569   8.449  -2.964  0.00  0.00    +0.073 A 
ATOM      2  C   LIG    1        3.050   8.287  -1.674  0.00  0.00    +0.073 A 
ATOM      3  C   LIG    1        2.876   9.418  -0.858  0.00  0.00    +0.016 A 
ATOM      4  C   LIG    1        3.194  10.691  -1.333  0.00  0.00    +0.001 A 
ATOM      5  C   LIG    1        3.694  10.850  -2.624  0.00  0.00    +0.001 A 
ATOM      6  C   LIG    1        3.886   9.734  -3.438  0.00  0.00    +0.016 A 
ENDROOT
BRANCH   1   7
ATOM      7  C   LIG    1        3.876   7.294  -3.825  0.00  0.00    +0.340 C 
ATOM      8  O   LIG    1        4.904   6.644  -3.760  0.00  0.00    -0.245 OA
BRANCH   7   9
ATOM      9  O   LIG    1        2.830   7.099  -4.665  0.00  0.00    -0.461 OA
BRANCH   9  11
ATOM     10  C   LIG    1        2.307   8.257  -6.685  0.00  0.00    +0.048 C 
ATOM     11  C   LIG    1        3.173   7.184  -6.053  0.00  0.00    +0.229 C 
ENDBRANCH   9  11
ENDBRANCH   7   9
ENDBRANCH   1   7
BRANCH   2  12
ATOM     12  C   LIG    1        2.652   6.981  -1.100  0.00  0.00    +0.340 C 
ATOM     13  O   LIG    1        1.560   6.473  -1.297  0.00  0.00    -0.245 OA
BRANCH  12  14
ATOM     14  O   LIG    1        3.700   6.410  -0.463  0.00  0.00    -0.461 OA
BRANCH  14  15
ATOM     15  C   LIG    1        3.819   4.992  -0.636  0.00  0.00    +0.229 C 
ATOM     16  C   LIG    1        5.291   4.659  -0.784  0.00  0.00    +0.048 C 
ENDBRANCH  14  15
ENDBRANCH  12  14
ENDBRANCH   2  12
TORSDOF 6
ENDMDL
MODEL 2
REMARK VINA RESULT:      -5.7      1.694      3.566
REMARK  Name = 
REMARK                            x       y       z     vdW  Elec       q    Type
REMARK                         _______ _______ _______ _____ _____    ______ ____
ROOT
ATOM      1  C   LIG    1        3.620   8.639  -2.691  0.00  0.00    +0.073 A 
ATOM      2  C   LIG    1        3.113   7.349  -2.492  0.00  0.00    +0.073 A 
ATOM      3  C   LIG    1        3.020   6.473  -3.585  0.00  0.00    +0.016 A 
ATOM      4  C   LIG    1        3.447   6.872  -4.853  0.00  0.00    +0.001 A 
ATOM      5  C   LIG    1        3.968   8.150  -5.043  0.00  0.00    +0.001 A 
ATOM      6  C   LIG    1        4.050   9.036  -3.969  0.00  0.00    +0.016 A 
ENDROOT
BRANCH   1   7
ATOM      7  C   LIG    1        3.640   9.638  -1.609  0.00  0.00    +0.340 C 
ATOM      8  O   LIG    1        2.688   9.894  -0.894  0.00  0.00    -0.245 OA
BRANCH   7   9
ATOM      9  O   LIG    1        4.877  10.188  -1.561  0.00  0.00    -0.461 OA
BRANCH   9  11
ATOM     10  C   LIG    1        4.504  12.406  -2.361  0.00  0.00    +0.048 C 
ATOM     11  C   LIG    1        4.889  11.563  -1.160  0.00  0.00    +0.229 C 
ENDBRANCH   9  11
ENDBRANCH   7   9
ENDBRANCH   1   7
BRANCH   2  12
ATOM     12  C   LIG    1        2.669   6.828  -1.178  0.00  0.00    +0.340 C 
ATOM     13  O   LIG    1        1.494   6.692  -0.878  0.00  0.00    -0.245 OA
BRANCH  12  14
ATOM     14  O   LIG    1        3.736   6.422  -0.451  0.00  0.00    -0.461 OA
BRANCH  14  15
ATOM     15  C   LIG    1        3.910   5.001  -0.367  0.00  0.00    +0.229 C 
ATOM     16  C   LIG    1        5.322   4.673  -0.811  0.00  0.00    +0.048 C 
ENDBRANCH  14  15
ENDBRANCH  12  14
ENDBRANCH   2  12
TORSDOF 6
ENDMDL
MODEL 3
REMARK VINA RESULT:      -5.7      1.876      4.342
REMARK  Name = 
REMARK                            x       y       z     vdW  Elec       q    Type
REMARK                         _______ _______ _______ _____ _____    ______ ____
ROOT
ATOM      1  C   LIG    1        3.153   8.208  -1.514  0.00  0.00    +0.073 A 
ATOM      2  C   LIG    1        3.041   7.126  -2.395  0.00  0.00    +0.073 A 
ATOM      3  C   LIG    1        2.326   5.986  -1.993  0.00  0.00    +0.016 A 
ATOM      4  C   LIG    1        1.714   5.938  -0.739  0.00  0.00    +0.001 A 
ATOM      5  C   LIG    1        1.813   7.024   0.128  0.00  0.00    +0.001 A 
ATOM      6  C   LIG    1        2.534   8.155  -0.253  0.00  0.00    +0.016 A 
ENDROOT
BRANCH   1   7
ATOM      7  C   LIG    1        3.980   9.385  -1.834  0.00  0.00    +0.340 C 
ATOM      8  O   LIG    1        5.195   9.369  -1.908  0.00  0.00    -0.245 OA
BRANCH   7   9
ATOM      9  O   LIG    1        3.156  10.443  -2.029  0.00  0.00    -0.461 OA
BRANCH   9  11
ATOM     10  C   LIG    1        3.164  11.000  -4.350  0.00  0.00    +0.048 C 
ATOM     11  C   LIG    1        3.651  11.401  -2.971  0.00  0.00    +0.229 C 
ENDBRANCH   9  11
ENDBRANCH   7   9
ENDBRANCH   1   7
BRANCH   2  12
ATOM     12  C   LIG    1        3.626   7.103  -3.756  0.00  0.00    +0.340 C 
ATOM     13  O   LIG    1        4.732   6.647  -3.997  0.00  0.00    -0.245 OA
BRANCH  12  14
ATOM     14  O   LIG    1        2.717   7.530  -4.663  0.00  0.00    -0.461 OA
BRANCH  14  15
ATOM     15  C   LIG    1        3.091   7.341  -6.034  0.00  0.00    +0.229 C 
ATOM     16  C   LIG    1        2.306   8.329  -6.875  0.00  0.00    +0.048 C 
ENDBRANCH  14  15
ENDBRANCH  12  14
ENDBRANCH   2  12
TORSDOF 6
ENDMDL
MODEL 4
REMARK VINA RESULT:      -5.6      1.890      3.765
REMARK  Name = 
REMARK                            x       y       z     vdW  Elec       q    Type
REMARK                         _______ _______ _______ _____ _____    ______ ____
ROOT
ATOM      1  C   LIG    1        3.039   6.987  -2.512  0.00  0.00    +0.073 A 
ATOM      2  C   LIG    1        3.152   8.055  -1.613  0.00  0.00    +0.073 A 
ATOM      3  C   LIG    1        2.471   7.993  -0.386  0.00  0.00    +0.016 A 
ATOM      4  C   LIG    1        1.707   6.873  -0.054  0.00  0.00    +0.001 A 
ATOM      5  C   LIG    1        1.611   5.805  -0.945  0.00  0.00    +0.001 A 
ATOM      6  C   LIG    1        2.270   5.861  -2.172  0.00  0.00    +0.016 A 
ENDROOT
BRANCH   1   7
ATOM      7  C   LIG    1        3.640   7.040  -3.856  0.00  0.00    +0.340 C 
ATOM      8  O   LIG    1        4.770   6.668  -4.117  0.00  0.00    -0.245 OA
BRANCH   7   9
ATOM      9  O   LIG    1        2.724   7.556  -4.711  0.00  0.00    -0.461 OA
BRANCH   9  11
ATOM     10  C   LIG    1        2.295   8.407  -6.899  0.00  0.00    +0.048 C 
ATOM     11  C   LIG    1        3.042   7.361  -6.094  0.00  0.00    +0.229 C 
ENDBRANCH   9  11
ENDBRANCH   7   9
ENDBRANCH   1   7
BRANCH   2  12
ATOM     12  C   LIG    1        3.968   9.265  -1.865  0.00  0.00    +0.340 C 
ATOM     13  O   LIG    1        5.183   9.240  -1.966  0.00  0.00    -0.245 OA
BRANCH  12  14
ATOM     14  O   LIG    1        3.165  10.332  -2.088  0.00  0.00    -0.461 OA
BRANCH  14  15
ATOM     15  C   LIG    1        3.715  11.339  -2.948  0.00  0.00    +0.229 C 
ATOM     16  C   LIG    1        3.228  11.068  -4.359  0.00  0.00    +0.048 C 
ENDBRANCH  14  15
ENDBRANCH  12  14
ENDBRANCH   2  12
TORSDOF 6
ENDMDL
MODEL 5
REMARK VINA RESULT:      -5.6      1.766      4.879
REMARK  Name = 
REMARK                            x       y       z     vdW  Elec       q    Type
REMARK                         _______ _______ _______ _____ _____    ______ ____
ROOT
ATOM      1  C   LIG    1        3.358   6.369  -0.920  0.00  0.00    +0.073 A 
ATOM      2  C   LIG    1        4.151   6.707  -2.023  0.00  0.00    +0.073 A 
ATOM      3  C   LIG    1        5.345   6.003  -2.249  0.00  0.00    +0.016 A 
ATOM      4  C   LIG    1        5.728   4.963  -1.400  0.00  0.00    +0.001 A 
ATOM      5  C   LIG    1        4.927   4.619  -0.314  0.00  0.00    +0.001 A 
ATOM      6  C   LIG    1        3.747   5.321  -0.068  0.00  0.00    +0.016 A 
ENDROOT
BRANCH   1   7
ATOM      7  C   LIG    1        2.153   7.141  -0.567  0.00  0.00    +0.340 C 
ATOM      8  O   LIG    1        2.140   8.345  -0.383  0.00  0.00    -0.245 OA
BRANCH   7   9
ATOM      9  O   LIG    1        1.105   6.285  -0.499  0.00  0.00    -0.461 OA
BRANCH   9  11
ATOM     10  C   LIG    1       -0.839   5.439  -1.595  0.00  0.00    +0.048 C 
ATOM     11  C   LIG    1        0.603   5.875  -1.776  0.00  0.00    +0.229 C 
ENDBRANCH   9  11
ENDBRANCH   7   9
ENDBRANCH   1   7
BRANCH   2  12
ATOM     12  C   LIG    1        3.806   7.770  -2.995  0.00  0.00    +0.340 C 
ATOM     13  O   LIG    1        4.367   8.854  -3.024  0.00  0.00    -0.245 OA
BRANCH  12  14
ATOM     14  O   LIG    1        2.902   7.309  -3.891  0.00  0.00    -0.461 OA
BRANCH  14  15
ATOM     15  C   LIG    1        3.436   6.978  -5.180  0.00  0.00    +0.229 C 
ATOM     16  C   LIG    1        2.714   7.817  -6.216  0.00  0.00    +0.048 C 
ENDBRANCH  14  15
ENDBRANCH  12  14
ENDBRANCH   2  12
TORSDOF 6
ENDMDL
MODEL 6
REMARK VINA RESULT:      -5.6      9.522     11.518
REMARK  Name = 
REMARK                            x       y       z     vdW  Elec       q    Type
REMARK                         _______ _______ _______ _____ _____    ______ ____
ROOT
ATOM      1  C   LIG    1       10.078   8.705 -11.329  0.00  0.00    +0.073 A 
ATOM      2  C   LIG    1       10.058   8.782  -9.931  0.00  0.00    +0.073 A 
ATOM      3  C   LIG    1       10.188   7.604  -9.178  0.00  0.00    +0.016 A 
ATOM      4  C   LIG    1       10.359   6.372  -9.811  0.00  0.00    +0.001 A 
ATOM      5  C   LIG    1       10.396   6.302 -11.202  0.00  0.00    +0.001 A 
ATOM      6  C   LIG    1       10.252   7.463 -11.962  0.00  0.00    +0.016 A 
ENDROOT
BRANCH   1   7
ATOM      7  C   LIG    1        9.838   9.889 -12.172  0.00  0.00    +0.340 C 
ATOM      8  O   LIG    1        8.736  10.355 -12.400  0.00  0.00    -0.245 OA
BRANCH   7   9
ATOM      9  O   LIG    1       11.033  10.342 -12.621  0.00  0.00    -0.461 OA
BRANCH   9  11
ATOM     10  C   LIG    1       11.333   9.637 -14.881  0.00  0.00    +0.048 C 
ATOM     11  C   LIG    1       11.009  10.809 -13.975  0.00  0.00    +0.229 C 
ENDBRANCH   9  11
ENDBRANCH   7   9
ENDBRANCH   1   7
BRANCH   2  12
ATOM     12  C   LIG    1        9.918  10.048  -9.174  0.00  0.00    +0.340 C 
ATOM     13  O   LIG    1        8.923  10.329  -8.526  0.00  0.00    -0.245 OA
BRANCH  12  14
ATOM     14  O   LIG    1       11.077  10.746  -9.211  0.00  0.00    -0.461 OA
BRANCH  14  15
ATOM     15  C   LIG    1       11.301  11.613  -8.091  0.00  0.00    +0.229 C 
ATOM     16  C   LIG    1       12.602  12.357  -8.326  0.00  0.00    +0.048 C 
ENDBRANCH  14  15
ENDBRANCH  12  14
ENDBRANCH   2  12
TORSDOF 6
ENDMDL
MODEL 7
REMARK VINA RESULT:      -5.5      9.463     11.997
REMARK  Name = 
REMARK                            x       y       z     vdW  Elec       q    Type
REMARK                         _______ _______ _______ _____ _____    ______ ____
ROOT
ATOM      1  C   LIG    1       10.027   8.848  -9.741  0.00  0.00    +0.073 A 
ATOM      2  C   LIG    1       10.058   8.752 -11.137  0.00  0.00    +0.073 A 
ATOM      3  C   LIG    1       10.257   7.496 -11.733  0.00  0.00    +0.016 A 
ATOM      4  C   LIG    1       10.401   6.352 -10.947  0.00  0.00    +0.001 A 
ATOM      5  C   LIG    1       10.352   6.449  -9.558  0.00  0.00    +0.001 A 
ATOM      6  C   LIG    1       10.171   7.693  -8.953  0.00  0.00    +0.016 A 
ENDROOT
BRANCH   1   7
ATOM      7  C   LIG    1        9.931  10.149  -9.056  0.00  0.00    +0.340 C 
ATOM      8  O   LIG    1        8.923  10.566  -8.515  0.00  0.00    -0.245 OA
BRANCH   7   9
ATOM      9  O   LIG    1       11.137  10.762  -9.137  0.00  0.00    -0.461 OA
BRANCH   9  11
ATOM     10  C   LIG    1       12.653  12.464  -8.429  0.00  0.00    +0.048 C 
ATOM     11  C   LIG    1       11.379  11.712  -8.093  0.00  0.00    +0.229 C 
ENDBRANCH   9  11
ENDBRANCH   7   9
ENDBRANCH   1   7
BRANCH   2  12
ATOM     12  C   LIG    1        9.879   9.905 -12.050  0.00  0.00    +0.340 C 
ATOM     13  O   LIG    1        8.799  10.442 -12.239  0.00  0.00    -0.245 OA
BRANCH  12  14
ATOM     14  O   LIG    1       11.078  10.327 -12.511  0.00  0.00    -0.461 OA
BRANCH  14  15
ATOM     15  C   LIG    1       11.073  10.825 -13.856  0.00  0.00    +0.229 C 
ATOM     16  C   LIG    1       11.300   9.654 -14.792  0.00  0.00    +0.048 C 
ENDBRANCH  14  15
ENDBRANCH  12  14
ENDBRANCH   2  12
TORSDOF 6
ENDMDL
MODEL 8
REMARK VINA RESULT:      -5.5      9.849     12.284
REMARK  Name = 
REMARK                            x       y       z     vdW  Elec       q    Type
REMARK                         _______ _______ _______ _____ _____    ______ ____
ROOT
ATOM      1  C   LIG    1       14.448   1.616  -3.851  0.00  0.00    +0.073 A 
ATOM      2  C   LIG    1       13.438   2.103  -3.014  0.00  0.00    +0.073 A 
ATOM      3  C   LIG    1       13.778   2.594  -1.743  0.00  0.00    +0.016 A 
ATOM      4  C   LIG    1       15.110   2.618  -1.325  0.00  0.00    +0.001 A 
ATOM      5  C   LIG    1       16.115   2.148  -2.168  0.00  0.00    +0.001 A 
ATOM      6  C   LIG    1       15.788   1.644  -3.427  0.00  0.00    +0.016 A 
ENDROOT
BRANCH   1   7
ATOM      7  C   LIG    1       14.143   0.990  -5.149  0.00  0.00    +0.340 C 
ATOM      8  O   LIG    1       13.303   0.123  -5.311  0.00  0.00    -0.245 OA
BRANCH   7   9
ATOM      9  O   LIG    1       14.941   1.549  -6.090  0.00  0.00    -0.461 OA
BRANCH   9  11
ATOM     10  C   LIG    1       16.313   0.190  -7.492  0.00  0.00    +0.048 C 
ATOM     11  C   LIG    1       14.954   0.845  -7.337  0.00  0.00    +0.229 C 
ENDBRANCH   9  11
ENDBRANCH   7   9
ENDBRANCH   1   7
BRANCH   2  12
ATOM     12  C   LIG    1       12.005   2.150  -3.387  0.00  0.00    +0.340 C 
ATOM     13  O   LIG    1       11.233   1.229  -3.179  0.00  0.00    -0.245 OA
BRANCH  12  14
ATOM     14  O   LIG    1       11.682   3.380  -3.852  0.00  0.00    -0.461 OA
BRANCH  14  15
ATOM     15  C   LIG    1       10.289   3.581  -4.124  0.00  0.00    +0.229 C 
ATOM     16  C   LIG    1        9.706   4.415  -2.999  0.00  0.00    +0.048 C 
ENDBRANCH  14  15
ENDBRANCH  12  14
ENDBRANCH   2  12
TORSDOF 6
ENDMDL
MODEL 9
REMARK VINA RESULT:      -5.5      1.981      4.842
REMARK  Name = 
REMARK                            x       y       z     vdW  Elec       q    Type
REMARK                         _______ _______ _______ _____ _____    ______ ____
ROOT
ATOM      1  C   LIG    1        3.484   7.914  -3.694  0.00  0.00    +0.073 A 
ATOM      2  C   LIG    1        3.975   9.212  -3.880  0.00  0.00    +0.073 A 
ATOM      3  C   LIG    1        3.884   9.803  -5.150  0.00  0.00    +0.016 A 
ATOM      4  C   LIG    1        3.291   9.117  -6.212  0.00  0.00    +0.001 A 
ATOM      5  C   LIG    1        2.788   7.832  -6.018  0.00  0.00    +0.001 A 
ATOM      6  C   LIG    1        2.887   7.227  -4.765  0.00  0.00    +0.016 A 
ENDROOT
BRANCH   1   7
ATOM      7  C   LIG    1        3.650   7.199  -2.416  0.00  0.00    +0.340 C 
ATOM      8  O   LIG    1        4.692   6.690  -2.045  0.00  0.00    -0.245 OA
BRANCH   7   9
ATOM      9  O   LIG    1        2.466   7.226  -1.758  0.00  0.00    -0.461 OA
BRANCH   9  11
ATOM     10  C   LIG    1        2.118   7.136   0.602  0.00  0.00    +0.048 C 
ATOM     11  C   LIG    1        2.476   8.028  -0.572  0.00  0.00    +0.229 C 
ENDBRANCH   9  11
ENDBRANCH   7   9
ENDBRANCH   1   7
BRANCH   2  12
ATOM     12  C   LIG    1        4.586  10.027  -2.804  0.00  0.00    +0.340 C 
ATOM     13  O   LIG    1        5.772   9.971  -2.519  0.00  0.00    -0.245 OA
BRANCH  12  14
ATOM     14  O   LIG    1        3.680  10.899  -2.306  0.00  0.00    -0.461 OA
BRANCH  14  15
ATOM     15  C   LIG    1        4.187  11.807  -1.319  0.00  0.00    +0.229 C 
ATOM     16  C   LIG    1        4.456  13.136  -1.996  0.00  0.00    +0.048 C 
ENDBRANCH  14  15
ENDBRANCH  12  14
ENDBRANCH   2  12
TORSDOF 6
ENDMDL
