MODEL 1
REMARK VINA RESULT:      -6.3      0.000      0.000
REMARK  Name = 
REMARK                            x       y       z     vdW  Elec       q    Type
REMARK                         _______ _______ _______ _____ _____    ______ ____
ROOT
ATOM      1  C   LIG    1        3.174  30.663   5.191  0.00  0.00    +0.073 A 
ATOM      2  C   LIG    1        2.007  30.748   4.422  0.00  0.00    +0.073 A 
ATOM      3  C   LIG    1        1.914  31.733   3.425  0.00  0.00    +0.016 A 
ATOM      4  C   LIG    1        2.978  32.603   3.185  0.00  0.00    +0.001 A 
ATOM      5  C   LIG    1        4.145  32.504   3.941  0.00  0.00    +0.001 A 
ATOM      6  C   LIG    1        4.244  31.541   4.945  0.00  0.00    +0.016 A 
ENDROOT
BRANCH   1   7
ATOM      7  C   LIG    1        3.289  29.726   6.321  0.00  0.00    +0.340 C 
ATOM      8  O   LIG    1        2.791  29.909   7.418  0.00  0.00    -0.245 OA
BRANCH   7   9
ATOM      9  O   LIG    1        4.022  28.660   5.917  0.00  0.00    -0.461 OA
BRANCH   9  11
ATOM     10  C   LIG    1        3.482  26.873   4.430  0.00  0.00    +0.048 C 
ATOM     11  C   LIG    1        3.275  27.442   5.821  0.00  0.00    +0.229 C 
ENDBRANCH   9  11
ENDBRANCH   7   9
ENDBRANCH   1   7
BRANCH   2  12
ATOM     12  C   LIG    1        0.843  29.846   4.582  0.00  0.00    +0.340 C 
ATOM     13  O   LIG    1        0.655  28.871   3.873  0.00  0.00    -0.245 OA
BRANCH  12  14
ATOM     14  O   LIG    1        0.132  30.190   5.681  0.00  0.00    -0.461 OA
BRANCH  14  15
ATOM     15  C   LIG    1       -0.560  31.442   5.590  0.00  0.00    +0.229 C 
ATOM     16  C   LIG    1       -0.011  32.361   6.664  0.00  0.00    +0.048 C 
ENDBRANCH  14  15
ENDBRANCH  12  14
ENDBRANCH   2  12
TORSDOF 6
ENDMDL
MODEL 2
REMARK VINA RESULT:      -6.2      0.152      4.102
REMARK  Name = 
REMARK                            x       y       z     vdW  Elec       q    Type
REMARK                         _______ _______ _______ _____ _____    ______ ____
ROOT
ATOM      1  C   LIG    1        2.036  30.759   4.452  0.00  0.00    +0.073 A 
ATOM      2  C   LIG    1        3.245  30.669   5.153  0.00  0.00    +0.073 A 
ATOM      3  C   LIG    1        4.290  31.550   4.831  0.00  0.00    +0.016 A 
ATOM      4  C   LIG    1        4.122  32.520   3.842  0.00  0.00    +0.001 A 
ATOM      5  C   LIG    1        2.911  32.618   3.159  0.00  0.00    +0.001 A 
ATOM      6  C   LIG    1        1.871  31.738   3.458  0.00  0.00    +0.016 A 
ENDROOT
BRANCH   1   7
ATOM      7  C   LIG    1        0.944  29.794   4.667  0.00  0.00    +0.340 C 
ATOM      8  O   LIG    1        0.693  28.865   3.921  0.00  0.00    -0.245 OA
BRANCH   7   9
ATOM      9  O   LIG    1        0.304  30.125   5.814  0.00  0.00    -0.461 OA
BRANCH   9  11
ATOM     10  C   LIG    1       -0.019  32.326   6.679  0.00  0.00    +0.048 C 
ATOM     11  C   LIG    1       -0.531  31.284   5.703  0.00  0.00    +0.229 C 
ENDBRANCH   9  11
ENDBRANCH   7   9
ENDBRANCH   1   7
BRANCH   2  12
ATOM     12  C   LIG    1        3.501  29.696   6.240  0.00  0.00    +0.340 C 
ATOM     13  O   LIG    1        3.066  29.835   7.372  0.00  0.00    -0.245 OA
BRANCH  12  14
ATOM     14  O   LIG    1        4.152  28.613   5.756  0.00  0.00    -0.461 OA
BRANCH  14  15
ATOM     15  C   LIG    1        3.393  27.397   5.754  0.00  0.00    +0.229 C 
ATOM     16  C   LIG    1        3.453  26.808   4.359  0.00  0.00    +0.048 C 
ENDBRANCH  14  15
ENDBRANCH  12  14
ENDBRANCH   2  12
TORSDOF 6
ENDMDL
MODEL 3
REMARK VINA RESULT:      -6.0     10.108     11.263
REMARK  Name = 
REMARK                            x       y       z     vdW  Elec       q    Type
REMARK                         _______ _______ _______ _____ _____    ______ ____
ROOT
ATOM      1  C   LIG    1        3.956  20.448   9.038  0.00  0.00    +0.073 A 
ATOM      2  C   LIG    1        3.303  21.380   9.853  0.00  0.00    +0.073 A 
ATOM      3  C   LIG    1        1.928  21.602   9.672  0.00  0.00    +0.016 A 
ATOM      4  C   LIG    1        1.214  20.888   8.709  0.00  0.00    +0.001 A 
ATOM      5  C   LIG    1        1.865  19.948   7.912  0.00  0.00    +0.001 A 
ATOM      6  C   LIG    1        3.233  19.730   8.070  0.00  0.00    +0.016 A 
ENDROOT
BRANCH   1   7
ATOM      7  C   LIG    1        5.415  20.250   9.104  0.00  0.00    +0.340 C 
ATOM      8  O   LIG    1        6.046  20.147  10.141  0.00  0.00    -0.245 OA
BRANCH   7   9
ATOM      9  O   LIG    1        5.896  20.199   7.839  0.00  0.00    -0.461 OA
BRANCH   9  11
ATOM     10  C   LIG    1        8.170  19.672   7.342  0.00  0.00    +0.048 C 
ATOM     11  C   LIG    1        6.786  19.104   7.596  0.00  0.00    +0.229 C 
ENDBRANCH   9  11
ENDBRANCH   7   9
ENDBRANCH   1   7
BRANCH   2  12
ATOM     12  C   LIG    1        3.971  22.156  10.923  0.00  0.00    +0.340 C 
ATOM     13  O   LIG    1        4.635  23.156  10.704  0.00  0.00    -0.245 OA
BRANCH  12  14
ATOM     14  O   LIG    1        3.627  21.670  12.138  0.00  0.00    -0.461 OA
BRANCH  14  15
ATOM     15  C   LIG    1        4.727  21.351  13.000  0.00  0.00    +0.229 C 
ATOM     16  C   LIG    1        5.052  22.583  13.823  0.00  0.00    +0.048 C 
ENDBRANCH  14  15
ENDBRANCH  12  14
ENDBRANCH   2  12
TORSDOF 6
ENDMDL
MODEL 4
REMARK VINA RESULT:      -6.0     10.120     11.617
REMARK  Name = 
REMARK                            x       y       z     vdW  Elec       q    Type
REMARK                         _______ _______ _______ _____ _____    ______ ____
ROOT
ATOM      1  C   LIG    1        3.269  21.454   9.876  0.00  0.00    +0.073 A 
ATOM      2  C   LIG    1        3.936  20.540   9.051  0.00  0.00    +0.073 A 
ATOM      3  C   LIG    1        3.201  19.812   8.101  0.00  0.00    +0.016 A 
ATOM      4  C   LIG    1        1.827  20.011   7.962  0.00  0.00    +0.001 A 
ATOM      5  C   LIG    1        1.170  20.934   8.774  0.00  0.00    +0.001 A 
ATOM      6  C   LIG    1        1.885  21.651   9.732  0.00  0.00    +0.016 A 
ENDROOT
BRANCH   1   7
ATOM      7  C   LIG    1        3.964  22.165  10.963  0.00  0.00    +0.340 C 
ATOM      8  O   LIG    1        4.679  23.137  10.799  0.00  0.00    -0.245 OA
BRANCH   7   9
ATOM      9  O   LIG    1        3.659  21.556  12.134  0.00  0.00    -0.461 OA
BRANCH   9  11
ATOM     10  C   LIG    1        4.879  22.660  13.863  0.00  0.00    +0.048 C 
ATOM     11  C   LIG    1        4.773  21.403  13.020  0.00  0.00    +0.229 C 
ENDBRANCH   9  11
ENDBRANCH   7   9
ENDBRANCH   1   7
BRANCH   2  12
ATOM     12  C   LIG    1        5.395  20.290   9.103  0.00  0.00    +0.340 C 
ATOM     13  O   LIG    1        5.994  20.059  10.141  0.00  0.00    -0.245 OA
BRANCH  12  14
ATOM     14  O   LIG    1        5.905  20.231   7.851  0.00  0.00    -0.461 OA
BRANCH  14  15
ATOM     15  C   LIG    1        6.773  19.119   7.599  0.00  0.00    +0.229 C 
ATOM     16  C   LIG    1        8.175  19.656   7.386  0.00  0.00    +0.048 C 
ENDBRANCH  14  15
ENDBRANCH  12  14
ENDBRANCH   2  12
TORSDOF 6
ENDMDL
MODEL 5
REMARK VINA RESULT:      -5.9      2.091      4.606
REMARK  Name = 
REMARK                            x       y       z     vdW  Elec       q    Type
REMARK                         _______ _______ _______ _____ _____    ______ ____
ROOT
ATOM      1  C   LIG    1        1.785  32.286   4.834  0.00  0.00    +0.073 A 
ATOM      2  C   LIG    1        2.159  31.059   5.397  0.00  0.00    +0.073 A 
ATOM      3  C   LIG    1        3.507  30.668   5.352  0.00  0.00    +0.016 A 
ATOM      4  C   LIG    1        4.469  31.499   4.776  0.00  0.00    +0.001 A 
ATOM      5  C   LIG    1        4.095  32.726   4.233  0.00  0.00    +0.001 A 
ATOM      6  C   LIG    1        2.758  33.120   4.256  0.00  0.00    +0.016 A 
ENDROOT
BRANCH   1   7
ATOM      7  C   LIG    1        0.374  32.702   4.752  0.00  0.00    +0.340 C 
ATOM      8  O   LIG    1       -0.486  32.093   4.141  0.00  0.00    -0.245 OA
BRANCH   7   9
ATOM      9  O   LIG    1        0.225  33.844   5.467  0.00  0.00    -0.461 OA
BRANCH   9  11
ATOM     10  C   LIG    1        0.301  35.897   4.252  0.00  0.00    +0.048 C 
ATOM     11  C   LIG    1       -0.603  34.825   4.832  0.00  0.00    +0.229 C 
ENDBRANCH   9  11
ENDBRANCH   7   9
ENDBRANCH   1   7
BRANCH   2  12
ATOM     12  C   LIG    1        1.214  30.132   6.060  0.00  0.00    +0.340 C 
ATOM     13  O   LIG    1        0.823  30.286   7.206  0.00  0.00    -0.245 OA
BRANCH  12  14
ATOM     14  O   LIG    1        0.773  29.204   5.179  0.00  0.00    -0.461 OA
BRANCH  14  15
ATOM     15  C   LIG    1        0.909  27.843   5.609  0.00  0.00    +0.229 C 
ATOM     16  C   LIG    1        2.216  27.305   5.059  0.00  0.00    +0.048 C 
ENDBRANCH  14  15
ENDBRANCH  12  14
ENDBRANCH   2  12
TORSDOF 6
ENDMDL
MODEL 6
REMARK VINA RESULT:      -5.9      1.785      4.037
REMARK  Name = 
REMARK                            x       y       z     vdW  Elec       q    Type
REMARK                         _______ _______ _______ _____ _____    ______ ____
ROOT
ATOM      1  C   LIG    1        2.550  29.563   4.928  0.00  0.00    +0.073 A 
ATOM      2  C   LIG    1        3.449  30.636   4.885  0.00  0.00    +0.073 A 
ATOM      3  C   LIG    1        4.823  30.384   5.028  0.00  0.00    +0.016 A 
ATOM      4  C   LIG    1        5.293  29.079   5.188  0.00  0.00    +0.001 A 
ATOM      5  C   LIG    1        4.396  28.013   5.214  0.00  0.00    +0.001 A 
ATOM      6  C   LIG    1        3.028  28.251   5.089  0.00  0.00    +0.016 A 
ENDROOT
BRANCH   1   7
ATOM      7  C   LIG    1        1.092  29.773   4.894  0.00  0.00    +0.340 C 
ATOM      8  O   LIG    1        0.415  29.715   3.883  0.00  0.00    -0.245 OA
BRANCH   7   9
ATOM      9  O   LIG    1        0.669  30.026   6.156  0.00  0.00    -0.461 OA
BRANCH   9  11
ATOM     10  C   LIG    1        0.109  32.224   6.899  0.00  0.00    +0.048 C 
ATOM     11  C   LIG    1       -0.410  30.964   6.232  0.00  0.00    +0.229 C 
ENDBRANCH   9  11
ENDBRANCH   7   9
ENDBRANCH   1   7
BRANCH   2  12
ATOM     12  C   LIG    1        3.045  32.046   4.683  0.00  0.00    +0.340 C 
ATOM     13  O   LIG    1        3.275  32.928   5.494  0.00  0.00    -0.245 OA
BRANCH  12  14
ATOM     14  O   LIG    1        2.521  32.210   3.445  0.00  0.00    -0.461 OA
BRANCH  14  15
ATOM     15  C   LIG    1        1.894  33.478   3.213  0.00  0.00    +0.229 C 
ATOM     16  C   LIG    1        0.409  33.324   3.478  0.00  0.00    +0.048 C 
ENDBRANCH  14  15
ENDBRANCH  12  14
ENDBRANCH   2  12
TORSDOF 6
ENDMDL
MODEL 7
REMARK VINA RESULT:      -5.9      1.910      3.793
REMARK  Name = 
REMARK                            x       y       z     vdW  Elec       q    Type
REMARK                         _______ _______ _______ _____ _____    ______ ____
ROOT
ATOM      1  C   LIG    1        3.209  30.603   4.730  0.00  0.00    +0.073 A 
ATOM      2  C   LIG    1        2.569  29.365   4.871  0.00  0.00    +0.073 A 
ATOM      3  C   LIG    1        3.340  28.224   5.147  0.00  0.00    +0.016 A 
ATOM      4  C   LIG    1        4.724  28.322   5.302  0.00  0.00    +0.001 A 
ATOM      5  C   LIG    1        5.354  29.559   5.178  0.00  0.00    +0.001 A 
ATOM      6  C   LIG    1        4.602  30.697   4.888  0.00  0.00    +0.016 A 
ENDROOT
BRANCH   1   7
ATOM      7  C   LIG    1        2.470  31.815   4.334  0.00  0.00    +0.340 C 
ATOM      8  O   LIG    1        2.078  32.039   3.203  0.00  0.00    -0.245 OA
BRANCH   7   9
ATOM      9  O   LIG    1        2.312  32.594   5.430  0.00  0.00    -0.461 OA
BRANCH   9  11
ATOM     10  C   LIG    1        1.286  34.735   5.680  0.00  0.00    +0.048 C 
ATOM     11  C   LIG    1        2.512  33.991   5.186  0.00  0.00    +0.229 C 
ENDBRANCH   9  11
ENDBRANCH   7   9
ENDBRANCH   1   7
BRANCH   2  12
ATOM     12  C   LIG    1        1.105  29.173   4.759  0.00  0.00    +0.340 C 
ATOM     13  O   LIG    1        0.519  29.128   3.689  0.00  0.00    -0.245 OA
BRANCH  12  14
ATOM     14  O   LIG    1        0.570  28.931   5.978  0.00  0.00    -0.461 OA
BRANCH  14  15
ATOM     15  C   LIG    1        0.341  30.094   6.785  0.00  0.00    +0.229 C 
ATOM     16  C   LIG    1       -0.681  30.962   6.077  0.00  0.00    +0.048 C 
ENDBRANCH  14  15
ENDBRANCH  12  14
ENDBRANCH   2  12
TORSDOF 6
ENDMDL
MODEL 8
REMARK VINA RESULT:      -5.9      2.169      2.800
REMARK  Name = 
REMARK                            x       y       z     vdW  Elec       q    Type
REMARK                         _______ _______ _______ _____ _____    ______ ____
ROOT
ATOM      1  C   LIG    1        2.214  31.146   5.457  0.00  0.00    +0.073 A 
ATOM      2  C   LIG    1        1.870  32.490   5.267  0.00  0.00    +0.073 A 
ATOM      3  C   LIG    1        2.827  33.374   4.740  0.00  0.00    +0.016 A 
ATOM      4  C   LIG    1        4.098  32.917   4.388  0.00  0.00    +0.001 A 
ATOM      5  C   LIG    1        4.430  31.575   4.563  0.00  0.00    +0.001 A 
ATOM      6  C   LIG    1        3.495  30.690   5.100  0.00  0.00    +0.016 A 
ENDROOT
BRANCH   1   7
ATOM      7  C   LIG    1        1.293  30.196   6.105  0.00  0.00    +0.340 C 
ATOM      8  O   LIG    1        1.073  30.164   7.303  0.00  0.00    -0.245 OA
BRANCH   7   9
ATOM      9  O   LIG    1        0.756  29.403   5.147  0.00  0.00    -0.461 OA
BRANCH   9  11
ATOM     10  C   LIG    1        2.076  27.416   5.101  0.00  0.00    +0.048 C 
ATOM     11  C   LIG    1        0.736  28.012   5.486  0.00  0.00    +0.229 C 
ENDBRANCH   9  11
ENDBRANCH   7   9
ENDBRANCH   1   7
BRANCH   2  12
ATOM     12  C   LIG    1        0.537  33.055   5.577  0.00  0.00    +0.340 C 
ATOM     13  O   LIG    1        0.133  33.220   6.716  0.00  0.00    -0.245 OA
BRANCH  12  14
ATOM     14  O   LIG    1       -0.074  33.463   4.441  0.00  0.00    -0.461 OA
BRANCH  14  15
ATOM     15  C   LIG    1       -0.805  34.692   4.550  0.00  0.00    +0.229 C 
ATOM     16  C   LIG    1        0.112  35.824   4.129  0.00  0.00    +0.048 C 
ENDBRANCH  14  15
ENDBRANCH  12  14
ENDBRANCH   2  12
TORSDOF 6
ENDMDL
MODEL 9
REMARK VINA RESULT:      -5.9      1.842      2.902
REMARK  Name = 
REMARK                            x       y       z     vdW  Elec       q    Type
REMARK                         _______ _______ _______ _____ _____    ______ ____
ROOT
ATOM      1  C   LIG    1        1.918  32.120   4.592  0.00  0.00    +0.073 A 
ATOM      2  C   LIG    1        0.681  31.668   5.067  0.00  0.00    +0.073 A 
ATOM      3  C   LIG    1       -0.495  32.287   4.612  0.00  0.00    +0.016 A 
ATOM      4  C   LIG    1       -0.436  33.325   3.680  0.00  0.00    +0.001 A 
ATOM      5  C   LIG    1        0.796  33.760   3.197  0.00  0.00    +0.001 A 
ATOM      6  C   LIG    1        1.972  33.164   3.653  0.00  0.00    +0.016 A 
ENDROOT
BRANCH   1   7
ATOM      7  C   LIG    1        3.189  31.586   5.113  0.00  0.00    +0.340 C 
ATOM      8  O   LIG    1        3.936  32.197   5.855  0.00  0.00    -0.245 OA
BRANCH   7   9
ATOM      9  O   LIG    1        3.352  30.331   4.630  0.00  0.00    -0.461 OA
BRANCH   9  11
ATOM     10  C   LIG    1        5.305  29.048   5.116  0.00  0.00    +0.048 C 
ATOM     11  C   LIG    1        3.906  29.409   5.576  0.00  0.00    +0.229 C 
ENDBRANCH   9  11
ENDBRANCH   7   9
ENDBRANCH   1   7
BRANCH   2  12
ATOM     12  C   LIG    1        0.521  30.552   6.028  0.00  0.00    +0.340 C 
ATOM     13  O   LIG    1        0.923  30.602   7.179  0.00  0.00    -0.245 OA
BRANCH  12  14
ATOM     14  O   LIG    1       -0.230  29.568   5.480  0.00  0.00    -0.461 OA
BRANCH  14  15
ATOM     15  C   LIG    1        0.496  28.614   4.694  0.00  0.00    +0.229 C 
ATOM     16  C   LIG    1        0.857  27.444   5.590  0.00  0.00    +0.048 C 
ENDBRANCH  14  15
ENDBRANCH  12  14
ENDBRANCH   2  12
TORSDOF 6
ENDMDL
