MODEL 1
REMARK VINA RESULT:      -5.8      0.000      0.000
REMARK  Name = 
REMARK                            x       y       z     vdW  Elec       q    Type
REMARK                         _______ _______ _______ _____ _____    ______ ____
ROOT
ATOM      1  C   LIG    1      -48.633  10.788 -41.454  0.00  0.00    +0.073 A 
ATOM      2  C   LIG    1      -48.569  11.888 -42.318  0.00  0.00    +0.073 A 
ATOM      3  C   LIG    1      -49.425  12.980 -42.099  0.00  0.00    +0.016 A 
ATOM      4  C   LIG    1      -50.313  12.982 -41.022  0.00  0.00    +0.001 A 
ATOM      5  C   LIG    1      -50.360  11.893 -40.155  0.00  0.00    +0.001 A 
ATOM      6  C   LIG    1      -49.528  10.795 -40.371  0.00  0.00    +0.016 A 
ENDROOT
BRANCH   1   7
ATOM      7  C   LIG    1      -47.841   9.569 -41.695  0.00  0.00    +0.340 C 
ATOM      8  O   LIG    1      -48.053   8.781 -42.599  0.00  0.00    -0.245 OA
BRANCH   7   9
ATOM      9  O   LIG    1      -46.867   9.502 -40.756  0.00  0.00    -0.461 OA
BRANCH   9  11
ATOM     10  C   LIG    1      -47.483   8.037 -38.976  0.00  0.00    +0.048 C 
ATOM     11  C   LIG    1      -46.648   8.187 -40.233  0.00  0.00    +0.229 C 
ENDBRANCH   9  11
ENDBRANCH   7   9
ENDBRANCH   1   7
BRANCH   2  12
ATOM     12  C   LIG    1      -47.635  11.988 -43.463  0.00  0.00    +0.340 C 
ATOM     13  O   LIG    1      -46.427  12.097 -43.329  0.00  0.00    -0.245 OA
BRANCH  12  14
ATOM     14  O   LIG    1      -48.301  11.811 -44.627  0.00  0.00    -0.461 OA
BRANCH  14  15
ATOM     15  C   LIG    1      -47.584  11.087 -45.635  0.00  0.00    +0.229 C 
ATOM     16  C   LIG    1      -48.279   9.754 -45.841  0.00  0.00    +0.048 C 
ENDBRANCH  14  15
ENDBRANCH  12  14
ENDBRANCH   2  12
TORSDOF 6
ENDMDL
MODEL 2
REMARK VINA RESULT:      -5.8      0.958      3.846
REMARK  Name = 
REMARK                            x       y       z     vdW  Elec       q    Type
REMARK                         _______ _______ _______ _____ _____    ______ ____
ROOT
ATOM      1  C   LIG    1      -48.381  11.807 -42.019  0.00  0.00    +0.073 A 
ATOM      2  C   LIG    1      -48.349  10.760 -41.090  0.00  0.00    +0.073 A 
ATOM      3  C   LIG    1      -49.321  10.714 -40.076  0.00  0.00    +0.016 A 
ATOM      4  C   LIG    1      -50.321  11.685 -40.007  0.00  0.00    +0.001 A 
ATOM      5  C   LIG    1      -50.359  12.715 -40.945  0.00  0.00    +0.001 A 
ATOM      6  C   LIG    1      -49.391  12.782 -41.946  0.00  0.00    +0.016 A 
ENDROOT
BRANCH   1   7
ATOM      7  C   LIG    1      -47.328  11.971 -43.036  0.00  0.00    +0.340 C 
ATOM      8  O   LIG    1      -46.134  11.918 -42.801  0.00  0.00    -0.245 OA
BRANCH   7   9
ATOM      9  O   LIG    1      -47.923  12.176 -44.236  0.00  0.00    -0.461 OA
BRANCH   9  11
ATOM     10  C   LIG    1      -48.168  10.211 -45.568  0.00  0.00    +0.048 C 
ATOM     11  C   LIG    1      -47.327  11.448 -45.315  0.00  0.00    +0.229 C 
ENDBRANCH   9  11
ENDBRANCH   7   9
ENDBRANCH   1   7
BRANCH   2  12
ATOM     12  C   LIG    1      -47.349   9.668 -41.107  0.00  0.00    +0.340 C 
ATOM     13  O   LIG    1      -46.382   9.639 -40.363  0.00  0.00    -0.245 OA
BRANCH  12  14
ATOM     14  O   LIG    1      -47.741   8.688 -41.953  0.00  0.00    -0.461 OA
BRANCH  14  15
ATOM     15  C   LIG    1      -46.712   8.173 -42.809  0.00  0.00    +0.229 C 
ATOM     16  C   LIG    1      -46.319   6.800 -42.299  0.00  0.00    +0.048 C 
ENDBRANCH  14  15
ENDBRANCH  12  14
ENDBRANCH   2  12
TORSDOF 6
ENDMDL
MODEL 3
REMARK VINA RESULT:      -5.7      1.420      2.422
REMARK  Name = 
REMARK                            x       y       z     vdW  Elec       q    Type
REMARK                         _______ _______ _______ _____ _____    ______ ____
ROOT
ATOM      1  C   LIG    1      -48.486  10.687 -41.011  0.00  0.00    +0.073 A 
ATOM      2  C   LIG    1      -48.443  11.690 -41.986  0.00  0.00    +0.073 A 
ATOM      3  C   LIG    1      -49.390  12.726 -41.945  0.00  0.00    +0.016 A 
ATOM      4  C   LIG    1      -50.350  12.771 -40.932  0.00  0.00    +0.001 A 
ATOM      5  C   LIG    1      -50.379  11.779 -39.954  0.00  0.00    +0.001 A 
ATOM      6  C   LIG    1      -49.453  10.736 -39.993  0.00  0.00    +0.016 A 
ENDROOT
BRANCH   1   7
ATOM      7  C   LIG    1      -47.591   9.518 -41.064  0.00  0.00    +0.340 C 
ATOM      8  O   LIG    1      -46.552   9.421 -40.436  0.00  0.00    -0.245 OA
BRANCH   7   9
ATOM      9  O   LIG    1      -48.131   8.606 -41.908  0.00  0.00    -0.461 OA
BRANCH   9  11
ATOM     10  C   LIG    1      -47.733   8.134 -44.213  0.00  0.00    +0.048 C 
ATOM     11  C   LIG    1      -47.187   8.009 -42.804  0.00  0.00    +0.229 C 
ENDBRANCH   9  11
ENDBRANCH   7   9
ENDBRANCH   1   7
BRANCH   2  12
ATOM     12  C   LIG    1      -47.440  11.744 -43.075  0.00  0.00    +0.340 C 
ATOM     13  O   LIG    1      -47.734  11.660 -44.256  0.00  0.00    -0.245 OA
BRANCH  12  14
ATOM     14  O   LIG    1      -46.216  12.025 -42.570  0.00  0.00    -0.461 OA
BRANCH  14  15
ATOM     15  C   LIG    1      -45.119  11.777 -43.459  0.00  0.00    +0.229 C 
ATOM     16  C   LIG    1      -44.374  10.556 -42.957  0.00  0.00    +0.048 C 
ENDBRANCH  14  15
ENDBRANCH  12  14
ENDBRANCH   2  12
TORSDOF 6
ENDMDL
MODEL 4
REMARK VINA RESULT:      -5.7      1.607      3.470
REMARK  Name = 
REMARK                            x       y       z     vdW  Elec       q    Type
REMARK                         _______ _______ _______ _____ _____    ______ ____
ROOT
ATOM      1  C   LIG    1      -48.348  11.677 -41.965  0.00  0.00    +0.073 A 
ATOM      2  C   LIG    1      -48.526  10.696 -40.983  0.00  0.00    +0.073 A 
ATOM      3  C   LIG    1      -49.570  10.836 -40.054  0.00  0.00    +0.016 A 
ATOM      4  C   LIG    1      -50.437  11.929 -40.121  0.00  0.00    +0.001 A 
ATOM      5  C   LIG    1      -50.267  12.895 -41.111  0.00  0.00    +0.001 A 
ATOM      6  C   LIG    1      -49.224  12.775 -42.029  0.00  0.00    +0.016 A 
ENDROOT
BRANCH   1   7
ATOM      7  C   LIG    1      -47.208  11.643 -42.897  0.00  0.00    +0.340 C 
ATOM      8  O   LIG    1      -47.281  11.278 -44.057  0.00  0.00    -0.245 OA
BRANCH   7   9
ATOM      9  O   LIG    1      -46.108  12.084 -42.240  0.00  0.00    -0.461 OA
BRANCH   9  11
ATOM     10  C   LIG    1      -43.876  12.340 -43.047  0.00  0.00    +0.048 C 
ATOM     11  C   LIG    1      -44.914  11.354 -42.545  0.00  0.00    +0.229 C 
ENDBRANCH   9  11
ENDBRANCH   7   9
ENDBRANCH   1   7
BRANCH   2  12
ATOM     12  C   LIG    1      -47.679   9.487 -40.859  0.00  0.00    +0.340 C 
ATOM     13  O   LIG    1      -46.794   9.377 -40.026  0.00  0.00    -0.245 OA
BRANCH  12  14
ATOM     14  O   LIG    1      -48.120   8.519 -41.696  0.00  0.00    -0.461 OA
BRANCH  14  15
ATOM     15  C   LIG    1      -47.137   8.007 -42.606  0.00  0.00    +0.229 C 
ATOM     16  C   LIG    1      -47.828   7.706 -43.922  0.00  0.00    +0.048 C 
ENDBRANCH  14  15
ENDBRANCH  12  14
ENDBRANCH   2  12
TORSDOF 6
ENDMDL
MODEL 5
REMARK VINA RESULT:      -5.7      1.026      1.747
REMARK  Name = 
REMARK                            x       y       z     vdW  Elec       q    Type
REMARK                         _______ _______ _______ _____ _____    ______ ____
ROOT
ATOM      1  C   LIG    1      -48.465  10.686 -41.037  0.00  0.00    +0.073 A 
ATOM      2  C   LIG    1      -48.382  11.668 -42.031  0.00  0.00    +0.073 A 
ATOM      3  C   LIG    1      -49.314  12.719 -42.036  0.00  0.00    +0.016 A 
ATOM      4  C   LIG    1      -50.299  12.798 -41.050  0.00  0.00    +0.001 A 
ATOM      5  C   LIG    1      -50.367  11.827 -40.052  0.00  0.00    +0.001 A 
ATOM      6  C   LIG    1      -49.457  10.770 -40.046  0.00  0.00    +0.016 A 
ENDROOT
BRANCH   1   7
ATOM      7  C   LIG    1      -47.586   9.503 -41.043  0.00  0.00    +0.340 C 
ATOM      8  O   LIG    1      -46.556   9.412 -40.400  0.00  0.00    -0.245 OA
BRANCH   7   9
ATOM      9  O   LIG    1      -48.130   8.573 -41.864  0.00  0.00    -0.461 OA
BRANCH   9  11
ATOM     10  C   LIG    1      -47.949   7.613 -44.041  0.00  0.00    +0.048 C 
ATOM     11  C   LIG    1      -47.197   7.984 -42.777  0.00  0.00    +0.229 C 
ENDBRANCH   9  11
ENDBRANCH   7   9
ENDBRANCH   1   7
BRANCH   2  12
ATOM     12  C   LIG    1      -47.350  11.685 -43.094  0.00  0.00    +0.340 C 
ATOM     13  O   LIG    1      -46.186  11.987 -42.887  0.00  0.00    -0.245 OA
BRANCH  12  14
ATOM     14  O   LIG    1      -47.861  11.202 -44.250  0.00  0.00    -0.461 OA
BRANCH  14  15
ATOM     15  C   LIG    1      -47.173  11.614 -45.439  0.00  0.00    +0.229 C 
ATOM     16  C   LIG    1      -47.267  10.487 -46.450  0.00  0.00    +0.048 C 
ENDBRANCH  14  15
ENDBRANCH  12  14
ENDBRANCH   2  12
TORSDOF 6
ENDMDL
MODEL 6
REMARK VINA RESULT:      -5.6      2.007      4.278
REMARK  Name = 
REMARK                            x       y       z     vdW  Elec       q    Type
REMARK                         _______ _______ _______ _____ _____    ______ ____
ROOT
ATOM      1  C   LIG    1      -47.427   9.725 -43.640  0.00  0.00    +0.073 A 
ATOM      2  C   LIG    1      -47.756  10.542 -42.551  0.00  0.00    +0.073 A 
ATOM      3  C   LIG    1      -48.327  11.802 -42.790  0.00  0.00    +0.016 A 
ATOM      4  C   LIG    1      -48.586  12.230 -44.093  0.00  0.00    +0.001 A 
ATOM      5  C   LIG    1      -48.272  11.406 -45.173  0.00  0.00    +0.001 A 
ATOM      6  C   LIG    1      -47.690  10.159 -44.950  0.00  0.00    +0.016 A 
ENDROOT
BRANCH   1   7
ATOM      7  C   LIG    1      -46.727   8.441 -43.460  0.00  0.00    +0.340 C 
ATOM      8  O   LIG    1      -45.519   8.329 -43.343  0.00  0.00    -0.245 OA
BRANCH   7   9
ATOM      9  O   LIG    1      -47.651   7.451 -43.443  0.00  0.00    -0.461 OA
BRANCH   9  11
ATOM     10  C   LIG    1      -47.591   5.871 -45.231  0.00  0.00    +0.048 C 
ATOM     11  C   LIG    1      -47.137   6.166 -43.814  0.00  0.00    +0.229 C 
ENDBRANCH   9  11
ENDBRANCH   7   9
ENDBRANCH   1   7
BRANCH   2  12
ATOM     12  C   LIG    1      -47.551  10.156 -41.136  0.00  0.00    +0.340 C 
ATOM     13  O   LIG    1      -46.473  10.244 -40.572  0.00  0.00    -0.245 OA
BRANCH  12  14
ATOM     14  O   LIG    1      -48.734   9.834 -40.563  0.00  0.00    -0.461 OA
BRANCH  14  15
ATOM     15  C   LIG    1      -49.065  10.584 -39.387  0.00  0.00    +0.229 C 
ATOM     16  C   LIG    1      -50.302  11.408 -39.689  0.00  0.00    +0.048 C 
ENDBRANCH  14  15
ENDBRANCH  12  14
ENDBRANCH   2  12
TORSDOF 6
ENDMDL
MODEL 7
REMARK VINA RESULT:      -5.6      1.992      3.529
REMARK  Name = 
REMARK                            x       y       z     vdW  Elec       q    Type
REMARK                         _______ _______ _______ _____ _____    ______ ____
ROOT
ATOM      1  C   LIG    1      -47.653  10.657 -42.496  0.00  0.00    +0.073 A 
ATOM      2  C   LIG    1      -47.510   9.814 -43.604  0.00  0.00    +0.073 A 
ATOM      3  C   LIG    1      -47.860  10.291 -44.878  0.00  0.00    +0.016 A 
ATOM      4  C   LIG    1      -48.324  11.597 -45.044  0.00  0.00    +0.001 A 
ATOM      5  C   LIG    1      -48.448  12.439 -43.940  0.00  0.00    +0.001 A 
ATOM      6  C   LIG    1      -48.119  11.972 -42.668  0.00  0.00    +0.016 A 
ENDROOT
BRANCH   1   7
ATOM      7  C   LIG    1      -47.406  10.180 -41.124  0.00  0.00    +0.340 C 
ATOM      8  O   LIG    1      -46.314  10.177 -40.585  0.00  0.00    -0.245 OA
BRANCH   7   9
ATOM      9  O   LIG    1      -48.585   9.769 -40.598  0.00  0.00    -0.461 OA
BRANCH   9  11
ATOM     10  C   LIG    1      -50.224  11.290 -39.762  0.00  0.00    +0.048 C 
ATOM     11  C   LIG    1      -48.982  10.487 -39.424  0.00  0.00    +0.229 C 
ENDBRANCH   9  11
ENDBRANCH   7   9
ENDBRANCH   1   7
BRANCH   2  12
ATOM     12  C   LIG    1      -46.993   8.428 -43.528  0.00  0.00    +0.340 C 
ATOM     13  O   LIG    1      -45.822   8.166 -43.306  0.00  0.00    -0.245 OA
BRANCH  12  14
ATOM     14  O   LIG    1      -48.013   7.542 -43.609  0.00  0.00    -0.461 OA
BRANCH  14  15
ATOM     15  C   LIG    1      -47.893   6.569 -44.654  0.00  0.00    +0.229 C 
ATOM     16  C   LIG    1      -49.173   6.592 -45.467  0.00  0.00    +0.048 C 
ENDBRANCH  14  15
ENDBRANCH  12  14
ENDBRANCH   2  12
TORSDOF 6
ENDMDL
MODEL 8
REMARK VINA RESULT:      -5.2      2.009      2.766
REMARK  Name = 
REMARK                            x       y       z     vdW  Elec       q    Type
REMARK                         _______ _______ _______ _____ _____    ______ ____
ROOT
ATOM      1  C   LIG    1      -47.809  11.357 -42.171  0.00  0.00    +0.073 A 
ATOM      2  C   LIG    1      -47.545  11.228 -43.540  0.00  0.00    +0.073 A 
ATOM      3  C   LIG    1      -48.264  12.016 -44.453  0.00  0.00    +0.016 A 
ATOM      4  C   LIG    1      -49.216  12.933 -44.004  0.00  0.00    +0.001 A 
ATOM      5  C   LIG    1      -49.464  13.070 -42.640  0.00  0.00    +0.001 A 
ATOM      6  C   LIG    1      -48.768  12.282 -41.724  0.00  0.00    +0.016 A 
ENDROOT
BRANCH   1   7
ATOM      7  C   LIG    1      -47.167  10.483 -41.174  0.00  0.00    +0.340 C 
ATOM      8  O   LIG    1      -45.973  10.476 -40.935  0.00  0.00    -0.245 OA
BRANCH   7   9
ATOM      9  O   LIG    1      -48.128   9.724 -40.592  0.00  0.00    -0.461 OA
BRANCH   9  11
ATOM     10  C   LIG    1      -47.383   8.002 -39.117  0.00  0.00    +0.048 C 
ATOM     11  C   LIG    1      -47.883   9.431 -39.212  0.00  0.00    +0.229 C 
ENDBRANCH   9  11
ENDBRANCH   7   9
ENDBRANCH   1   7
BRANCH   2  12
ATOM     12  C   LIG    1      -46.529  10.309 -44.104  0.00  0.00    +0.340 C 
ATOM     13  O   LIG    1      -46.793   9.182 -44.490  0.00  0.00    -0.245 OA
BRANCH  12  14
ATOM     14  O   LIG    1      -45.343  10.947 -44.237  0.00  0.00    -0.461 OA
BRANCH  14  15
ATOM     15  C   LIG    1      -44.186  10.142 -43.977  0.00  0.00    +0.229 C 
ATOM     16  C   LIG    1      -42.996  10.799 -44.650  0.00  0.00    +0.048 C 
ENDBRANCH  14  15
ENDBRANCH  12  14
ENDBRANCH   2  12
TORSDOF 6
ENDMDL
MODEL 9
REMARK VINA RESULT:      -5.2     11.203     13.114
REMARK  Name = 
REMARK                            x       y       z     vdW  Elec       q    Type
REMARK                         _______ _______ _______ _____ _____    ______ ____
ROOT
ATOM      1  C   LIG    1      -47.129  15.710 -31.436  0.00  0.00    +0.073 A 
ATOM      2  C   LIG    1      -46.271  16.690 -30.921  0.00  0.00    +0.073 A 
ATOM      3  C   LIG    1      -44.904  16.399 -30.784  0.00  0.00    +0.016 A 
ATOM      4  C   LIG    1      -44.399  15.158 -31.175  0.00  0.00    +0.001 A 
ATOM      5  C   LIG    1      -45.253  14.192 -31.702  0.00  0.00    +0.001 A 
ATOM      6  C   LIG    1      -46.616  14.462 -31.829  0.00  0.00    +0.016 A 
ENDROOT
BRANCH   1   7
ATOM      7  C   LIG    1      -48.586  15.916 -31.502  0.00  0.00    +0.340 C 
ATOM      8  O   LIG    1      -49.309  16.020 -30.527  0.00  0.00    -0.245 OA
BRANCH   7   9
ATOM      9  O   LIG    1      -48.949  15.970 -32.806  0.00  0.00    -0.461 OA
BRANCH   9  11
ATOM     10  C   LIG    1      -48.104  17.469 -34.461  0.00  0.00    +0.048 C 
ATOM     11  C   LIG    1      -49.088  17.301 -33.318  0.00  0.00    +0.229 C 
ENDBRANCH   9  11
ENDBRANCH   7   9
ENDBRANCH   1   7
BRANCH   2  12
ATOM     12  C   LIG    1      -46.711  18.044 -30.515  0.00  0.00    +0.340 C 
ATOM     13  O   LIG    1      -47.096  18.309 -29.387  0.00  0.00    -0.245 OA
BRANCH  12  14
ATOM     14  O   LIG    1      -46.498  18.927 -31.519  0.00  0.00    -0.461 OA
BRANCH  14  15
ATOM     15  C   LIG    1      -46.790  20.294 -31.200  0.00  0.00    +0.229 C 
ATOM     16  C   LIG    1      -48.085  20.671 -31.894  0.00  0.00    +0.048 C 
ENDBRANCH  14  15
ENDBRANCH  12  14
ENDBRANCH   2  12
TORSDOF 6
ENDMDL
