MODEL 1
REMARK VINA RESULT:      -6.5      0.000      0.000
REMARK  Name = 
REMARK                            x       y       z     vdW  Elec       q    Type
REMARK                         _______ _______ _______ _____ _____    ______ ____
ROOT
ATOM      1  C   LIG    1       24.455 -25.502 -11.648  0.00  0.00    +0.073 A 
ATOM      2  C   LIG    1       25.828 -25.770 -11.706  0.00  0.00    +0.073 A 
ATOM      3  C   LIG    1       26.707 -24.755 -12.116  0.00  0.00    +0.016 A 
ATOM      4  C   LIG    1       26.224 -23.486 -12.441  0.00  0.00    +0.001 A 
ATOM      5  C   LIG    1       24.859 -23.219 -12.366  0.00  0.00    +0.001 A 
ATOM      6  C   LIG    1       23.973 -24.223 -11.976  0.00  0.00    +0.016 A 
ENDROOT
BRANCH   1   7
ATOM      7  C   LIG    1       23.474 -26.555 -11.332  0.00  0.00    +0.340 C 
ATOM      8  O   LIG    1       23.274 -26.991 -10.212  0.00  0.00    -0.245 OA
BRANCH   7   9
ATOM      9  O   LIG    1       22.858 -26.922 -12.481  0.00  0.00    -0.461 OA
BRANCH   9  11
ATOM     10  C   LIG    1       23.727 -28.999 -13.270  0.00  0.00    +0.048 C 
ATOM     11  C   LIG    1       22.567 -28.321 -12.566  0.00  0.00    +0.229 C 
ENDBRANCH   9  11
ENDBRANCH   7   9
ENDBRANCH   1   7
BRANCH   2  12
ATOM     12  C   LIG    1       26.433 -27.073 -11.345  0.00  0.00    +0.340 C 
ATOM     13  O   LIG    1       26.873 -27.855 -12.172  0.00  0.00    -0.245 OA
BRANCH  12  14
ATOM     14  O   LIG    1       26.533 -27.186 -10.000  0.00  0.00    -0.461 OA
BRANCH  14  15
ATOM     15  C   LIG    1       27.125 -28.406  -9.534  0.00  0.00    +0.229 C 
ATOM     16  C   LIG    1       26.012 -29.409  -9.298  0.00  0.00    +0.048 C 
ENDBRANCH  14  15
ENDBRANCH  12  14
ENDBRANCH   2  12
TORSDOF 6
ENDMDL
MODEL 2
REMARK VINA RESULT:      -6.5      0.903      3.464
REMARK  Name = 
REMARK                            x       y       z     vdW  Elec       q    Type
REMARK                         _______ _______ _______ _____ _____    ______ ____
ROOT
ATOM      1  C   LIG    1       25.901 -25.714 -11.493  0.00  0.00    +0.073 A 
ATOM      2  C   LIG    1       24.512 -25.583 -11.610  0.00  0.00    +0.073 A 
ATOM      3  C   LIG    1       23.977 -24.382 -12.104  0.00  0.00    +0.016 A 
ATOM      4  C   LIG    1       24.817 -23.338 -12.495  0.00  0.00    +0.001 A 
ATOM      5  C   LIG    1       26.199 -23.480 -12.394  0.00  0.00    +0.001 A 
ATOM      6  C   LIG    1       26.743 -24.661 -11.890  0.00  0.00    +0.016 A 
ENDROOT
BRANCH   1   7
ATOM      7  C   LIG    1       26.517 -26.904 -10.881  0.00  0.00    +0.340 C 
ATOM      8  O   LIG    1       26.714 -27.037  -9.686  0.00  0.00    -0.245 OA
BRANCH   7   9
ATOM      9  O   LIG    1       26.803 -27.789 -11.866  0.00  0.00    -0.461 OA
BRANCH   9  11
ATOM     10  C   LIG    1       26.520 -30.147 -11.626  0.00  0.00    +0.048 C 
ATOM     11  C   LIG    1       27.461 -28.977 -11.410  0.00  0.00    +0.229 C 
ENDBRANCH   9  11
ENDBRANCH   7   9
ENDBRANCH   1   7
BRANCH   2  12
ATOM     12  C   LIG    1       23.548 -26.649 -11.253  0.00  0.00    +0.340 C 
ATOM     13  O   LIG    1       23.265 -26.932 -10.100  0.00  0.00    -0.245 OA
BRANCH  12  14
ATOM     14  O   LIG    1       22.960 -27.140 -12.368  0.00  0.00    -0.461 OA
BRANCH  14  15
ATOM     15  C   LIG    1       23.381 -28.457 -12.749  0.00  0.00    +0.229 C 
ATOM     16  C   LIG    1       22.284 -29.431 -12.367  0.00  0.00    +0.048 C 
ENDBRANCH  14  15
ENDBRANCH  12  14
ENDBRANCH   2  12
TORSDOF 6
ENDMDL
MODEL 3
REMARK VINA RESULT:      -6.5      1.419      4.815
REMARK  Name = 
REMARK                            x       y       z     vdW  Elec       q    Type
REMARK                         _______ _______ _______ _____ _____    ______ ____
ROOT
ATOM      1  C   LIG    1       25.053 -27.476 -12.230  0.00  0.00    +0.073 A 
ATOM      2  C   LIG    1       23.973 -26.633 -11.943  0.00  0.00    +0.073 A 
ATOM      3  C   LIG    1       22.676 -27.034 -12.303  0.00  0.00    +0.016 A 
ATOM      4  C   LIG    1       22.460 -28.268 -12.919  0.00  0.00    +0.001 A 
ATOM      5  C   LIG    1       23.536 -29.112 -13.187  0.00  0.00    +0.001 A 
ATOM      6  C   LIG    1       24.830 -28.718 -12.849  0.00  0.00    +0.016 A 
ENDROOT
BRANCH   1   7
ATOM      7  C   LIG    1       26.444 -27.064 -11.977  0.00  0.00    +0.340 C 
ATOM      8  O   LIG    1       27.093 -26.348 -12.718  0.00  0.00    -0.245 OA
BRANCH   7   9
ATOM      9  O   LIG    1       26.842 -27.610 -10.802  0.00  0.00    -0.461 OA
BRANCH   9  11
ATOM     10  C   LIG    1       27.461 -29.851 -10.263  0.00  0.00    +0.048 C 
ATOM     11  C   LIG    1       27.903 -28.563 -10.932  0.00  0.00    +0.229 C 
ENDBRANCH   9  11
ENDBRANCH   7   9
ENDBRANCH   1   7
BRANCH   2  12
ATOM     12  C   LIG    1       24.103 -25.324 -11.261  0.00  0.00    +0.340 C 
ATOM     13  O   LIG    1       24.339 -25.216 -10.069  0.00  0.00    -0.245 OA
BRANCH  12  14
ATOM     14  O   LIG    1       24.053 -24.318 -12.165  0.00  0.00    -0.461 OA
BRANCH  14  15
ATOM     15  C   LIG    1       25.168 -23.418 -12.137  0.00  0.00    +0.229 C 
ATOM     16  C   LIG    1       25.520 -23.061 -13.568  0.00  0.00    +0.048 C 
ENDBRANCH  14  15
ENDBRANCH  12  14
ENDBRANCH   2  12
TORSDOF 6
ENDMDL
MODEL 4
REMARK VINA RESULT:      -6.4      1.234      3.425
REMARK  Name = 
REMARK                            x       y       z     vdW  Elec       q    Type
REMARK                         _______ _______ _______ _____ _____    ______ ____
ROOT
ATOM      1  C   LIG    1       25.777 -26.181 -12.219  0.00  0.00    +0.073 A 
ATOM      2  C   LIG    1       24.494 -25.679 -11.967  0.00  0.00    +0.073 A 
ATOM      3  C   LIG    1       24.282 -24.291 -12.010  0.00  0.00    +0.016 A 
ATOM      4  C   LIG    1       25.329 -23.422 -12.322  0.00  0.00    +0.001 A 
ATOM      5  C   LIG    1       26.599 -23.928 -12.589  0.00  0.00    +0.001 A 
ATOM      6  C   LIG    1       26.827 -25.303 -12.533  0.00  0.00    +0.016 A 
ENDROOT
BRANCH   1   7
ATOM      7  C   LIG    1       26.087 -27.615 -12.081  0.00  0.00    +0.340 C 
ATOM      8  O   LIG    1       25.623 -28.488 -12.793  0.00  0.00    -0.245 OA
BRANCH   7   9
ATOM      9  O   LIG    1       26.959 -27.766 -11.055  0.00  0.00    -0.461 OA
BRANCH   9  11
ATOM     10  C   LIG    1       27.286 -29.910 -10.060  0.00  0.00    +0.048 C 
ATOM     11  C   LIG    1       27.757 -28.951 -11.137  0.00  0.00    +0.229 C 
ENDBRANCH   9  11
ENDBRANCH   7   9
ENDBRANCH   1   7
BRANCH   2  12
ATOM     12  C   LIG    1       23.318 -26.527 -11.664  0.00  0.00    +0.340 C 
ATOM     13  O   LIG    1       22.607 -27.012 -12.529  0.00  0.00    -0.245 OA
BRANCH  12  14
ATOM     14  O   LIG    1       23.248 -26.772 -10.335  0.00  0.00    -0.461 OA
BRANCH  14  15
ATOM     15  C   LIG    1       22.561 -27.977  -9.973  0.00  0.00    +0.229 C 
ATOM     16  C   LIG    1       23.601 -29.045  -9.693  0.00  0.00    +0.048 C 
ENDBRANCH  14  15
ENDBRANCH  12  14
ENDBRANCH   2  12
TORSDOF 6
ENDMDL
MODEL 5
REMARK VINA RESULT:      -6.4      1.209      1.639
REMARK  Name = 
REMARK                            x       y       z     vdW  Elec       q    Type
REMARK                         _______ _______ _______ _____ _____    ______ ____
ROOT
ATOM      1  C   LIG    1       24.466 -25.668 -11.908  0.00  0.00    +0.073 A 
ATOM      2  C   LIG    1       25.750 -26.165 -12.160  0.00  0.00    +0.073 A 
ATOM      3  C   LIG    1       26.775 -25.270 -12.508  0.00  0.00    +0.016 A 
ATOM      4  C   LIG    1       26.526 -23.898 -12.580  0.00  0.00    +0.001 A 
ATOM      5  C   LIG    1       25.251 -23.406 -12.311  0.00  0.00    +0.001 A 
ATOM      6  C   LIG    1       24.220 -24.286 -11.980  0.00  0.00    +0.016 A 
ENDROOT
BRANCH   1   7
ATOM      7  C   LIG    1       23.326 -26.564 -11.646  0.00  0.00    +0.340 C 
ATOM      8  O   LIG    1       22.613 -27.037 -12.513  0.00  0.00    -0.245 OA
BRANCH   7   9
ATOM      9  O   LIG    1       23.236 -26.758 -10.308  0.00  0.00    -0.461 OA
BRANCH   9  11
ATOM     10  C   LIG    1       23.587 -29.042  -9.708  0.00  0.00    +0.048 C 
ATOM     11  C   LIG    1       22.549 -27.959  -9.938  0.00  0.00    +0.229 C 
ENDBRANCH   9  11
ENDBRANCH   7   9
ENDBRANCH   1   7
BRANCH   2  12
ATOM     12  C   LIG    1       26.114 -27.598 -12.073  0.00  0.00    +0.340 C 
ATOM     13  O   LIG    1       25.630 -28.453 -12.797  0.00  0.00    -0.245 OA
BRANCH  12  14
ATOM     14  O   LIG    1       27.124 -27.771 -11.189  0.00  0.00    -0.461 OA
BRANCH  14  15
ATOM     15  C   LIG    1       27.730 -29.071 -11.203  0.00  0.00    +0.229 C 
ATOM     16  C   LIG    1       27.256 -29.823  -9.975  0.00  0.00    +0.048 C 
ENDBRANCH  14  15
ENDBRANCH  12  14
ENDBRANCH   2  12
TORSDOF 6
ENDMDL
MODEL 6
REMARK VINA RESULT:      -6.1      1.712      4.224
REMARK  Name = 
REMARK                            x       y       z     vdW  Elec       q    Type
REMARK                         _______ _______ _______ _____ _____    ______ ____
ROOT
ATOM      1  C   LIG    1       25.513 -28.878 -11.775  0.00  0.00    +0.073 A 
ATOM      2  C   LIG    1       26.611 -28.014 -11.684  0.00  0.00    +0.073 A 
ATOM      3  C   LIG    1       27.758 -28.435 -10.992  0.00  0.00    +0.016 A 
ATOM      4  C   LIG    1       27.815 -29.707 -10.419  0.00  0.00    +0.001 A 
ATOM      5  C   LIG    1       26.727 -30.570 -10.527  0.00  0.00    +0.001 A 
ATOM      6  C   LIG    1       25.575 -30.158 -11.198  0.00  0.00    +0.016 A 
ENDROOT
BRANCH   1   7
ATOM      7  C   LIG    1       24.244 -28.454 -12.391  0.00  0.00    +0.340 C 
ATOM      8  O   LIG    1       23.883 -28.778 -13.509  0.00  0.00    -0.245 OA
BRANCH   7   9
ATOM      9  O   LIG    1       23.581 -27.672 -11.506  0.00  0.00    -0.461 OA
BRANCH   9  11
ATOM     10  C   LIG    1       22.298 -28.301  -9.594  0.00  0.00    +0.048 C 
ATOM     11  C   LIG    1       22.307 -28.191 -11.107  0.00  0.00    +0.229 C 
ENDBRANCH   9  11
ENDBRANCH   7   9
ENDBRANCH   1   7
BRANCH   2  12
ATOM     12  C   LIG    1       26.653 -26.663 -12.290  0.00  0.00    +0.340 C 
ATOM     13  O   LIG    1       26.875 -26.472 -13.475  0.00  0.00    -0.245 OA
BRANCH  12  14
ATOM     14  O   LIG    1       26.289 -25.730 -11.380  0.00  0.00    -0.461 OA
BRANCH  14  15
ATOM     15  C   LIG    1       25.947 -24.449 -11.925  0.00  0.00    +0.229 C 
ATOM     16  C   LIG    1       24.442 -24.285 -11.831  0.00  0.00    +0.048 C 
ENDBRANCH  14  15
ENDBRANCH  12  14
ENDBRANCH   2  12
TORSDOF 6
ENDMDL
MODEL 7
REMARK VINA RESULT:      -6.1      1.286      4.912
REMARK  Name = 
REMARK                            x       y       z     vdW  Elec       q    Type
REMARK                         _______ _______ _______ _____ _____    ______ ____
ROOT
ATOM      1  C   LIG    1       26.639 -27.735 -11.313  0.00  0.00    +0.073 A 
ATOM      2  C   LIG    1       25.399 -28.292 -10.977  0.00  0.00    +0.073 A 
ATOM      3  C   LIG    1       25.361 -29.505 -10.271  0.00  0.00    +0.016 A 
ATOM      4  C   LIG    1       26.544 -30.140  -9.886  0.00  0.00    +0.001 A 
ATOM      5  C   LIG    1       27.776 -29.573 -10.207  0.00  0.00    +0.001 A 
ATOM      6  C   LIG    1       27.827 -28.377 -10.922  0.00  0.00    +0.016 A 
ENDROOT
BRANCH   1   7
ATOM      7  C   LIG    1       26.743 -26.525 -12.146  0.00  0.00    +0.340 C 
ATOM      8  O   LIG    1       26.892 -26.535 -13.355  0.00  0.00    -0.245 OA
BRANCH   7   9
ATOM      9  O   LIG    1       26.639 -25.442 -11.338  0.00  0.00    -0.461 OA
BRANCH   9  11
ATOM     10  C   LIG    1       24.856 -24.029 -12.059  0.00  0.00    +0.048 C 
ATOM     11  C   LIG    1       26.361 -24.221 -12.032  0.00  0.00    +0.229 C 
ENDBRANCH   9  11
ENDBRANCH   7   9
ENDBRANCH   1   7
BRANCH   2  12
ATOM     12  C   LIG    1       24.096 -27.672 -11.312  0.00  0.00    +0.340 C 
ATOM     13  O   LIG    1       23.497 -26.930 -10.551  0.00  0.00    -0.245 OA
BRANCH  12  14
ATOM     14  O   LIG    1       23.762 -27.947 -12.594  0.00  0.00    -0.461 OA
BRANCH  14  15
ATOM     15  C   LIG    1       22.388 -28.296 -12.804  0.00  0.00    +0.229 C 
ATOM     16  C   LIG    1       22.167 -29.691 -12.254  0.00  0.00    +0.048 C 
ENDBRANCH  14  15
ENDBRANCH  12  14
ENDBRANCH   2  12
TORSDOF 6
ENDMDL
MODEL 8
REMARK VINA RESULT:      -6.0      1.231      3.904
REMARK  Name = 
REMARK                            x       y       z     vdW  Elec       q    Type
REMARK                         _______ _______ _______ _____ _____    ______ ____
ROOT
ATOM      1  C   LIG    1       25.358 -28.280 -10.842  0.00  0.00    +0.073 A 
ATOM      2  C   LIG    1       26.583 -27.759 -11.275  0.00  0.00    +0.073 A 
ATOM      3  C   LIG    1       27.771 -28.422 -10.925  0.00  0.00    +0.016 A 
ATOM      4  C   LIG    1       27.733 -29.598 -10.174  0.00  0.00    +0.001 A 
ATOM      5  C   LIG    1       26.510 -30.122  -9.760  0.00  0.00    +0.001 A 
ATOM      6  C   LIG    1       25.324 -29.465 -10.087  0.00  0.00    +0.016 A 
ENDROOT
BRANCH   1   7
ATOM      7  C   LIG    1       24.088 -27.572 -11.083  0.00  0.00    +0.340 C 
ATOM      8  O   LIG    1       23.431 -27.028 -10.214  0.00  0.00    -0.245 OA
BRANCH   7   9
ATOM      9  O   LIG    1       23.811 -27.636 -12.408  0.00  0.00    -0.461 OA
BRANCH   9  11
ATOM     10  C   LIG    1       22.074 -29.272 -12.454  0.00  0.00    +0.048 C 
ATOM     11  C   LIG    1       23.496 -28.952 -12.875  0.00  0.00    +0.229 C 
ENDBRANCH   9  11
ENDBRANCH   7   9
ENDBRANCH   1   7
BRANCH   2  12
ATOM     12  C   LIG    1       26.718 -26.539 -12.104  0.00  0.00    +0.340 C 
ATOM     13  O   LIG    1       26.816 -26.569 -13.320  0.00  0.00    -0.245 OA
BRANCH  12  14
ATOM     14  O   LIG    1       26.583 -25.434 -11.336  0.00  0.00    -0.461 OA
BRANCH  14  15
ATOM     15  C   LIG    1       26.300 -24.225 -12.052  0.00  0.00    +0.229 C 
ATOM     16  C   LIG    1       24.798 -24.017 -12.048  0.00  0.00    +0.048 C 
ENDBRANCH  14  15
ENDBRANCH  12  14
ENDBRANCH   2  12
TORSDOF 6
ENDMDL
MODEL 9
REMARK VINA RESULT:      -5.9      1.686      4.346
REMARK  Name = 
REMARK                            x       y       z     vdW  Elec       q    Type
REMARK                         _______ _______ _______ _____ _____    ______ ____
ROOT
ATOM      1  C   LIG    1       26.216 -27.469 -10.474  0.00  0.00    +0.073 A 
ATOM      2  C   LIG    1       26.203 -28.565 -11.346  0.00  0.00    +0.073 A 
ATOM      3  C   LIG    1       27.158 -29.582 -11.181  0.00  0.00    +0.016 A 
ATOM      4  C   LIG    1       28.095 -29.515 -10.149  0.00  0.00    +0.001 A 
ATOM      5  C   LIG    1       28.093 -28.432  -9.273  0.00  0.00    +0.001 A 
ATOM      6  C   LIG    1       27.160 -27.407  -9.435  0.00  0.00    +0.016 A 
ENDROOT
BRANCH   1   7
ATOM      7  C   LIG    1       25.312 -26.321 -10.662  0.00  0.00    +0.340 C 
ATOM      8  O   LIG    1       24.102 -26.371 -10.528  0.00  0.00    -0.245 OA
BRANCH   7   9
ATOM      9  O   LIG    1       26.060 -25.241 -10.992  0.00  0.00    -0.461 OA
BRANCH   9  11
ATOM     10  C   LIG    1       27.227 -25.010 -13.061  0.00  0.00    +0.048 C 
ATOM     11  C   LIG    1       25.901 -24.815 -12.350  0.00  0.00    +0.229 C 
ENDBRANCH   9  11
ENDBRANCH   7   9
ENDBRANCH   1   7
BRANCH   2  12
ATOM     12  C   LIG    1       25.225 -28.737 -12.445  0.00  0.00    +0.340 C 
ATOM     13  O   LIG    1       25.201 -28.020 -13.432  0.00  0.00    -0.245 OA
BRANCH  12  14
ATOM     14  O   LIG    1       24.486 -29.852 -12.243  0.00  0.00    -0.461 OA
BRANCH  14  15
ATOM     15  C   LIG    1       23.311 -29.668 -11.443  0.00  0.00    +0.229 C 
ATOM     16  C   LIG    1       22.147 -29.391 -12.375  0.00  0.00    +0.048 C 
ENDBRANCH  14  15
ENDBRANCH  12  14
ENDBRANCH   2  12
TORSDOF 6
ENDMDL
