MODEL 1
REMARK VINA RESULT:      -6.3      0.000      0.000
REMARK  Name = 
REMARK                            x       y       z     vdW  Elec       q    Type
REMARK                         _______ _______ _______ _____ _____    ______ ____
ROOT
ATOM      1  C   LIG    1       16.956  47.169  16.764  0.00  0.00    +0.073 A 
ATOM      2  C   LIG    1       17.165  48.328  16.007  0.00  0.00    +0.073 A 
ATOM      3  C   LIG    1       16.795  48.338  14.652  0.00  0.00    +0.016 A 
ATOM      4  C   LIG    1       16.204  47.215  14.070  0.00  0.00    +0.001 A 
ATOM      5  C   LIG    1       15.981  46.070  14.831  0.00  0.00    +0.001 A 
ATOM      6  C   LIG    1       16.359  46.042  16.174  0.00  0.00    +0.016 A 
ENDROOT
BRANCH   1   7
ATOM      7  C   LIG    1       17.422  47.060  18.157  0.00  0.00    +0.340 C 
ATOM      8  O   LIG    1       18.594  47.002  18.485  0.00  0.00    -0.245 OA
BRANCH   7   9
ATOM      9  O   LIG    1       16.338  47.046  18.969  0.00  0.00    -0.461 OA
BRANCH   9  11
ATOM     10  C   LIG    1       14.844  48.725  19.772  0.00  0.00    +0.048 C 
ATOM     11  C   LIG    1       16.254  48.172  19.850  0.00  0.00    +0.229 C 
ENDBRANCH   9  11
ENDBRANCH   7   9
ENDBRANCH   1   7
BRANCH   2  12
ATOM     12  C   LIG    1       17.752  49.576  16.549  0.00  0.00    +0.340 C 
ATOM     13  O   LIG    1       17.163  50.302  17.334  0.00  0.00    -0.245 OA
BRANCH  12  14
ATOM     14  O   LIG    1       19.040  49.699  16.152  0.00  0.00    -0.461 OA
BRANCH  14  15
ATOM     15  C   LIG    1       19.962  50.075  17.183  0.00  0.00    +0.229 C 
ATOM     16  C   LIG    1       21.118  49.095  17.160  0.00  0.00    +0.048 C 
ENDBRANCH  14  15
ENDBRANCH  12  14
ENDBRANCH   2  12
TORSDOF 6
ENDMDL
MODEL 2
REMARK VINA RESULT:      -6.3      1.726      4.921
REMARK  Name = 
REMARK                            x       y       z     vdW  Elec       q    Type
REMARK                         _______ _______ _______ _____ _____    ______ ____
ROOT
ATOM      1  C   LIG    1       17.920  49.077  17.710  0.00  0.00    +0.073 A 
ATOM      2  C   LIG    1       17.133  48.107  18.341  0.00  0.00    +0.073 A 
ATOM      3  C   LIG    1       16.165  48.512  19.275  0.00  0.00    +0.016 A 
ATOM      4  C   LIG    1       15.972  49.865  19.556  0.00  0.00    +0.001 A 
ATOM      5  C   LIG    1       16.746  50.829  18.912  0.00  0.00    +0.001 A 
ATOM      6  C   LIG    1       17.722  50.439  17.995  0.00  0.00    +0.016 A 
ENDROOT
BRANCH   1   7
ATOM      7  C   LIG    1       19.024  48.710  16.805  0.00  0.00    +0.340 C 
ATOM      8  O   LIG    1       20.081  48.230  17.173  0.00  0.00    -0.245 OA
BRANCH   7   9
ATOM      9  O   LIG    1       18.645  48.992  15.536  0.00  0.00    -0.461 OA
BRANCH   9  11
ATOM     10  C   LIG    1       20.116  50.388  14.278  0.00  0.00    +0.048 C 
ATOM     11  C   LIG    1       19.716  48.958  14.586  0.00  0.00    +0.229 C 
ENDBRANCH   9  11
ENDBRANCH   7   9
ENDBRANCH   1   7
BRANCH   2  12
ATOM     12  C   LIG    1       17.243  46.653  18.079  0.00  0.00    +0.340 C 
ATOM     13  O   LIG    1       17.991  45.919  18.704  0.00  0.00    -0.245 OA
BRANCH  12  14
ATOM     14  O   LIG    1       16.321  46.271  17.165  0.00  0.00    -0.461 OA
BRANCH  14  15
ATOM     15  C   LIG    1       16.849  45.893  15.888  0.00  0.00    +0.229 C 
ATOM     16  C   LIG    1       16.096  46.663  14.820  0.00  0.00    +0.048 C 
ENDBRANCH  14  15
ENDBRANCH  12  14
ENDBRANCH   2  12
TORSDOF 6
ENDMDL
MODEL 3
REMARK VINA RESULT:      -6.2      1.725      3.596
REMARK  Name = 
REMARK                            x       y       z     vdW  Elec       q    Type
REMARK                         _______ _______ _______ _____ _____    ______ ____
ROOT
ATOM      1  C   LIG    1       17.149  48.107  18.430  0.00  0.00    +0.073 A 
ATOM      2  C   LIG    1       17.959  49.044  17.777  0.00  0.00    +0.073 A 
ATOM      3  C   LIG    1       17.746  50.413  18.007  0.00  0.00    +0.016 A 
ATOM      4  C   LIG    1       16.754  50.838  18.893  0.00  0.00    +0.001 A 
ATOM      5  C   LIG    1       15.961  49.902  19.553  0.00  0.00    +0.001 A 
ATOM      6  C   LIG    1       16.152  48.540  19.321  0.00  0.00    +0.016 A 
ENDROOT
BRANCH   1   7
ATOM      7  C   LIG    1       17.251  46.665  18.147  0.00  0.00    +0.340 C 
ATOM      8  O   LIG    1       18.041  45.914  18.691  0.00  0.00    -0.245 OA
BRANCH   7   9
ATOM      9  O   LIG    1       16.327  46.349  17.208  0.00  0.00    -0.461 OA
BRANCH   9  11
ATOM     10  C   LIG    1       16.133  46.506  14.835  0.00  0.00    +0.048 C 
ATOM     11  C   LIG    1       16.884  45.859  15.983  0.00  0.00    +0.229 C 
ENDBRANCH   9  11
ENDBRANCH   7   9
ENDBRANCH   1   7
BRANCH   2  12
ATOM     12  C   LIG    1       19.057  48.684  16.850  0.00  0.00    +0.340 C 
ATOM     13  O   LIG    1       20.109  48.190  17.224  0.00  0.00    -0.245 OA
BRANCH  12  14
ATOM     14  O   LIG    1       18.664  48.863  15.568  0.00  0.00    -0.461 OA
BRANCH  14  15
ATOM     15  C   LIG    1       19.725  48.889  14.604  0.00  0.00    +0.229 C 
ATOM     16  C   LIG    1       20.076  50.339  14.330  0.00  0.00    +0.048 C 
ENDBRANCH  14  15
ENDBRANCH  12  14
ENDBRANCH   2  12
TORSDOF 6
ENDMDL
MODEL 4
REMARK VINA RESULT:      -6.2      1.541      4.949
REMARK  Name = 
REMARK                            x       y       z     vdW  Elec       q    Type
REMARK                         _______ _______ _______ _____ _____    ______ ____
ROOT
ATOM      1  C   LIG    1       17.491  49.338  17.538  0.00  0.00    +0.073 A 
ATOM      2  C   LIG    1       16.844  48.099  17.617  0.00  0.00    +0.073 A 
ATOM      3  C   LIG    1       15.954  47.858  18.677  0.00  0.00    +0.016 A 
ATOM      4  C   LIG    1       15.698  48.846  19.628  0.00  0.00    +0.001 A 
ATOM      5  C   LIG    1       16.331  50.084  19.536  0.00  0.00    +0.001 A 
ATOM      6  C   LIG    1       17.230  50.331  18.498  0.00  0.00    +0.016 A 
ENDROOT
BRANCH   1   7
ATOM      7  C   LIG    1       18.516  49.612  16.516  0.00  0.00    +0.340 C 
ATOM      8  O   LIG    1       18.316  49.565  15.315  0.00  0.00    -0.245 OA
BRANCH   7   9
ATOM      9  O   LIG    1       19.674  49.922  17.146  0.00  0.00    -0.461 OA
BRANCH   9  11
ATOM     10  C   LIG    1       21.608  48.764  16.362  0.00  0.00    +0.048 C 
ATOM     11  C   LIG    1       20.514  48.793  17.412  0.00  0.00    +0.229 C 
ENDBRANCH   9  11
ENDBRANCH   7   9
ENDBRANCH   1   7
BRANCH   2  12
ATOM     12  C   LIG    1       17.027  47.006  16.635  0.00  0.00    +0.340 C 
ATOM     13  O   LIG    1       17.862  46.126  16.766  0.00  0.00    -0.245 OA
BRANCH  12  14
ATOM     14  O   LIG    1       16.069  47.069  15.681  0.00  0.00    -0.461 OA
BRANCH  14  15
ATOM     15  C   LIG    1       15.843  45.849  14.963  0.00  0.00    +0.229 C 
ATOM     16  C   LIG    1       15.078  46.183  13.697  0.00  0.00    +0.048 C 
ENDBRANCH  14  15
ENDBRANCH  12  14
ENDBRANCH   2  12
TORSDOF 6
ENDMDL
MODEL 5
REMARK VINA RESULT:      -6.2     11.228     12.526
REMARK  Name = 
REMARK                            x       y       z     vdW  Elec       q    Type
REMARK                         _______ _______ _______ _____ _____    ______ ____
ROOT
ATOM      1  C   LIG    1       14.933  47.220  27.980  0.00  0.00    +0.073 A 
ATOM      2  C   LIG    1       13.634  47.712  28.152  0.00  0.00    +0.073 A 
ATOM      3  C   LIG    1       13.448  49.082  28.398  0.00  0.00    +0.016 A 
ATOM      4  C   LIG    1       14.540  49.950  28.450  0.00  0.00    +0.001 A 
ATOM      5  C   LIG    1       15.830  49.458  28.261  0.00  0.00    +0.001 A 
ATOM      6  C   LIG    1       16.030  48.097  28.032  0.00  0.00    +0.016 A 
ENDROOT
BRANCH   1   7
ATOM      7  C   LIG    1       15.201  45.779  27.829  0.00  0.00    +0.340 C 
ATOM      8  O   LIG    1       15.523  45.248  26.780  0.00  0.00    -0.245 OA
BRANCH   7   9
ATOM      9  O   LIG    1       15.034  45.186  29.035  0.00  0.00    -0.461 OA
BRANCH   9  11
ATOM     10  C   LIG    1       16.814  43.596  29.069  0.00  0.00    +0.048 C 
ATOM     11  C   LIG    1       16.260  44.860  29.700  0.00  0.00    +0.229 C 
ENDBRANCH   9  11
ENDBRANCH   7   9
ENDBRANCH   1   7
BRANCH   2  12
ATOM     12  C   LIG    1       12.415  46.874  28.079  0.00  0.00    +0.340 C 
ATOM     13  O   LIG    1       12.132  46.035  28.919  0.00  0.00    -0.245 OA
BRANCH  12  14
ATOM     14  O   LIG    1       11.637  47.269  27.045  0.00  0.00    -0.461 OA
BRANCH  14  15
ATOM     15  C   LIG    1       10.302  47.654  27.400  0.00  0.00    +0.229 C 
ATOM     16  C   LIG    1       10.238  49.169  27.415  0.00  0.00    +0.048 C 
ENDBRANCH  14  15
ENDBRANCH  12  14
ENDBRANCH   2  12
TORSDOF 6
ENDMDL
MODEL 6
REMARK VINA RESULT:      -5.8      1.898      3.746
REMARK  Name = 
REMARK                            x       y       z     vdW  Elec       q    Type
REMARK                         _______ _______ _______ _____ _____    ______ ____
ROOT
ATOM      1  C   LIG    1       16.979  47.343  17.148  0.00  0.00    +0.073 A 
ATOM      2  C   LIG    1       17.790  48.467  17.343  0.00  0.00    +0.073 A 
ATOM      3  C   LIG    1       17.645  49.221  18.520  0.00  0.00    +0.016 A 
ATOM      4  C   LIG    1       16.720  48.843  19.495  0.00  0.00    +0.001 A 
ATOM      5  C   LIG    1       15.927  47.713  19.304  0.00  0.00    +0.001 A 
ATOM      6  C   LIG    1       16.050  46.966  18.133  0.00  0.00    +0.016 A 
ENDROOT
BRANCH   1   7
ATOM      7  C   LIG    1       17.008  46.577  15.890  0.00  0.00    +0.340 C 
ATOM      8  O   LIG    1       17.857  45.750  15.610  0.00  0.00    -0.245 OA
BRANCH   7   9
ATOM      9  O   LIG    1       15.944  46.952  15.139  0.00  0.00    -0.461 OA
BRANCH   9  11
ATOM     10  C   LIG    1       15.331  46.174  12.968  0.00  0.00    +0.048 C 
ATOM     11  C   LIG    1       15.303  45.871  14.454  0.00  0.00    +0.229 C 
ENDBRANCH   9  11
ENDBRANCH   7   9
ENDBRANCH   1   7
BRANCH   2  12
ATOM     12  C   LIG    1       18.821  48.921  16.381  0.00  0.00    +0.340 C 
ATOM     13  O   LIG    1       18.677  49.896  15.662  0.00  0.00    -0.245 OA
BRANCH  12  14
ATOM     14  O   LIG    1       19.949  48.187  16.524  0.00  0.00    -0.461 OA
BRANCH  14  15
ATOM     15  C   LIG    1       20.975  48.453  15.558  0.00  0.00    +0.229 C 
ATOM     16  C   LIG    1       20.764  47.521  14.380  0.00  0.00    +0.048 C 
ENDBRANCH  14  15
ENDBRANCH  12  14
ENDBRANCH   2  12
TORSDOF 6
ENDMDL
MODEL 7
REMARK VINA RESULT:      -5.8      2.181      4.380
REMARK  Name = 
REMARK                            x       y       z     vdW  Elec       q    Type
REMARK                         _______ _______ _______ _____ _____    ______ ____
ROOT
ATOM      1  C   LIG    1       18.532  47.713  15.657  0.00  0.00    +0.073 A 
ATOM      2  C   LIG    1       18.185  47.826  17.008  0.00  0.00    +0.073 A 
ATOM      3  C   LIG    1       17.123  47.056  17.510  0.00  0.00    +0.016 A 
ATOM      4  C   LIG    1       16.434  46.171  16.679  0.00  0.00    +0.001 A 
ATOM      5  C   LIG    1       16.794  46.048  15.338  0.00  0.00    +0.001 A 
ATOM      6  C   LIG    1       17.837  46.819  14.824  0.00  0.00    +0.016 A 
ENDROOT
BRANCH   1   7
ATOM      7  C   LIG    1       19.563  48.572  15.048  0.00  0.00    +0.340 C 
ATOM      8  O   LIG    1       19.335  49.643  14.514  0.00  0.00    -0.245 OA
BRANCH   7   9
ATOM      9  O   LIG    1       20.765  47.966  15.198  0.00  0.00    -0.461 OA
BRANCH   9  11
ATOM     10  C   LIG    1       21.364  46.741  13.239  0.00  0.00    +0.048 C 
ATOM     11  C   LIG    1       21.593  48.015  14.031  0.00  0.00    +0.229 C 
ENDBRANCH   9  11
ENDBRANCH   7   9
ENDBRANCH   1   7
BRANCH   2  12
ATOM     12  C   LIG    1       18.882  48.711  17.970  0.00  0.00    +0.340 C 
ATOM     13  O   LIG    1       19.693  48.302  18.784  0.00  0.00    -0.245 OA
BRANCH  12  14
ATOM     14  O   LIG    1       18.583  50.006  17.716  0.00  0.00    -0.461 OA
BRANCH  14  15
ATOM     15  C   LIG    1       17.234  50.390  18.015  0.00  0.00    +0.229 C 
ATOM     16  C   LIG    1       17.105  50.523  19.520  0.00  0.00    +0.048 C 
ENDBRANCH  14  15
ENDBRANCH  12  14
ENDBRANCH   2  12
TORSDOF 6
ENDMDL
MODEL 8
REMARK VINA RESULT:      -5.8      1.750      4.039
REMARK  Name = 
REMARK                            x       y       z     vdW  Elec       q    Type
REMARK                         _______ _______ _______ _____ _____    ______ ____
ROOT
ATOM      1  C   LIG    1       19.050  48.812  16.868  0.00  0.00    +0.073 A 
ATOM      2  C   LIG    1       18.917  48.201  15.616  0.00  0.00    +0.073 A 
ATOM      3  C   LIG    1       20.068  47.953  14.850  0.00  0.00    +0.016 A 
ATOM      4  C   LIG    1       21.332  48.289  15.337  0.00  0.00    +0.001 A 
ATOM      5  C   LIG    1       21.460  48.881  16.592  0.00  0.00    +0.001 A 
ATOM      6  C   LIG    1       20.324  49.148  17.356  0.00  0.00    +0.016 A 
ENDROOT
BRANCH   1   7
ATOM      7  C   LIG    1       17.875  49.197  17.669  0.00  0.00    +0.340 C 
ATOM      8  O   LIG    1       17.232  50.218  17.498  0.00  0.00    -0.245 OA
BRANCH   7   9
ATOM      9  O   LIG    1       17.653  48.230  18.592  0.00  0.00    -0.461 OA
BRANCH   9  11
ATOM     10  C   LIG    1       15.521  48.172  19.663  0.00  0.00    +0.048 C 
ATOM     11  C   LIG    1       16.352  47.636  18.513  0.00  0.00    +0.229 C 
ENDBRANCH   9  11
ENDBRANCH   7   9
ENDBRANCH   1   7
BRANCH   2  12
ATOM     12  C   LIG    1       17.622  47.778  15.034  0.00  0.00    +0.340 C 
ATOM     13  O   LIG    1       16.855  48.552  14.483  0.00  0.00    -0.245 OA
BRANCH  12  14
ATOM     14  O   LIG    1       17.499  46.432  15.094  0.00  0.00    -0.461 OA
BRANCH  14  15
ATOM     15  C   LIG    1       16.185  45.953  15.406  0.00  0.00    +0.229 C 
ATOM     16  C   LIG    1       15.505  45.566  14.107  0.00  0.00    +0.048 C 
ENDBRANCH  14  15
ENDBRANCH  12  14
ENDBRANCH   2  12
TORSDOF 6
ENDMDL
MODEL 9
REMARK VINA RESULT:      -5.7      2.136      2.618
REMARK  Name = 
REMARK                            x       y       z     vdW  Elec       q    Type
REMARK                         _______ _______ _______ _____ _____    ______ ____
ROOT
ATOM      1  C   LIG    1       18.089  47.457  16.902  0.00  0.00    +0.073 A 
ATOM      2  C   LIG    1       18.263  47.501  15.514  0.00  0.00    +0.073 A 
ATOM      3  C   LIG    1       17.441  46.709  14.695  0.00  0.00    +0.016 A 
ATOM      4  C   LIG    1       16.447  45.904  15.253  0.00  0.00    +0.001 A 
ATOM      5  C   LIG    1       16.266  45.877  16.635  0.00  0.00    +0.001 A 
ATOM      6  C   LIG    1       17.086  46.646  17.460  0.00  0.00    +0.016 A 
ENDROOT
BRANCH   1   7
ATOM      7  C   LIG    1       18.990  48.178  17.818  0.00  0.00    +0.340 C 
ATOM      8  O   LIG    1       20.199  48.039  17.841  0.00  0.00    -0.245 OA
BRANCH   7   9
ATOM      9  O   LIG    1       18.240  48.999  18.593  0.00  0.00    -0.461 OA
BRANCH   9  11
ATOM     10  C   LIG    1       16.799  50.888  18.814  0.00  0.00    +0.048 C 
ATOM     11  C   LIG    1       17.838  50.209  17.942  0.00  0.00    +0.229 C 
ENDBRANCH   9  11
ENDBRANCH   7   9
ENDBRANCH   1   7
BRANCH   2  12
ATOM     12  C   LIG    1       19.267  48.351  14.832  0.00  0.00    +0.340 C 
ATOM     13  O   LIG    1       19.115  49.549  14.658  0.00  0.00    -0.245 OA
BRANCH  12  14
ATOM     14  O   LIG    1       20.385  47.635  14.568  0.00  0.00    -0.461 OA
BRANCH  14  15
ATOM     15  C   LIG    1       21.582  48.410  14.419  0.00  0.00    +0.229 C 
ATOM     16  C   LIG    1       21.979  48.383  12.955  0.00  0.00    +0.048 C 
ENDBRANCH  14  15
ENDBRANCH  12  14
ENDBRANCH   2  12
TORSDOF 6
ENDMDL
