REMARK  Name = 
REMARK                            x       y       z     vdW  Elec       q    Type
REMARK                         _______ _______ _______ _____ _____    ______ ____
ROOT
ATOM      1  C   LIG    1        4.706   2.195   1.938  0.00  0.00    +0.073 A 
ATOM      2  C   LIG    1        5.720   1.922   2.864  0.00  0.00    +0.073 A 
ATOM      3  C   LIG    1        6.024   2.877   3.848  0.00  0.00    +0.016 A 
ATOM      4  C   LIG    1        5.311   4.075   3.919  0.00  0.00    +0.001 A 
ATOM      5  C   LIG    1        4.291   4.335   3.006  0.00  0.00    +0.001 A 
ATOM      6  C   LIG    1        3.990   3.402   2.014  0.00  0.00    +0.016 A 
ENDROOT
BRANCH   1   7
ATOM      7  C   LIG    1        4.415   1.283   0.818  0.00  0.00    +0.340 C 
ATOM      8  O   LIG    1        5.249   0.882   0.026  0.00  0.00    -0.245 OA
BRANCH   7   9
ATOM      9  O   LIG    1        3.094   0.984   0.845  0.00  0.00    -0.461 OA
BRANCH   9  11
ATOM     10  C   LIG    1        1.198  -0.194  -0.000  0.00  0.00    +0.048 C 
ATOM     11  C   LIG    1        2.686   0.052  -0.163  0.00  0.00    +0.229 C 
ENDBRANCH   9  11
ENDBRANCH   7   9
ENDBRANCH   1   7
BRANCH   2  12
ATOM     12  C   LIG    1        6.503   0.665   2.887  0.00  0.00    +0.340 C 
ATOM     13  O   LIG    1        7.661   0.609   3.268  0.00  0.00    -0.245 OA
BRANCH  12  14
ATOM     14  O   LIG    1        5.714  -0.384   2.558  0.00  0.00    -0.461 OA
BRANCH  14  15
ATOM     15  C   LIG    1        6.376  -1.655   2.518  0.00  0.00    +0.229 C 
ATOM     16  C   LIG    1        5.623  -2.547   1.550  0.00  0.00    +0.048 C 
ENDBRANCH  14  15
ENDBRANCH  12  14
ENDBRANCH   2  12
TORSDOF 6
