MODEL 1
REMARK VINA RESULT:      -4.8      0.000      0.000
REMARK  Name = 
REMARK                            x       y       z     vdW  Elec       q    Type
REMARK                         _______ _______ _______ _____ _____    ______ ____
ROOT
ATOM      1  C   LIG    1       -4.472  -4.543  14.185  0.00  0.00    +0.000 A 
ATOM      2  C   LIG    1       -4.217  -4.887  15.513  0.00  0.00    +0.004 A 
ATOM      3  C   LIG    1       -5.203  -4.705  16.481  0.00  0.00    +0.045 A 
ATOM      4  C   LIG    1       -6.439  -4.180  16.115  0.00  0.00    +0.117 A 
ATOM      5  C   LIG    1       -6.705  -3.835  14.794  0.00  0.00    +0.045 A 
ATOM      6  C   LIG    1       -5.715  -4.017  13.825  0.00  0.00    +0.004 A 
ENDROOT
BRANCH   4   7
ATOM      7  O   LIG    1       -7.374  -4.018  17.094  0.00  0.00    -0.507 OA
ATOM      8  H   LIG    1       -7.580  -4.889  17.471  0.00  0.00    +0.292 HD
ENDBRANCH   4   7
TORSDOF 1
ENDMDL
MODEL 2
REMARK VINA RESULT:      -4.8      1.356      1.925
REMARK  Name = 
REMARK                            x       y       z     vdW  Elec       q    Type
REMARK                         _______ _______ _______ _____ _____    ______ ____
ROOT
ATOM      1  C   LIG    1       -5.982  -4.291  14.515  0.00  0.00    +0.000 A 
ATOM      2  C   LIG    1       -4.678  -4.691  14.808  0.00  0.00    +0.004 A 
ATOM      3  C   LIG    1       -4.339  -5.060  16.109  0.00  0.00    +0.045 A 
ATOM      4  C   LIG    1       -5.306  -5.028  17.108  0.00  0.00    +0.117 A 
ATOM      5  C   LIG    1       -6.610  -4.633  16.827  0.00  0.00    +0.045 A 
ATOM      6  C   LIG    1       -6.948  -4.262  15.524  0.00  0.00    +0.004 A 
ENDROOT
BRANCH   4   7
ATOM      7  O   LIG    1       -4.932  -5.396  18.367  0.00  0.00    -0.507 OA
ATOM      8  H   LIG    1       -3.962  -5.383  18.415  0.00  0.00    +0.292 HD
ENDBRANCH   4   7
TORSDOF 1
ENDMDL
MODEL 3
REMARK VINA RESULT:      -4.7      0.146      1.834
REMARK  Name = 
REMARK                            x       y       z     vdW  Elec       q    Type
REMARK                         _______ _______ _______ _____ _____    ______ ____
ROOT
ATOM      1  C   LIG    1       -4.457  -4.445  14.231  0.00  0.00    +0.000 A 
ATOM      2  C   LIG    1       -5.695  -3.943  13.830  0.00  0.00    +0.004 A 
ATOM      3  C   LIG    1       -6.740  -3.850  14.749  0.00  0.00    +0.045 A 
ATOM      4  C   LIG    1       -6.538  -4.259  16.064  0.00  0.00    +0.117 A 
ATOM      5  C   LIG    1       -5.306  -4.760  16.474  0.00  0.00    +0.045 A 
ATOM      6  C   LIG    1       -4.262  -4.853  15.552  0.00  0.00    +0.004 A 
ENDROOT
BRANCH   4   7
ATOM      7  O   LIG    1       -7.586  -4.153  16.930  0.00  0.00    -0.507 OA
ATOM      8  H   LIG    1       -7.364  -4.635  17.743  0.00  0.00    +0.292 HD
ENDBRANCH   4   7
TORSDOF 1
ENDMDL
MODEL 4
REMARK VINA RESULT:      -4.7      1.333      2.260
REMARK  Name = 
REMARK                            x       y       z     vdW  Elec       q    Type
REMARK                         _______ _______ _______ _____ _____    ______ ____
ROOT
ATOM      1  C   LIG    1       -5.923  -4.227  14.501  0.00  0.00    +0.000 A 
ATOM      2  C   LIG    1       -6.889  -4.240  15.508  0.00  0.00    +0.004 A 
ATOM      3  C   LIG    1       -6.545  -4.643  16.798  0.00  0.00    +0.045 A 
ATOM      4  C   LIG    1       -5.238  -5.030  17.071  0.00  0.00    +0.117 A 
ATOM      5  C   LIG    1       -4.266  -5.020  16.075  0.00  0.00    +0.045 A 
ATOM      6  C   LIG    1       -4.612  -4.616  14.784  0.00  0.00    +0.004 A 
ENDROOT
BRANCH   4   7
ATOM      7  O   LIG    1       -4.945  -5.419  18.345  0.00  0.00    -0.507 OA
ATOM      8  H   LIG    1       -5.455  -6.220  18.548  0.00  0.00    +0.292 HD
ENDBRANCH   4   7
TORSDOF 1
ENDMDL
MODEL 5
REMARK VINA RESULT:      -4.7      8.271      8.773
REMARK  Name = 
REMARK                            x       y       z     vdW  Elec       q    Type
REMARK                         _______ _______ _______ _____ _____    ______ ____
ROOT
ATOM      1  C   LIG    1       -0.955   1.959  20.244  0.00  0.00    +0.000 A 
ATOM      2  C   LIG    1       -1.708   1.472  21.313  0.00  0.00    +0.004 A 
ATOM      3  C   LIG    1       -1.639   0.123  21.657  0.00  0.00    +0.045 A 
ATOM      4  C   LIG    1       -0.816  -0.731  20.930  0.00  0.00    +0.117 A 
ATOM      5  C   LIG    1       -0.060  -0.256  19.863  0.00  0.00    +0.045 A 
ATOM      6  C   LIG    1       -0.131   1.095  19.519  0.00  0.00    +0.004 A 
ENDROOT
BRANCH   4   7
ATOM      7  O   LIG    1       -0.779  -2.043  21.299  0.00  0.00    -0.507 OA
ATOM      8  H   LIG    1        0.075  -2.416  21.024  0.00  0.00    +0.292 HD
ENDBRANCH   4   7
TORSDOF 1
ENDMDL
MODEL 6
REMARK VINA RESULT:      -4.7      8.222      8.852
REMARK  Name = 
REMARK                            x       y       z     vdW  Elec       q    Type
REMARK                         _______ _______ _______ _____ _____    ______ ____
ROOT
ATOM      1  C   LIG    1       -1.644   1.104  21.416  0.00  0.00    +0.000 A 
ATOM      2  C   LIG    1       -1.384  -0.266  21.365  0.00  0.00    +0.004 A 
ATOM      3  C   LIG    1       -0.582  -0.785  20.350  0.00  0.00    +0.045 A 
ATOM      4  C   LIG    1       -0.045   0.070  19.393  0.00  0.00    +0.117 A 
ATOM      5  C   LIG    1       -0.297   1.437  19.435  0.00  0.00    +0.045 A 
ATOM      6  C   LIG    1       -1.101   1.956  20.452  0.00  0.00    +0.004 A 
ENDROOT
BRANCH   4   7
ATOM      7  O   LIG    1        0.732  -0.480  18.416  0.00  0.00    -0.507 OA
ATOM      8  H   LIG    1        0.252  -1.227  18.024  0.00  0.00    +0.292 HD
ENDBRANCH   4   7
TORSDOF 1
ENDMDL
MODEL 7
REMARK VINA RESULT:      -4.5      8.158      8.682
REMARK  Name = 
REMARK                            x       y       z     vdW  Elec       q    Type
REMARK                         _______ _______ _______ _____ _____    ______ ____
ROOT
ATOM      1  C   LIG    1        0.002  -0.655  19.329  0.00  0.00    +0.000 A 
ATOM      2  C   LIG    1       -0.028   0.675  18.907  0.00  0.00    +0.004 A 
ATOM      3  C   LIG    1       -0.670   1.638  19.685  0.00  0.00    +0.045 A 
ATOM      4  C   LIG    1       -1.277   1.264  20.880  0.00  0.00    +0.117 A 
ATOM      5  C   LIG    1       -1.252  -0.059  21.311  0.00  0.00    +0.045 A 
ATOM      6  C   LIG    1       -0.610  -1.022  20.530  0.00  0.00    +0.004 A 
ENDROOT
BRANCH   4   7
ATOM      7  O   LIG    1       -1.894   2.237  21.610  0.00  0.00    -0.507 OA
ATOM      8  H   LIG    1       -1.976   1.929  22.527  0.00  0.00    +0.292 HD
ENDBRANCH   4   7
TORSDOF 1
ENDMDL
MODEL 8
REMARK VINA RESULT:      -4.5      0.976      2.041
REMARK  Name = 
REMARK                            x       y       z     vdW  Elec       q    Type
REMARK                         _______ _______ _______ _____ _____    ______ ____
ROOT
ATOM      1  C   LIG    1       -4.037  -4.706  15.299  0.00  0.00    +0.000 A 
ATOM      2  C   LIG    1       -4.616  -4.552  14.039  0.00  0.00    +0.004 A 
ATOM      3  C   LIG    1       -5.999  -4.413  13.921  0.00  0.00    +0.045 A 
ATOM      4  C   LIG    1       -6.792  -4.427  15.063  0.00  0.00    +0.117 A 
ATOM      5  C   LIG    1       -6.225  -4.579  16.325  0.00  0.00    +0.045 A 
ATOM      6  C   LIG    1       -4.840  -4.720  16.441  0.00  0.00    +0.004 A 
ENDROOT
BRANCH   4   7
ATOM      7  O   LIG    1       -8.139  -4.289  14.902  0.00  0.00    -0.507 OA
ATOM      8  H   LIG    1       -8.493  -3.809  15.669  0.00  0.00    +0.292 HD
ENDBRANCH   4   7
TORSDOF 1
ENDMDL
MODEL 9
REMARK VINA RESULT:      -4.5      0.944      1.356
REMARK  Name = 
REMARK                            x       y       z     vdW  Elec       q    Type
REMARK                         _______ _______ _______ _____ _____    ______ ____
ROOT
ATOM      1  C   LIG    1       -3.983  -4.696  15.282  0.00  0.00    +0.000 A 
ATOM      2  C   LIG    1       -4.767  -4.720  16.436  0.00  0.00    +0.004 A 
ATOM      3  C   LIG    1       -6.153  -4.596  16.340  0.00  0.00    +0.045 A 
ATOM      4  C   LIG    1       -6.745  -4.450  15.090  0.00  0.00    +0.117 A 
ATOM      5  C   LIG    1       -5.973  -4.427  13.932  0.00  0.00    +0.045 A 
ATOM      6  C   LIG    1       -4.585  -4.550  14.031  0.00  0.00    +0.004 A 
ENDROOT
BRANCH   4   7
ATOM      7  O   LIG    1       -8.102  -4.332  15.040  0.00  0.00    -0.507 OA
ATOM      8  H   LIG    1       -8.348  -3.461  15.395  0.00  0.00    +0.292 HD
ENDBRANCH   4   7
TORSDOF 1
ENDMDL
