MODEL 1
REMARK VINA RESULT:      -5.1      0.000      0.000
REMARK  Name = 
REMARK                            x       y       z     vdW  Elec       q    Type
REMARK                         _______ _______ _______ _____ _____    ______ ____
ROOT
ATOM      1  C   LIG    1        2.710  29.791   4.551  0.00  0.00    +0.000 A 
ATOM      2  C   LIG    1        1.906  28.664   4.377  0.00  0.00    +0.004 A 
ATOM      3  C   LIG    1        2.365  27.411   4.780  0.00  0.00    +0.045 A 
ATOM      4  C   LIG    1        3.626  27.294   5.356  0.00  0.00    +0.117 A 
ATOM      5  C   LIG    1        4.436  28.411   5.536  0.00  0.00    +0.045 A 
ATOM      6  C   LIG    1        3.974  29.665   5.131  0.00  0.00    +0.004 A 
ENDROOT
BRANCH   4   7
ATOM      7  O   LIG    1        4.037  26.050   5.736  0.00  0.00    -0.507 OA
ATOM      8  H   LIG    1        3.704  25.875   6.631  0.00  0.00    +0.292 HD
ENDBRANCH   4   7
TORSDOF 1
ENDMDL
MODEL 2
REMARK VINA RESULT:      -4.6      1.915      2.638
REMARK  Name = 
REMARK                            x       y       z     vdW  Elec       q    Type
REMARK                         _______ _______ _______ _____ _____    ______ ____
ROOT
ATOM      1  C   LIG    1        4.073  28.508   5.376  0.00  0.00    +0.000 A 
ATOM      2  C   LIG    1        3.303  27.350   5.497  0.00  0.00    +0.004 A 
ATOM      3  C   LIG    1        1.944  27.382   5.189  0.00  0.00    +0.045 A 
ATOM      4  C   LIG    1        1.363  28.571   4.761  0.00  0.00    +0.117 A 
ATOM      5  C   LIG    1        2.121  29.731   4.636  0.00  0.00    +0.045 A 
ATOM      6  C   LIG    1        3.482  29.698   4.946  0.00  0.00    +0.004 A 
ENDROOT
BRANCH   4   7
ATOM      7  O   LIG    1        0.031  28.559   4.472  0.00  0.00    -0.507 OA
ATOM      8  H   LIG    1       -0.435  29.089   5.139  0.00  0.00    +0.292 HD
ENDBRANCH   4   7
TORSDOF 1
ENDMDL
MODEL 3
REMARK VINA RESULT:      -4.5      1.787      2.472
REMARK  Name = 
REMARK                            x       y       z     vdW  Elec       q    Type
REMARK                         _______ _______ _______ _____ _____    ______ ____
ROOT
ATOM      1  C   LIG    1        4.331  28.952   5.711  0.00  0.00    +0.000 A 
ATOM      2  C   LIG    1        3.266  29.647   6.285  0.00  0.00    +0.004 A 
ATOM      3  C   LIG    1        1.979  29.113   6.237  0.00  0.00    +0.045 A 
ATOM      4  C   LIG    1        1.765  27.887   5.615  0.00  0.00    +0.117 A 
ATOM      5  C   LIG    1        2.820  27.185   5.040  0.00  0.00    +0.045 A 
ATOM      6  C   LIG    1        4.108  27.721   5.088  0.00  0.00    +0.004 A 
ENDROOT
BRANCH   4   7
ATOM      7  O   LIG    1        0.491  27.402   5.590  0.00  0.00    -0.507 OA
ATOM      8  H   LIG    1        0.496  26.505   5.963  0.00  0.00    +0.292 HD
ENDBRANCH   4   7
TORSDOF 1
ENDMDL
MODEL 4
REMARK VINA RESULT:      -4.4      1.360      2.279
REMARK  Name = 
REMARK                            x       y       z     vdW  Elec       q    Type
REMARK                         _______ _______ _______ _____ _____    ______ ____
ROOT
ATOM      1  C   LIG    1        0.889  28.679   4.470  0.00  0.00    +0.000 A 
ATOM      2  C   LIG    1        1.748  29.754   4.238  0.00  0.00    +0.004 A 
ATOM      3  C   LIG    1        3.041  29.737   4.758  0.00  0.00    +0.045 A 
ATOM      4  C   LIG    1        3.468  28.643   5.505  0.00  0.00    +0.117 A 
ATOM      5  C   LIG    1        2.621  27.565   5.741  0.00  0.00    +0.045 A 
ATOM      6  C   LIG    1        1.325  27.585   5.220  0.00  0.00    +0.004 A 
ENDROOT
BRANCH   4   7
ATOM      7  O   LIG    1        4.740  28.667   5.996  0.00  0.00    -0.507 OA
ATOM      8  H   LIG    1        4.840  29.457   6.553  0.00  0.00    +0.292 HD
ENDBRANCH   4   7
TORSDOF 1
ENDMDL
MODEL 5
REMARK VINA RESULT:      -4.3      4.695      5.773
REMARK  Name = 
REMARK                            x       y       z     vdW  Elec       q    Type
REMARK                         _______ _______ _______ _____ _____    ______ ____
ROOT
ATOM      1  C   LIG    1        2.196  32.741   3.362  0.00  0.00    +0.000 A 
ATOM      2  C   LIG    1        1.278  33.790   3.302  0.00  0.00    +0.004 A 
ATOM      3  C   LIG    1       -0.026  33.600   3.757  0.00  0.00    +0.045 A 
ATOM      4  C   LIG    1       -0.403  32.363   4.269  0.00  0.00    +0.117 A 
ATOM      5  C   LIG    1        0.504  31.311   4.335  0.00  0.00    +0.045 A 
ATOM      6  C   LIG    1        1.810  31.502   3.878  0.00  0.00    +0.004 A 
ENDROOT
BRANCH   4   7
ATOM      7  O   LIG    1       -1.689  32.221   4.702  0.00  0.00    -0.507 OA
ATOM      8  H   LIG    1       -2.079  31.450   4.258  0.00  0.00    +0.292 HD
ENDBRANCH   4   7
TORSDOF 1
ENDMDL
MODEL 6
REMARK VINA RESULT:      -4.3      2.125      3.147
REMARK  Name = 
REMARK                            x       y       z     vdW  Elec       q    Type
REMARK                         _______ _______ _______ _____ _____    ______ ____
ROOT
ATOM      1  C   LIG    1        3.865  27.402   4.868  0.00  0.00    +0.000 A 
ATOM      2  C   LIG    1        4.537  28.504   5.399  0.00  0.00    +0.004 A 
ATOM      3  C   LIG    1        3.834  29.465   6.124  0.00  0.00    +0.045 A 
ATOM      4  C   LIG    1        2.464  29.318   6.314  0.00  0.00    +0.117 A 
ATOM      5  C   LIG    1        1.784  28.223   5.790  0.00  0.00    +0.045 A 
ATOM      6  C   LIG    1        2.489  27.261   5.063  0.00  0.00    +0.004 A 
ENDROOT
BRANCH   4   7
ATOM      7  O   LIG    1        1.815  30.281   7.028  0.00  0.00    -0.507 OA
ATOM      8  H   LIG    1        2.040  30.173   7.967  0.00  0.00    +0.292 HD
ENDBRANCH   4   7
TORSDOF 1
ENDMDL
MODEL 7
REMARK VINA RESULT:      -4.3      1.234      1.866
REMARK  Name = 
REMARK                            x       y       z     vdW  Elec       q    Type
REMARK                         _______ _______ _______ _____ _____    ______ ____
ROOT
ATOM      1  C   LIG    1        1.427  28.747   4.223  0.00  0.00    +0.000 A 
ATOM      2  C   LIG    1        2.023  27.555   4.636  0.00  0.00    +0.004 A 
ATOM      3  C   LIG    1        3.314  27.568   5.161  0.00  0.00    +0.045 A 
ATOM      4  C   LIG    1        4.001  28.773   5.270  0.00  0.00    +0.117 A 
ATOM      5  C   LIG    1        3.415  29.968   4.862  0.00  0.00    +0.045 A 
ATOM      6  C   LIG    1        2.122  29.953   4.335  0.00  0.00    +0.004 A 
ENDROOT
BRANCH   4   7
ATOM      7  O   LIG    1        5.262  28.741   5.787  0.00  0.00    -0.507 OA
ATOM      8  H   LIG    1        5.317  29.393   6.506  0.00  0.00    +0.292 HD
ENDBRANCH   4   7
TORSDOF 1
ENDMDL
MODEL 8
REMARK VINA RESULT:      -4.1      3.270      4.350
REMARK  Name = 
REMARK                            x       y       z     vdW  Elec       q    Type
REMARK                         _______ _______ _______ _____ _____    ______ ____
ROOT
ATOM      1  C   LIG    1        1.982  32.661   3.534  0.00  0.00    +0.000 A 
ATOM      2  C   LIG    1        2.574  31.400   3.605  0.00  0.00    +0.004 A 
ATOM      3  C   LIG    1        1.848  30.316   4.097  0.00  0.00    +0.045 A 
ATOM      4  C   LIG    1        0.534  30.501   4.514  0.00  0.00    +0.117 A 
ATOM      5  C   LIG    1       -0.067  31.754   4.446  0.00  0.00    +0.045 A 
ATOM      6  C   LIG    1        0.662  32.839   3.955  0.00  0.00    +0.004 A 
ENDROOT
BRANCH   4   7
ATOM      7  O   LIG    1       -0.140  29.415   4.989  0.00  0.00    -0.507 OA
ATOM      8  H   LIG    1       -0.813  29.721   5.618  0.00  0.00    +0.292 HD
ENDBRANCH   4   7
TORSDOF 1
ENDMDL
MODEL 9
REMARK VINA RESULT:      -4.1      5.747      6.707
REMARK  Name = 
REMARK                            x       y       z     vdW  Elec       q    Type
REMARK                         _______ _______ _______ _____ _____    ______ ____
ROOT
ATOM      1  C   LIG    1        1.409  32.206   3.664  0.00  0.00    +0.000 A 
ATOM      2  C   LIG    1        0.234  31.808   4.301  0.00  0.00    +0.004 A 
ATOM      3  C   LIG    1       -0.745  32.752   4.612  0.00  0.00    +0.045 A 
ATOM      4  C   LIG    1       -0.541  34.088   4.281  0.00  0.00    +0.117 A 
ATOM      5  C   LIG    1        0.627  34.496   3.643  0.00  0.00    +0.045 A 
ATOM      6  C   LIG    1        1.606  33.549   3.335  0.00  0.00    +0.004 A 
ENDROOT
BRANCH   4   7
ATOM      7  O   LIG    1       -1.522  34.978   4.603  0.00  0.00    -0.507 OA
ATOM      8  H   LIG    1       -2.307  34.780   4.066  0.00  0.00    +0.292 HD
ENDBRANCH   4   7
TORSDOF 1
ENDMDL
