MODEL 1
REMARK VINA RESULT:      -4.8      0.000      0.000
REMARK  Name = 
REMARK                            x       y       z     vdW  Elec       q    Type
REMARK                         _______ _______ _______ _____ _____    ______ ____
ROOT
ATOM      1  C   LIG    1       -5.881  -4.256  14.502  0.00  0.00    +0.000 A 
ATOM      2  C   LIG    1       -4.586  -4.660  14.825  0.00  0.00    +0.004 A 
ATOM      3  C   LIG    1       -4.283  -5.051  16.129  0.00  0.00    +0.045 A 
ATOM      4  C   LIG    1       -5.279  -5.036  17.100  0.00  0.00    +0.117 A 
ATOM      5  C   LIG    1       -6.574  -4.636  16.789  0.00  0.00    +0.045 A 
ATOM      6  C   LIG    1       -6.876  -4.244  15.483  0.00  0.00    +0.004 A 
ENDROOT
BRANCH   4   7
ATOM      7  O   LIG    1       -4.940  -5.425  18.362  0.00  0.00    -0.507 OA
ATOM      8  H   LIG    1       -3.972  -5.398  18.444  0.00  0.00    +0.292 HD
ENDBRANCH   4   7
TORSDOF 1
ENDMDL
MODEL 2
REMARK VINA RESULT:      -4.8      1.390      2.298
REMARK  Name = 
REMARK                            x       y       z     vdW  Elec       q    Type
REMARK                         _______ _______ _______ _____ _____    ______ ____
ROOT
ATOM      1  C   LIG    1       -4.465  -4.495  14.240  0.00  0.00    +0.000 A 
ATOM      2  C   LIG    1       -5.712  -4.026  13.825  0.00  0.00    +0.004 A 
ATOM      3  C   LIG    1       -6.756  -3.916  14.744  0.00  0.00    +0.045 A 
ATOM      4  C   LIG    1       -6.544  -4.275  16.071  0.00  0.00    +0.117 A 
ATOM      5  C   LIG    1       -5.304  -4.743  16.496  0.00  0.00    +0.045 A 
ATOM      6  C   LIG    1       -4.261  -4.854  15.574  0.00  0.00    +0.004 A 
ENDROOT
BRANCH   4   7
ATOM      7  O   LIG    1       -7.591  -4.154  16.936  0.00  0.00    -0.507 OA
ATOM      8  H   LIG    1       -8.383  -4.528  16.516  0.00  0.00    +0.292 HD
ENDBRANCH   4   7
TORSDOF 1
ENDMDL
MODEL 3
REMARK VINA RESULT:      -4.8      0.050      1.829
REMARK  Name = 
REMARK                            x       y       z     vdW  Elec       q    Type
REMARK                         _______ _______ _______ _____ _____    ______ ____
ROOT
ATOM      1  C   LIG    1       -5.934  -4.272  14.498  0.00  0.00    +0.000 A 
ATOM      2  C   LIG    1       -6.889  -4.256  15.514  0.00  0.00    +0.004 A 
ATOM      3  C   LIG    1       -6.538  -4.642  16.807  0.00  0.00    +0.045 A 
ATOM      4  C   LIG    1       -5.232  -5.040  17.075  0.00  0.00    +0.117 A 
ATOM      5  C   LIG    1       -4.270  -5.058  16.069  0.00  0.00    +0.045 A 
ATOM      6  C   LIG    1       -4.625  -4.672  14.775  0.00  0.00    +0.004 A 
ENDROOT
BRANCH   4   7
ATOM      7  O   LIG    1       -4.931  -5.411  18.352  0.00  0.00    -0.507 OA
ATOM      8  H   LIG    1       -4.005  -5.704  18.377  0.00  0.00    +0.292 HD
ENDBRANCH   4   7
TORSDOF 1
ENDMDL
MODEL 4
REMARK VINA RESULT:      -4.7      7.861      8.291
REMARK  Name = 
REMARK                            x       y       z     vdW  Elec       q    Type
REMARK                         _______ _______ _______ _____ _____    ______ ____
ROOT
ATOM      1  C   LIG    1       -0.966   1.959  20.284  0.00  0.00    +0.000 A 
ATOM      2  C   LIG    1       -0.157   1.073  19.572  0.00  0.00    +0.004 A 
ATOM      3  C   LIG    1       -0.115  -0.274  19.932  0.00  0.00    +0.045 A 
ATOM      4  C   LIG    1       -0.882  -0.724  21.001  0.00  0.00    +0.117 A 
ATOM      5  C   LIG    1       -1.693   0.151  21.717  0.00  0.00    +0.045 A 
ATOM      6  C   LIG    1       -1.734   1.499  21.356  0.00  0.00    +0.004 A 
ENDROOT
BRANCH   4   7
ATOM      7  O   LIG    1       -0.810  -2.048  21.321  0.00  0.00    -0.507 OA
ATOM      8  H   LIG    1       -0.463  -2.531  20.553  0.00  0.00    +0.292 HD
ENDBRANCH   4   7
TORSDOF 1
ENDMDL
MODEL 5
REMARK VINA RESULT:      -4.6      8.011      8.480
REMARK  Name = 
REMARK                            x       y       z     vdW  Elec       q    Type
REMARK                         _______ _______ _______ _____ _____    ______ ____
ROOT
ATOM      1  C   LIG    1        0.067  -0.722  19.480  0.00  0.00    +0.000 A 
ATOM      2  C   LIG    1        0.022   0.592  19.013  0.00  0.00    +0.004 A 
ATOM      3  C   LIG    1       -0.662   1.566  19.739  0.00  0.00    +0.045 A 
ATOM      4  C   LIG    1       -1.294   1.220  20.929  0.00  0.00    +0.117 A 
ATOM      5  C   LIG    1       -1.254  -0.087  21.405  0.00  0.00    +0.045 A 
ATOM      6  C   LIG    1       -0.571  -1.062  20.675  0.00  0.00    +0.004 A 
ENDROOT
BRANCH   4   7
ATOM      7  O   LIG    1       -1.952   2.203  21.607  0.00  0.00    -0.507 OA
ATOM      8  H   LIG    1       -2.644   2.566  21.029  0.00  0.00    +0.292 HD
ENDBRANCH   4   7
TORSDOF 1
ENDMDL
MODEL 6
REMARK VINA RESULT:      -4.5     13.938     14.373
REMARK  Name = 
REMARK                            x       y       z     vdW  Elec       q    Type
REMARK                         _______ _______ _______ _____ _____    ______ ____
ROOT
ATOM      1  C   LIG    1      -17.853  -9.453  19.599  0.00  0.00    +0.000 A 
ATOM      2  C   LIG    1      -17.692 -10.641  20.313  0.00  0.00    +0.004 A 
ATOM      3  C   LIG    1      -17.789 -10.637  21.704  0.00  0.00    +0.045 A 
ATOM      4  C   LIG    1      -18.047  -9.444  22.372  0.00  0.00    +0.117 A 
ATOM      5  C   LIG    1      -18.211  -8.254  21.670  0.00  0.00    +0.045 A 
ATOM      6  C   LIG    1      -18.113  -8.260  20.277  0.00  0.00    +0.004 A 
ENDROOT
BRANCH   4   7
ATOM      7  O   LIG    1      -18.133  -9.484  23.732  0.00  0.00    -0.507 OA
ATOM      8  H   LIG    1      -17.757 -10.326  24.039  0.00  0.00    +0.292 HD
ENDBRANCH   4   7
TORSDOF 1
ENDMDL
MODEL 7
REMARK VINA RESULT:      -4.5      7.945      8.227
REMARK  Name = 
REMARK                            x       y       z     vdW  Elec       q    Type
REMARK                         _______ _______ _______ _____ _____    ______ ____
ROOT
ATOM      1  C   LIG    1        0.131  -0.569  19.307  0.00  0.00    +0.000 A 
ATOM      2  C   LIG    1       -0.186  -1.204  20.508  0.00  0.00    +0.004 A 
ATOM      3  C   LIG    1       -1.040  -0.583  21.419  0.00  0.00    +0.045 A 
ATOM      4  C   LIG    1       -1.572   0.667  21.122  0.00  0.00    +0.117 A 
ATOM      5  C   LIG    1       -1.263   1.309  19.926  0.00  0.00    +0.045 A 
ATOM      6  C   LIG    1       -0.407   0.687  19.016  0.00  0.00    +0.004 A 
ENDROOT
BRANCH   4   7
ATOM      7  O   LIG    1       -2.402   1.239  22.041  0.00  0.00    -0.507 OA
ATOM      8  H   LIG    1       -2.675   0.556  22.675  0.00  0.00    +0.292 HD
ENDBRANCH   4   7
TORSDOF 1
ENDMDL
MODEL 8
REMARK VINA RESULT:      -4.4      1.742      2.735
REMARK  Name = 
REMARK                            x       y       z     vdW  Elec       q    Type
REMARK                         _______ _______ _______ _____ _____    ______ ____
ROOT
ATOM      1  C   LIG    1       -6.654  -4.569  16.579  0.00  0.00    +0.000 A 
ATOM      2  C   LIG    1       -6.707  -4.110  15.263  0.00  0.00    +0.004 A 
ATOM      3  C   LIG    1       -5.559  -4.130  14.472  0.00  0.00    +0.045 A 
ATOM      4  C   LIG    1       -4.366  -4.609  15.003  0.00  0.00    +0.117 A 
ATOM      5  C   LIG    1       -4.302  -5.070  16.314  0.00  0.00    +0.045 A 
ATOM      6  C   LIG    1       -5.452  -5.049  17.105  0.00  0.00    +0.004 A 
ENDROOT
BRANCH   4   7
ATOM      7  O   LIG    1       -3.267  -4.610  14.195  0.00  0.00    -0.507 OA
ATOM      8  H   LIG    1       -3.149  -5.505  13.836  0.00  0.00    +0.292 HD
ENDBRANCH   4   7
TORSDOF 1
ENDMDL
MODEL 9
REMARK VINA RESULT:      -4.4      7.844      8.074
REMARK  Name = 
REMARK                            x       y       z     vdW  Elec       q    Type
REMARK                         _______ _______ _______ _____ _____    ______ ____
ROOT
ATOM      1  C   LIG    1       -1.336   0.973  19.790  0.00  0.00    +0.000 A 
ATOM      2  C   LIG    1       -1.485   0.299  21.002  0.00  0.00    +0.004 A 
ATOM      3  C   LIG    1       -0.702  -0.822  21.277  0.00  0.00    +0.045 A 
ATOM      4  C   LIG    1        0.226  -1.260  20.337  0.00  0.00    +0.117 A 
ATOM      5  C   LIG    1        0.384  -0.594  19.126  0.00  0.00    +0.045 A 
ATOM      6  C   LIG    1       -0.402   0.528  18.852  0.00  0.00    +0.004 A 
ENDROOT
BRANCH   4   7
ATOM      7  O   LIG    1        0.970  -2.360  20.646  0.00  0.00    -0.507 OA
ATOM      8  H   LIG    1        0.366  -3.098  20.830  0.00  0.00    +0.292 HD
ENDBRANCH   4   7
TORSDOF 1
ENDMDL
