MODEL 1
REMARK VINA RESULT:      -5.1      0.000      0.000
REMARK  Name = 
REMARK                            x       y       z     vdW  Elec       q    Type
REMARK                         _______ _______ _______ _____ _____    ______ ____
ROOT
ATOM      1  C   LIG    1        2.657  29.735   4.520  0.00  0.00    +0.000 A 
ATOM      2  C   LIG    1        1.881  28.586   4.360  0.00  0.00    +0.004 A 
ATOM      3  C   LIG    1        2.365  27.353   4.795  0.00  0.00    +0.045 A 
ATOM      4  C   LIG    1        3.621  27.277   5.389  0.00  0.00    +0.117 A 
ATOM      5  C   LIG    1        4.402  28.416   5.554  0.00  0.00    +0.045 A 
ATOM      6  C   LIG    1        3.917  29.651   5.117  0.00  0.00    +0.004 A 
ENDROOT
BRANCH   4   7
ATOM      7  O   LIG    1        4.056  26.052   5.799  0.00  0.00    -0.507 OA
ATOM      8  H   LIG    1        3.727  25.384   5.175  0.00  0.00    +0.292 HD
ENDBRANCH   4   7
TORSDOF 1
ENDMDL
MODEL 2
REMARK VINA RESULT:      -5.1      0.094      1.830
REMARK  Name = 
REMARK                            x       y       z     vdW  Elec       q    Type
REMARK                         _______ _______ _______ _____ _____    ______ ____
ROOT
ATOM      1  C   LIG    1        2.712  29.822   4.578  0.00  0.00    +0.000 A 
ATOM      2  C   LIG    1        3.977  29.659   5.142  0.00  0.00    +0.004 A 
ATOM      3  C   LIG    1        4.412  28.389   5.521  0.00  0.00    +0.045 A 
ATOM      4  C   LIG    1        3.578  27.292   5.332  0.00  0.00    +0.117 A 
ATOM      5  C   LIG    1        2.314  27.443   4.770  0.00  0.00    +0.045 A 
ATOM      6  C   LIG    1        1.880  28.716   4.392  0.00  0.00    +0.004 A 
ENDROOT
BRANCH   4   7
ATOM      7  O   LIG    1        4.042  26.069   5.718  0.00  0.00    -0.507 OA
ATOM      8  H   LIG    1        3.280  25.490   5.887  0.00  0.00    +0.292 HD
ENDBRANCH   4   7
TORSDOF 1
ENDMDL
MODEL 3
REMARK VINA RESULT:      -5.0      8.154      9.397
REMARK  Name = 
REMARK                            x       y       z     vdW  Elec       q    Type
REMARK                         _______ _______ _______ _____ _____    ______ ____
ROOT
ATOM      1  C   LIG    1        4.647  21.936  13.411  0.00  0.00    +0.000 A 
ATOM      2  C   LIG    1        5.204  22.986  12.680  0.00  0.00    +0.004 A 
ATOM      3  C   LIG    1        4.740  23.263  11.394  0.00  0.00    +0.045 A 
ATOM      4  C   LIG    1        3.722  22.488  10.849  0.00  0.00    +0.117 A 
ATOM      5  C   LIG    1        3.158  21.440  11.570  0.00  0.00    +0.045 A 
ATOM      6  C   LIG    1        3.624  21.164  12.857  0.00  0.00    +0.004 A 
ENDROOT
BRANCH   4   7
ATOM      7  O   LIG    1        3.299  22.792   9.589  0.00  0.00    -0.507 OA
ATOM      8  H   LIG    1        2.378  22.497   9.494  0.00  0.00    +0.292 HD
ENDBRANCH   4   7
TORSDOF 1
ENDMDL
MODEL 4
REMARK VINA RESULT:      -4.7      7.696      8.510
REMARK  Name = 
REMARK                            x       y       z     vdW  Elec       q    Type
REMARK                         _______ _______ _______ _____ _____    ______ ____
ROOT
ATOM      1  C   LIG    1        3.391  23.194  10.211  0.00  0.00    +0.000 A 
ATOM      2  C   LIG    1        3.328  22.024   9.455  0.00  0.00    +0.004 A 
ATOM      3  C   LIG    1        4.171  20.954   9.755  0.00  0.00    +0.045 A 
ATOM      4  C   LIG    1        5.071  21.063  10.810  0.00  0.00    +0.117 A 
ATOM      5  C   LIG    1        5.141  22.225  11.572  0.00  0.00    +0.045 A 
ATOM      6  C   LIG    1        4.297  23.296  11.269  0.00  0.00    +0.004 A 
ENDROOT
BRANCH   4   7
ATOM      7  O   LIG    1        5.877  19.994  11.069  0.00  0.00    -0.507 OA
ATOM      8  H   LIG    1        5.910  19.858  12.030  0.00  0.00    +0.292 HD
ENDBRANCH   4   7
TORSDOF 1
ENDMDL
MODEL 5
REMARK VINA RESULT:      -4.6      8.497      9.478
REMARK  Name = 
REMARK                            x       y       z     vdW  Elec       q    Type
REMARK                         _______ _______ _______ _____ _____    ______ ____
ROOT
ATOM      1  C   LIG    1        3.206  22.010  10.747  0.00  0.00    +0.000 A 
ATOM      2  C   LIG    1        3.016  21.206  11.871  0.00  0.00    +0.004 A 
ATOM      3  C   LIG    1        3.862  21.335  12.971  0.00  0.00    +0.045 A 
ATOM      4  C   LIG    1        4.893  22.269  12.939  0.00  0.00    +0.117 A 
ATOM      5  C   LIG    1        5.091  23.077  11.824  0.00  0.00    +0.045 A 
ATOM      6  C   LIG    1        4.242  22.945  10.723  0.00  0.00    +0.004 A 
ENDROOT
BRANCH   4   7
ATOM      7  O   LIG    1        5.698  22.362  14.036  0.00  0.00    -0.507 OA
ATOM      8  H   LIG    1        6.606  22.140  13.771  0.00  0.00    +0.292 HD
ENDBRANCH   4   7
TORSDOF 1
ENDMDL
MODEL 6
REMARK VINA RESULT:      -4.6      8.390      8.445
REMARK  Name = 
REMARK                            x       y       z     vdW  Elec       q    Type
REMARK                         _______ _______ _______ _____ _____    ______ ____
ROOT
ATOM      1  C   LIG    1        1.723  21.403  10.098  0.00  0.00    +0.000 A 
ATOM      2  C   LIG    1        1.554  20.840   8.834  0.00  0.00    +0.004 A 
ATOM      3  C   LIG    1        2.668  20.464   8.084  0.00  0.00    +0.045 A 
ATOM      4  C   LIG    1        3.943  20.654   8.605  0.00  0.00    +0.117 A 
ATOM      5  C   LIG    1        4.124  21.214   9.866  0.00  0.00    +0.045 A 
ATOM      6  C   LIG    1        3.007  21.591  10.615  0.00  0.00    +0.004 A 
ENDROOT
BRANCH   4   7
ATOM      7  O   LIG    1        5.005  20.274   7.838  0.00  0.00    -0.507 OA
ATOM      8  H   LIG    1        4.750  19.488   7.328  0.00  0.00    +0.292 HD
ENDBRANCH   4   7
TORSDOF 1
ENDMDL
MODEL 7
REMARK VINA RESULT:      -4.6      1.935      2.652
REMARK  Name = 
REMARK                            x       y       z     vdW  Elec       q    Type
REMARK                         _______ _______ _______ _____ _____    ______ ____
ROOT
ATOM      1  C   LIG    1        4.045  28.549   5.369  0.00  0.00    +0.000 A 
ATOM      2  C   LIG    1        3.287  27.385   5.502  0.00  0.00    +0.004 A 
ATOM      3  C   LIG    1        1.926  27.402   5.198  0.00  0.00    +0.045 A 
ATOM      4  C   LIG    1        1.333  28.584   4.763  0.00  0.00    +0.117 A 
ATOM      5  C   LIG    1        2.080  29.749   4.626  0.00  0.00    +0.045 A 
ATOM      6  C   LIG    1        3.443  29.730   4.932  0.00  0.00    +0.004 A 
ENDROOT
BRANCH   4   7
ATOM      7  O   LIG    1       -0.000  28.557   4.478  0.00  0.00    -0.507 OA
ATOM      8  H   LIG    1       -0.197  29.278   3.858  0.00  0.00    +0.292 HD
ENDBRANCH   4   7
TORSDOF 1
ENDMDL
MODEL 8
REMARK VINA RESULT:      -4.5      8.222      8.845
REMARK  Name = 
REMARK                            x       y       z     vdW  Elec       q    Type
REMARK                         _______ _______ _______ _____ _____    ______ ____
ROOT
ATOM      1  C   LIG    1        2.539  21.477   9.038  0.00  0.00    +0.000 A 
ATOM      2  C   LIG    1        2.839  21.800  10.362  0.00  0.00    +0.004 A 
ATOM      3  C   LIG    1        4.032  21.361  10.933  0.00  0.00    +0.045 A 
ATOM      4  C   LIG    1        4.918  20.601  10.176  0.00  0.00    +0.117 A 
ATOM      5  C   LIG    1        4.630  20.274   8.855  0.00  0.00    +0.045 A 
ATOM      6  C   LIG    1        3.434  20.714   8.284  0.00  0.00    +0.004 A 
ENDROOT
BRANCH   4   7
ATOM      7  O   LIG    1        6.073  20.191  10.774  0.00  0.00    -0.507 OA
ATOM      8  H   LIG    1        5.882  19.399  11.302  0.00  0.00    +0.292 HD
ENDBRANCH   4   7
TORSDOF 1
ENDMDL
MODEL 9
REMARK VINA RESULT:      -4.5      7.752      8.424
REMARK  Name = 
REMARK                            x       y       z     vdW  Elec       q    Type
REMARK                         _______ _______ _______ _____ _____    ______ ____
ROOT
ATOM      1  C   LIG    1        2.959  21.428  10.805  0.00  0.00    +0.000 A 
ATOM      2  C   LIG    1        4.169  21.539  10.118  0.00  0.00    +0.004 A 
ATOM      3  C   LIG    1        4.199  21.386   8.732  0.00  0.00    +0.045 A 
ATOM      4  C   LIG    1        3.019  21.125   8.043  0.00  0.00    +0.117 A 
ATOM      5  C   LIG    1        1.808  21.014   8.718  0.00  0.00    +0.045 A 
ATOM      6  C   LIG    1        1.779  21.166  10.106  0.00  0.00    +0.004 A 
ENDROOT
BRANCH   4   7
ATOM      7  O   LIG    1        3.094  20.981   6.689  0.00  0.00    -0.507 OA
ATOM      8  H   LIG    1        2.824  20.077   6.460  0.00  0.00    +0.292 HD
ENDBRANCH   4   7
TORSDOF 1
ENDMDL
