REMARK  Name = 
REMARK                            x       y       z     vdW  Elec       q    Type
REMARK                         _______ _______ _______ _____ _____    ______ ____
ROOT
ATOM      1  C   LIG    1       -1.378  -0.072   0.018  0.00  0.00    +0.000 A 
ATOM      2  C   LIG    1       -0.618  -1.242   0.009  0.00  0.00    +0.004 A 
ATOM      3  C   LIG    1        0.774  -1.168  -0.028  0.00  0.00    +0.045 A 
ATOM      4  C   LIG    1        1.396   0.076  -0.055  0.00  0.00    +0.117 A 
ATOM      5  C   LIG    1        0.648   1.249  -0.045  0.00  0.00    +0.045 A 
ATOM      6  C   LIG    1       -0.746   1.173  -0.009  0.00  0.00    +0.004 A 
ENDROOT
BRANCH   4   7
ATOM      7  O   LIG    1        2.759   0.103  -0.092  0.00  0.00    -0.507 OA
ATOM      8  H   LIG    1        3.048   1.030  -0.116  0.00  0.00    +0.292 HD
ENDBRANCH   4   7
TORSDOF 1
