MODEL 1
REMARK VINA RESULT:      -4.8      0.000      0.000
REMARK  Name = 
REMARK                            x       y       z     vdW  Elec       q    Type
REMARK                         _______ _______ _______ _____ _____    ______ ____
ROOT
ATOM      1  C   LIG    1       -4.434  -4.521  14.196  0.00  0.00    +0.000 A 
ATOM      2  C   LIG    1       -4.196  -4.886  15.522  0.00  0.00    +0.004 A 
ATOM      3  C   LIG    1       -5.194  -4.714  16.481  0.00  0.00    +0.045 A 
ATOM      4  C   LIG    1       -6.423  -4.180  16.107  0.00  0.00    +0.117 A 
ATOM      5  C   LIG    1       -6.671  -3.814  14.788  0.00  0.00    +0.045 A 
ATOM      6  C   LIG    1       -5.670  -3.986  13.829  0.00  0.00    +0.004 A 
ENDROOT
BRANCH   4   7
ATOM      7  O   LIG    1       -7.370  -4.028  17.076  0.00  0.00    -0.507 OA
ATOM      8  H   LIG    1       -7.729  -4.904  17.296  0.00  0.00    +0.292 HD
ENDBRANCH   4   7
TORSDOF 1
ENDMDL
MODEL 2
REMARK VINA RESULT:      -4.8      1.350      1.906
REMARK  Name = 
REMARK                            x       y       z     vdW  Elec       q    Type
REMARK                         _______ _______ _______ _____ _____    ______ ____
ROOT
ATOM      1  C   LIG    1       -5.872  -4.265  14.507  0.00  0.00    +0.000 A 
ATOM      2  C   LIG    1       -4.578  -4.670  14.837  0.00  0.00    +0.004 A 
ATOM      3  C   LIG    1       -4.281  -5.057  16.143  0.00  0.00    +0.045 A 
ATOM      4  C   LIG    1       -5.281  -5.036  17.110  0.00  0.00    +0.117 A 
ATOM      5  C   LIG    1       -6.575  -4.635  16.792  0.00  0.00    +0.045 A 
ATOM      6  C   LIG    1       -6.870  -4.247  15.483  0.00  0.00    +0.004 A 
ENDROOT
BRANCH   4   7
ATOM      7  O   LIG    1       -4.948  -5.421  18.375  0.00  0.00    -0.507 OA
ATOM      8  H   LIG    1       -5.130  -6.370  18.466  0.00  0.00    +0.292 HD
ENDBRANCH   4   7
TORSDOF 1
ENDMDL
MODEL 3
REMARK VINA RESULT:      -4.8      0.156      1.835
REMARK  Name = 
REMARK                            x       y       z     vdW  Elec       q    Type
REMARK                         _______ _______ _______ _____ _____    ______ ____
ROOT
ATOM      1  C   LIG    1       -4.452  -4.504  14.272  0.00  0.00    +0.000 A 
ATOM      2  C   LIG    1       -5.693  -4.030  13.847  0.00  0.00    +0.004 A 
ATOM      3  C   LIG    1       -6.745  -3.919  14.756  0.00  0.00    +0.045 A 
ATOM      4  C   LIG    1       -6.546  -4.281  16.084  0.00  0.00    +0.117 A 
ATOM      5  C   LIG    1       -5.312  -4.754  16.519  0.00  0.00    +0.045 A 
ATOM      6  C   LIG    1       -4.261  -4.866  15.607  0.00  0.00    +0.004 A 
ENDROOT
BRANCH   4   7
ATOM      7  O   LIG    1       -7.601  -4.158  16.940  0.00  0.00    -0.507 OA
ATOM      8  H   LIG    1       -8.094  -4.995  16.943  0.00  0.00    +0.292 HD
ENDBRANCH   4   7
TORSDOF 1
ENDMDL
MODEL 4
REMARK VINA RESULT:      -4.7      1.337      2.267
REMARK  Name = 
REMARK                            x       y       z     vdW  Elec       q    Type
REMARK                         _______ _______ _______ _____ _____    ______ ____
ROOT
ATOM      1  C   LIG    1       -5.990  -4.122  14.548  0.00  0.00    +0.000 A 
ATOM      2  C   LIG    1       -6.933  -4.150  15.577  0.00  0.00    +0.004 A 
ATOM      3  C   LIG    1       -6.564  -4.590  16.848  0.00  0.00    +0.045 A 
ATOM      4  C   LIG    1       -5.255  -4.999  17.081  0.00  0.00    +0.117 A 
ATOM      5  C   LIG    1       -4.307  -4.974  16.063  0.00  0.00    +0.045 A 
ATOM      6  C   LIG    1       -4.678  -4.534  14.791  0.00  0.00    +0.004 A 
ENDROOT
BRANCH   4   7
ATOM      7  O   LIG    1       -4.937  -5.422  18.338  0.00  0.00    -0.507 OA
ATOM      8  H   LIG    1       -5.040  -6.388  18.372  0.00  0.00    +0.292 HD
ENDBRANCH   4   7
TORSDOF 1
ENDMDL
MODEL 5
REMARK VINA RESULT:      -4.7      8.219      8.734
REMARK  Name = 
REMARK                            x       y       z     vdW  Elec       q    Type
REMARK                         _______ _______ _______ _____ _____    ______ ____
ROOT
ATOM      1  C   LIG    1       -0.910   1.938  20.181  0.00  0.00    +0.000 A 
ATOM      2  C   LIG    1       -1.673   1.532  21.276  0.00  0.00    +0.004 A 
ATOM      3  C   LIG    1       -1.660   0.197  21.678  0.00  0.00    +0.045 A 
ATOM      4  C   LIG    1       -0.883  -0.723  20.981  0.00  0.00    +0.117 A 
ATOM      5  C   LIG    1       -0.118  -0.329  19.888  0.00  0.00    +0.045 A 
ATOM      6  C   LIG    1       -0.133   1.008  19.487  0.00  0.00    +0.004 A 
ENDROOT
BRANCH   4   7
ATOM      7  O   LIG    1       -0.900  -2.019  21.406  0.00  0.00    -0.507 OA
ATOM      8  H   LIG    1       -0.111  -2.467  21.060  0.00  0.00    +0.292 HD
ENDBRANCH   4   7
TORSDOF 1
ENDMDL
MODEL 6
REMARK VINA RESULT:      -4.7     14.055     14.525
REMARK  Name = 
REMARK                            x       y       z     vdW  Elec       q    Type
REMARK                         _______ _______ _______ _____ _____    ______ ____
ROOT
ATOM      1  C   LIG    1      -17.670 -10.436  19.966  0.00  0.00    +0.000 A 
ATOM      2  C   LIG    1      -18.013  -9.127  19.626  0.00  0.00    +0.004 A 
ATOM      3  C   LIG    1      -18.197  -8.173  20.626  0.00  0.00    +0.045 A 
ATOM      4  C   LIG    1      -18.037  -8.535  21.960  0.00  0.00    +0.117 A 
ATOM      5  C   LIG    1      -17.694  -9.837  22.310  0.00  0.00    +0.045 A 
ATOM      6  C   LIG    1      -17.511 -10.792  21.307  0.00  0.00    +0.004 A 
ENDROOT
BRANCH   4   7
ATOM      7  O   LIG    1      -18.227  -7.572  22.906  0.00  0.00    -0.507 OA
ATOM      8  H   LIG    1      -19.115  -7.195  22.787  0.00  0.00    +0.292 HD
ENDBRANCH   4   7
TORSDOF 1
ENDMDL
MODEL 7
REMARK VINA RESULT:      -4.5      8.412      8.837
REMARK  Name = 
REMARK                            x       y       z     vdW  Elec       q    Type
REMARK                         _______ _______ _______ _____ _____    ______ ____
ROOT
ATOM      1  C   LIG    1       -1.012  -1.536  22.277  0.00  0.00    +0.000 A 
ATOM      2  C   LIG    1       -1.935  -0.622  22.785  0.00  0.00    +0.004 A 
ATOM      3  C   LIG    1       -2.211   0.553  22.085  0.00  0.00    +0.045 A 
ATOM      4  C   LIG    1       -1.561   0.804  20.881  0.00  0.00    +0.117 A 
ATOM      5  C   LIG    1       -0.640  -0.102  20.364  0.00  0.00    +0.045 A 
ATOM      6  C   LIG    1       -0.365  -1.276  21.067  0.00  0.00    +0.004 A 
ENDROOT
BRANCH   4   7
ATOM      7  O   LIG    1       -1.859   1.964  20.230  0.00  0.00    -0.507 OA
ATOM      8  H   LIG    1       -1.599   1.870  19.298  0.00  0.00    +0.292 HD
ENDBRANCH   4   7
TORSDOF 1
ENDMDL
MODEL 8
REMARK VINA RESULT:      -4.4      2.018      2.703
REMARK  Name = 
REMARK                            x       y       z     vdW  Elec       q    Type
REMARK                         _______ _______ _______ _____ _____    ______ ____
ROOT
ATOM      1  C   LIG    1       -6.707  -4.373  16.132  0.00  0.00    +0.000 A 
ATOM      2  C   LIG    1       -5.546  -4.832  16.755  0.00  0.00    +0.004 A 
ATOM      3  C   LIG    1       -4.357  -4.923  16.032  0.00  0.00    +0.045 A 
ATOM      4  C   LIG    1       -4.338  -4.553  14.691  0.00  0.00    +0.117 A 
ATOM      5  C   LIG    1       -5.489  -4.093  14.060  0.00  0.00    +0.045 A 
ATOM      6  C   LIG    1       -6.679  -4.003  14.786  0.00  0.00    +0.004 A 
ENDROOT
BRANCH   4   7
ATOM      7  O   LIG    1       -3.154  -4.659  14.022  0.00  0.00    -0.507 OA
ATOM      8  H   LIG    1       -2.463  -4.226  14.549  0.00  0.00    +0.292 HD
ENDBRANCH   4   7
TORSDOF 1
ENDMDL
MODEL 9
REMARK VINA RESULT:      -4.4     13.728     14.318
REMARK  Name = 
REMARK                            x       y       z     vdW  Elec       q    Type
REMARK                         _______ _______ _______ _____ _____    ______ ____
ROOT
ATOM      1  C   LIG    1      -17.883  -9.682  22.205  0.00  0.00    +0.000 A 
ATOM      2  C   LIG    1      -17.700 -10.363  21.001  0.00  0.00    +0.004 A 
ATOM      3  C   LIG    1      -17.779  -9.672  19.792  0.00  0.00    +0.045 A 
ATOM      4  C   LIG    1      -18.038  -8.306  19.796  0.00  0.00    +0.117 A 
ATOM      5  C   LIG    1      -18.220  -7.617  20.991  0.00  0.00    +0.045 A 
ATOM      6  C   LIG    1      -18.143  -8.310  22.201  0.00  0.00    +0.004 A 
ENDROOT
BRANCH   4   7
ATOM      7  O   LIG    1      -18.107  -7.670  18.591  0.00  0.00    -0.507 OA
ATOM      8  H   LIG    1      -18.945  -7.911  18.164  0.00  0.00    +0.292 HD
ENDBRANCH   4   7
TORSDOF 1
ENDMDL
