MODEL 1
REMARK VINA RESULT:      -5.3      0.000      0.000
REMARK  Name = 
REMARK                            x       y       z     vdW  Elec       q    Type
REMARK                         _______ _______ _______ _____ _____    ______ ____
ROOT
ATOM      1  C   LIG    1       65.942  57.523  88.193  0.00  0.00    +0.000 A 
ATOM      2  C   LIG    1       67.071  57.096  87.494  0.00  0.00    +0.004 A 
ATOM      3  C   LIG    1       67.749  55.947  87.902  0.00  0.00    +0.045 A 
ATOM      4  C   LIG    1       67.292  55.234  89.005  0.00  0.00    +0.117 A 
ATOM      5  C   LIG    1       66.166  55.650  89.708  0.00  0.00    +0.045 A 
ATOM      6  C   LIG    1       65.489  56.801  89.299  0.00  0.00    +0.004 A 
ENDROOT
BRANCH   4   7
ATOM      7  O   LIG    1       67.986  54.118  89.370  0.00  0.00    -0.507 OA
ATOM      8  H   LIG    1       68.919  54.360  89.488  0.00  0.00    +0.292 HD
ENDBRANCH   4   7
TORSDOF 1
ENDMDL
MODEL 2
REMARK VINA RESULT:      -4.9      8.143      9.287
REMARK  Name = 
REMARK                            x       y       z     vdW  Elec       q    Type
REMARK                         _______ _______ _______ _____ _____    ______ ____
ROOT
ATOM      1  C   LIG    1       68.614  47.475  94.487  0.00  0.00    +0.000 A 
ATOM      2  C   LIG    1       69.805  48.049  94.042  0.00  0.00    +0.004 A 
ATOM      3  C   LIG    1       69.821  48.794  92.863  0.00  0.00    +0.045 A 
ATOM      4  C   LIG    1       68.645  48.959  92.138  0.00  0.00    +0.117 A 
ATOM      5  C   LIG    1       67.452  48.391  92.574  0.00  0.00    +0.045 A 
ATOM      6  C   LIG    1       67.438  47.645  93.754  0.00  0.00    +0.004 A 
ENDROOT
BRANCH   4   7
ATOM      7  O   LIG    1       68.705  49.693  90.990  0.00  0.00    -0.507 OA
ATOM      8  H   LIG    1       67.869  50.178  90.891  0.00  0.00    +0.292 HD
ENDBRANCH   4   7
TORSDOF 1
ENDMDL
MODEL 3
REMARK VINA RESULT:      -4.9      8.177      9.421
REMARK  Name = 
REMARK                            x       y       z     vdW  Elec       q    Type
REMARK                         _______ _______ _______ _____ _____    ______ ____
ROOT
ATOM      1  C   LIG    1       68.536  47.421  94.499  0.00  0.00    +0.000 A 
ATOM      2  C   LIG    1       67.382  47.663  93.754  0.00  0.00    +0.004 A 
ATOM      3  C   LIG    1       67.451  48.428  92.590  0.00  0.00    +0.045 A 
ATOM      4  C   LIG    1       68.675  48.945  92.179  0.00  0.00    +0.117 A 
ATOM      5  C   LIG    1       69.833  48.710  92.913  0.00  0.00    +0.045 A 
ATOM      6  C   LIG    1       69.762  47.944  94.079  0.00  0.00    +0.004 A 
ENDROOT
BRANCH   4   7
ATOM      7  O   LIG    1       68.698  49.689  91.036  0.00  0.00    -0.507 OA
ATOM      8  H   LIG    1       69.045  50.571  91.249  0.00  0.00    +0.292 HD
ENDBRANCH   4   7
TORSDOF 1
ENDMDL
MODEL 4
REMARK VINA RESULT:      -4.6      1.946      3.111
REMARK  Name = 
REMARK                            x       y       z     vdW  Elec       q    Type
REMARK                         _______ _______ _______ _____ _____    ______ ____
ROOT
ATOM      1  C   LIG    1       68.495  55.369  89.251  0.00  0.00    +0.000 A 
ATOM      2  C   LIG    1       67.259  54.838  89.622  0.00  0.00    +0.004 A 
ATOM      3  C   LIG    1       66.091  55.563  89.389  0.00  0.00    +0.045 A 
ATOM      4  C   LIG    1       66.167  56.814  88.787  0.00  0.00    +0.117 A 
ATOM      5  C   LIG    1       67.394  57.354  88.412  0.00  0.00    +0.045 A 
ATOM      6  C   LIG    1       68.563  56.626  88.646  0.00  0.00    +0.004 A 
ENDROOT
BRANCH   4   7
ATOM      7  O   LIG    1       65.001  57.490  88.579  0.00  0.00    -0.507 OA
ATOM      8  H   LIG    1       64.986  58.266  89.164  0.00  0.00    +0.292 HD
ENDBRANCH   4   7
TORSDOF 1
ENDMDL
MODEL 5
REMARK VINA RESULT:      -4.6      2.811      3.935
REMARK  Name = 
REMARK                            x       y       z     vdW  Elec       q    Type
REMARK                         _______ _______ _______ _____ _____    ______ ____
ROOT
ATOM      1  C   LIG    1       70.029  56.396  89.370  0.00  0.00    +0.000 A 
ATOM      2  C   LIG    1       68.810  56.134  88.745  0.00  0.00    +0.004 A 
ATOM      3  C   LIG    1       68.714  55.104  87.810  0.00  0.00    +0.045 A 
ATOM      4  C   LIG    1       69.838  54.343  87.506  0.00  0.00    +0.117 A 
ATOM      5  C   LIG    1       71.059  54.595  88.125  0.00  0.00    +0.045 A 
ATOM      6  C   LIG    1       71.153  55.628  89.060  0.00  0.00    +0.004 A 
ENDROOT
BRANCH   4   7
ATOM      7  O   LIG    1       69.701  53.347  86.585  0.00  0.00    -0.507 OA
ATOM      8  H   LIG    1       69.641  52.499  87.056  0.00  0.00    +0.292 HD
ENDBRANCH   4   7
TORSDOF 1
ENDMDL
MODEL 6
REMARK VINA RESULT:      -4.6      8.451      9.578
REMARK  Name = 
REMARK                            x       y       z     vdW  Elec       q    Type
REMARK                         _______ _______ _______ _____ _____    ______ ____
ROOT
ATOM      1  C   LIG    1       67.640  48.351  92.645  0.00  0.00    +0.000 A 
ATOM      2  C   LIG    1       67.688  47.651  93.852  0.00  0.00    +0.004 A 
ATOM      3  C   LIG    1       68.791  47.788  94.693  0.00  0.00    +0.045 A 
ATOM      4  C   LIG    1       69.839  48.625  94.322  0.00  0.00    +0.117 A 
ATOM      5  C   LIG    1       69.801  49.328  93.122  0.00  0.00    +0.045 A 
ATOM      6  C   LIG    1       68.695  49.189  92.280  0.00  0.00    +0.004 A 
ENDROOT
BRANCH   4   7
ATOM      7  O   LIG    1       70.899  48.729  95.173  0.00  0.00    -0.507 OA
ATOM      8  H   LIG    1       71.718  48.651  94.656  0.00  0.00    +0.292 HD
ENDBRANCH   4   7
TORSDOF 1
ENDMDL
MODEL 7
REMARK VINA RESULT:      -4.5      8.451      9.432
REMARK  Name = 
REMARK                            x       y       z     vdW  Elec       q    Type
REMARK                         _______ _______ _______ _____ _____    ______ ____
ROOT
ATOM      1  C   LIG    1       67.640  48.363  92.632  0.00  0.00    +0.000 A 
ATOM      2  C   LIG    1       68.708  49.195  92.294  0.00  0.00    +0.004 A 
ATOM      3  C   LIG    1       69.797  49.316  93.157  0.00  0.00    +0.045 A 
ATOM      4  C   LIG    1       69.809  48.604  94.352  0.00  0.00    +0.117 A 
ATOM      5  C   LIG    1       68.750  47.771  94.698  0.00  0.00    +0.045 A 
ATOM      6  C   LIG    1       67.660  47.652  93.834  0.00  0.00    +0.004 A 
ENDROOT
BRANCH   4   7
ATOM      7  O   LIG    1       70.893  48.752  95.167  0.00  0.00    -0.507 OA
ATOM      8  H   LIG    1       70.593  48.704  96.089  0.00  0.00    +0.292 HD
ENDBRANCH   4   7
TORSDOF 1
ENDMDL
MODEL 8
REMARK VINA RESULT:      -4.5      2.666      3.776
REMARK  Name = 
REMARK                            x       y       z     vdW  Elec       q    Type
REMARK                         _______ _______ _______ _____ _____    ______ ____
ROOT
ATOM      1  C   LIG    1       70.687  55.348  88.964  0.00  0.00    +0.000 A 
ATOM      2  C   LIG    1       70.885  54.714  87.737  0.00  0.00    +0.004 A 
ATOM      3  C   LIG    1       69.905  54.788  86.748  0.00  0.00    +0.045 A 
ATOM      4  C   LIG    1       68.733  55.497  86.994  0.00  0.00    +0.117 A 
ATOM      5  C   LIG    1       68.525  56.134  88.213  0.00  0.00    +0.045 A 
ATOM      6  C   LIG    1       69.508  56.058  89.203  0.00  0.00    +0.004 A 
ENDROOT
BRANCH   4   7
ATOM      7  O   LIG    1       67.800  55.544  86.000  0.00  0.00    -0.507 OA
ATOM      8  H   LIG    1       66.918  55.563  86.407  0.00  0.00    +0.292 HD
ENDBRANCH   4   7
TORSDOF 1
ENDMDL
MODEL 9
REMARK VINA RESULT:      -4.5      2.370      3.407
REMARK  Name = 
REMARK                            x       y       z     vdW  Elec       q    Type
REMARK                         _______ _______ _______ _____ _____    ______ ____
ROOT
ATOM      1  C   LIG    1       69.397  55.342  87.813  0.00  0.00    +0.000 A 
ATOM      2  C   LIG    1       69.053  56.235  88.828  0.00  0.00    +0.004 A 
ATOM      3  C   LIG    1       67.911  57.025  88.702  0.00  0.00    +0.045 A 
ATOM      4  C   LIG    1       67.122  56.917  87.562  0.00  0.00    +0.117 A 
ATOM      5  C   LIG    1       67.455  56.029  86.545  0.00  0.00    +0.045 A 
ATOM      6  C   LIG    1       68.599  55.238  86.671  0.00  0.00    +0.004 A 
ENDROOT
BRANCH   4   7
ATOM      7  O   LIG    1       66.015  57.709  87.480  0.00  0.00    -0.507 OA
ATOM      8  H   LIG    1       65.269  57.166  87.178  0.00  0.00    +0.292 HD
ENDBRANCH   4   7
TORSDOF 1
ENDMDL
