MODEL 1
REMARK VINA RESULT:      -5.1      0.000      0.000
REMARK  Name = 
REMARK                            x       y       z     vdW  Elec       q    Type
REMARK                         _______ _______ _______ _____ _____    ______ ____
ROOT
ATOM      1  C   LIG    1        2.680  29.749   4.528  0.00  0.00    +0.000 A 
ATOM      2  C   LIG    1        1.893  28.609   4.364  0.00  0.00    +0.004 A 
ATOM      3  C   LIG    1        2.365  27.369   4.794  0.00  0.00    +0.045 A 
ATOM      4  C   LIG    1        3.621  27.280   5.387  0.00  0.00    +0.117 A 
ATOM      5  C   LIG    1        4.413  28.411   5.557  0.00  0.00    +0.045 A 
ATOM      6  C   LIG    1        3.939  29.651   5.124  0.00  0.00    +0.004 A 
ENDROOT
BRANCH   4   7
ATOM      7  O   LIG    1        4.044  26.048   5.792  0.00  0.00    -0.507 OA
ATOM      8  H   LIG    1        4.894  25.858   5.362  0.00  0.00    +0.292 HD
ENDBRANCH   4   7
TORSDOF 1
ENDMDL
MODEL 2
REMARK VINA RESULT:      -5.1      0.052      1.829
REMARK  Name = 
REMARK                            x       y       z     vdW  Elec       q    Type
REMARK                         _______ _______ _______ _____ _____    ______ ____
ROOT
ATOM      1  C   LIG    1        2.709  29.786   4.559  0.00  0.00    +0.000 A 
ATOM      2  C   LIG    1        3.968  29.636   5.140  0.00  0.00    +0.004 A 
ATOM      3  C   LIG    1        4.404  28.373   5.539  0.00  0.00    +0.045 A 
ATOM      4  C   LIG    1        3.578  27.269   5.353  0.00  0.00    +0.117 A 
ATOM      5  C   LIG    1        2.321  27.408   4.773  0.00  0.00    +0.045 A 
ATOM      6  C   LIG    1        1.885  28.674   4.375  0.00  0.00    +0.004 A 
ENDROOT
BRANCH   4   7
ATOM      7  O   LIG    1        4.043  26.053   5.759  0.00  0.00    -0.507 OA
ATOM      8  H   LIG    1        3.428  25.369   5.446  0.00  0.00    +0.292 HD
ENDBRANCH   4   7
TORSDOF 1
ENDMDL
MODEL 3
REMARK VINA RESULT:      -5.0      8.152      9.394
REMARK  Name = 
REMARK                            x       y       z     vdW  Elec       q    Type
REMARK                         _______ _______ _______ _____ _____    ______ ____
ROOT
ATOM      1  C   LIG    1        4.616  21.914  13.400  0.00  0.00    +0.000 A 
ATOM      2  C   LIG    1        5.190  22.958  12.674  0.00  0.00    +0.004 A 
ATOM      3  C   LIG    1        4.730  23.249  11.390  0.00  0.00    +0.045 A 
ATOM      4  C   LIG    1        3.698  22.494  10.842  0.00  0.00    +0.117 A 
ATOM      5  C   LIG    1        3.118  21.452  11.558  0.00  0.00    +0.045 A 
ATOM      6  C   LIG    1        3.580  21.161  12.843  0.00  0.00    +0.004 A 
ENDROOT
BRANCH   4   7
ATOM      7  O   LIG    1        3.279  22.811   9.583  0.00  0.00    -0.507 OA
ATOM      8  H   LIG    1        2.354  23.103   9.631  0.00  0.00    +0.292 HD
ENDBRANCH   4   7
TORSDOF 1
ENDMDL
MODEL 4
REMARK VINA RESULT:      -4.6      8.246      9.200
REMARK  Name = 
REMARK                            x       y       z     vdW  Elec       q    Type
REMARK                         _______ _______ _______ _____ _____    ______ ____
ROOT
ATOM      1  C   LIG    1        3.230  22.405  10.413  0.00  0.00    +0.000 A 
ATOM      2  C   LIG    1        2.946  21.387  11.324  0.00  0.00    +0.004 A 
ATOM      3  C   LIG    1        3.709  21.258  12.484  0.00  0.00    +0.045 A 
ATOM      4  C   LIG    1        4.750  22.148  12.725  0.00  0.00    +0.117 A 
ATOM      5  C   LIG    1        5.041  23.168  11.825  0.00  0.00    +0.045 A 
ATOM      6  C   LIG    1        4.277  23.295  10.663  0.00  0.00    +0.004 A 
ENDROOT
BRANCH   4   7
ATOM      7  O   LIG    1        5.471  21.985  13.871  0.00  0.00    -0.507 OA
ATOM      8  H   LIG    1        5.860  21.095  13.866  0.00  0.00    +0.292 HD
ENDBRANCH   4   7
TORSDOF 1
ENDMDL
MODEL 5
REMARK VINA RESULT:      -4.6      7.180      8.415
REMARK  Name = 
REMARK                            x       y       z     vdW  Elec       q    Type
REMARK                         _______ _______ _______ _____ _____    ______ ____
ROOT
ATOM      1  C   LIG    1        5.037  22.037  11.766  0.00  0.00    +0.000 A 
ATOM      2  C   LIG    1        5.145  20.866  11.015  0.00  0.00    +0.004 A 
ATOM      3  C   LIG    1        4.651  20.826   9.712  0.00  0.00    +0.045 A 
ATOM      4  C   LIG    1        4.051  21.958   9.169  0.00  0.00    +0.117 A 
ATOM      5  C   LIG    1        3.939  23.131   9.909  0.00  0.00    +0.045 A 
ATOM      6  C   LIG    1        4.434  23.169  11.214  0.00  0.00    +0.004 A 
ENDROOT
BRANCH   4   7
ATOM      7  O   LIG    1        3.580  21.875   7.892  0.00  0.00    -0.507 OA
ATOM      8  H   LIG    1        2.612  21.801   7.925  0.00  0.00    +0.292 HD
ENDBRANCH   4   7
TORSDOF 1
ENDMDL
MODEL 6
REMARK VINA RESULT:      -4.6      1.899      2.625
REMARK  Name = 
REMARK                            x       y       z     vdW  Elec       q    Type
REMARK                         _______ _______ _______ _____ _____    ______ ____
ROOT
ATOM      1  C   LIG    1        4.107  28.518   5.368  0.00  0.00    +0.000 A 
ATOM      2  C   LIG    1        3.350  27.351   5.474  0.00  0.00    +0.004 A 
ATOM      3  C   LIG    1        1.989  27.373   5.171  0.00  0.00    +0.045 A 
ATOM      4  C   LIG    1        1.395  28.563   4.764  0.00  0.00    +0.117 A 
ATOM      5  C   LIG    1        2.140  29.732   4.654  0.00  0.00    +0.045 A 
ATOM      6  C   LIG    1        3.502  29.709   4.959  0.00  0.00    +0.004 A 
ENDROOT
BRANCH   4   7
ATOM      7  O   LIG    1        0.061  28.540   4.479  0.00  0.00    -0.507 OA
ATOM      8  H   LIG    1       -0.323  29.396   4.734  0.00  0.00    +0.292 HD
ENDBRANCH   4   7
TORSDOF 1
ENDMDL
MODEL 7
REMARK VINA RESULT:      -4.6      8.354      8.633
REMARK  Name = 
REMARK                            x       y       z     vdW  Elec       q    Type
REMARK                         _______ _______ _______ _____ _____    ______ ____
ROOT
ATOM      1  C   LIG    1        1.782  21.348  10.207  0.00  0.00    +0.000 A 
ATOM      2  C   LIG    1        3.084  21.563  10.660  0.00  0.00    +0.004 A 
ATOM      3  C   LIG    1        4.168  21.241   9.843  0.00  0.00    +0.045 A 
ATOM      4  C   LIG    1        3.941  20.708   8.578  0.00  0.00    +0.117 A 
ATOM      5  C   LIG    1        2.647  20.491   8.116  0.00  0.00    +0.045 A 
ATOM      6  C   LIG    1        1.563  20.812   8.936  0.00  0.00    +0.004 A 
ENDROOT
BRANCH   4   7
ATOM      7  O   LIG    1        5.029  20.407   7.813  0.00  0.00    -0.507 OA
ATOM      8  H   LIG    1        5.377  21.231   7.435  0.00  0.00    +0.292 HD
ENDBRANCH   4   7
TORSDOF 1
ENDMDL
MODEL 8
REMARK VINA RESULT:      -4.6      1.946      2.880
REMARK  Name = 
REMARK                            x       y       z     vdW  Elec       q    Type
REMARK                         _______ _______ _______ _____ _____    ______ ____
ROOT
ATOM      1  C   LIG    1        4.035  28.609   5.355  0.00  0.00    +0.000 A 
ATOM      2  C   LIG    1        3.394  29.767   4.915  0.00  0.00    +0.004 A 
ATOM      3  C   LIG    1        2.033  29.739   4.616  0.00  0.00    +0.045 A 
ATOM      4  C   LIG    1        1.322  28.552   4.759  0.00  0.00    +0.117 A 
ATOM      5  C   LIG    1        1.950  27.391   5.198  0.00  0.00    +0.045 A 
ATOM      6  C   LIG    1        3.314  27.421   5.497  0.00  0.00    +0.004 A 
ENDROOT
BRANCH   4   7
ATOM      7  O   LIG    1       -0.008  28.568   4.455  0.00  0.00    -0.507 OA
ATOM      8  H   LIG    1       -0.396  27.720   4.724  0.00  0.00    +0.292 HD
ENDBRANCH   4   7
TORSDOF 1
ENDMDL
MODEL 9
REMARK VINA RESULT:      -4.4      8.152      9.203
REMARK  Name = 
REMARK                            x       y       z     vdW  Elec       q    Type
REMARK                         _______ _______ _______ _____ _____    ______ ____
ROOT
ATOM      1  C   LIG    1        4.049  23.665  12.059  0.00  0.00    +0.000 A 
ATOM      2  C   LIG    1        4.571  22.830  13.047  0.00  0.00    +0.004 A 
ATOM      3  C   LIG    1        5.125  21.599  12.698  0.00  0.00    +0.045 A 
ATOM      4  C   LIG    1        5.153  21.212  11.362  0.00  0.00    +0.117 A 
ATOM      5  C   LIG    1        4.636  22.037  10.368  0.00  0.00    +0.045 A 
ATOM      6  C   LIG    1        4.081  23.269  10.720  0.00  0.00    +0.004 A 
ENDROOT
BRANCH   4   7
ATOM      7  O   LIG    1        5.703  19.999  11.064  0.00  0.00    -0.507 OA
ATOM      8  H   LIG    1        5.012  19.434  10.682  0.00  0.00    +0.292 HD
ENDBRANCH   4   7
TORSDOF 1
ENDMDL
