MODEL 1
REMARK VINA RESULT:      -4.3      0.000      0.000
REMARK  Name = 
REMARK                            x       y       z     vdW  Elec       q    Type
REMARK                         _______ _______ _______ _____ _____    ______ ____
ROOT
ATOM      1  O   LIG    1       -2.608   0.479  22.799  0.00  0.00    -0.275 OA
ATOM      2  C   LIG    1       -1.926   0.594  21.789  0.00  0.00    +0.228 C 
ATOM      3  C   LIG    1       -1.405   1.901  21.251  0.00  0.00    +0.172 C 
ATOM      4  S   LIG    1       -0.467   1.475  19.757  0.00  0.00    -0.093 S 
ATOM      5  C   LIG    1       -0.789  -0.230  19.915  0.00  0.00    +0.113 C 
ATOM      6  S   LIG    1       -0.266  -1.423  18.896  0.00  0.00    -0.028 S 
ATOM      7  N   LIG    1       -1.548  -0.465  21.016  0.00  0.00    -0.274 N 
ATOM      8  H   LIG    1       -1.833  -1.400  21.267  0.00  0.00    +0.156 HD
ENDROOT
TORSDOF 0
ENDMDL
MODEL 2
REMARK VINA RESULT:      -3.7      2.243      2.732
REMARK  Name = 
REMARK                            x       y       z     vdW  Elec       q    Type
REMARK                         _______ _______ _______ _____ _____    ______ ____
ROOT
ATOM      1  O   LIG    1       -2.037   1.307  19.831  0.00  0.00    -0.275 OA
ATOM      2  C   LIG    1       -1.274   0.410  20.162  0.00  0.00    +0.228 C 
ATOM      3  C   LIG    1       -0.033   0.019  19.402  0.00  0.00    +0.172 C 
ATOM      4  S   LIG    1        0.702  -1.351  20.340  0.00  0.00    -0.093 S 
ATOM      5  C   LIG    1       -0.549  -1.329  21.552  0.00  0.00    +0.113 C 
ATOM      6  S   LIG    1       -0.655  -2.327  22.868  0.00  0.00    -0.028 S 
ATOM      7  N   LIG    1       -1.457  -0.358  21.275  0.00  0.00    -0.274 N 
ATOM      8  H   LIG    1       -2.254  -0.199  21.872  0.00  0.00    +0.156 HD
ENDROOT
TORSDOF 0
ENDMDL
MODEL 3
REMARK VINA RESULT:      -3.4      8.329      8.764
REMARK  Name = 
REMARK                            x       y       z     vdW  Elec       q    Type
REMARK                         _______ _______ _______ _____ _____    ______ ____
ROOT
ATOM      1  O   LIG    1       -3.548  -4.154  16.751  0.00  0.00    -0.275 OA
ATOM      2  C   LIG    1       -4.353  -4.350  15.850  0.00  0.00    +0.228 C 
ATOM      3  C   LIG    1       -5.833  -4.091  15.953  0.00  0.00    +0.172 C 
ATOM      4  S   LIG    1       -6.522  -4.552  14.338  0.00  0.00    -0.093 S 
ATOM      5  C   LIG    1       -4.972  -5.014  13.692  0.00  0.00    +0.113 C 
ATOM      6  S   LIG    1       -4.680  -5.594  12.170  0.00  0.00    -0.028 S 
ATOM      7  N   LIG    1       -4.001  -4.834  14.624  0.00  0.00    -0.274 N 
ATOM      8  H   LIG    1       -3.036  -5.050  14.425  0.00  0.00    +0.156 HD
ENDROOT
TORSDOF 0
ENDMDL
MODEL 4
REMARK VINA RESULT:      -3.4      8.558      9.128
REMARK  Name = 
REMARK                            x       y       z     vdW  Elec       q    Type
REMARK                         _______ _______ _______ _____ _____    ______ ____
ROOT
ATOM      1  O   LIG    1       -3.630  -4.378  16.475  0.00  0.00    -0.275 OA
ATOM      2  C   LIG    1       -4.294  -4.509  15.456  0.00  0.00    +0.228 C 
ATOM      3  C   LIG    1       -3.718  -4.705  14.077  0.00  0.00    +0.172 C 
ATOM      4  S   LIG    1       -5.147  -4.842  12.966  0.00  0.00    -0.093 S 
ATOM      5  C   LIG    1       -6.301  -4.650  14.257  0.00  0.00    +0.113 C 
ATOM      6  S   LIG    1       -7.948  -4.650  14.105  0.00  0.00    -0.028 S 
ATOM      7  N   LIG    1       -5.659  -4.494  15.443  0.00  0.00    -0.274 N 
ATOM      8  H   LIG    1       -6.170  -4.370  16.304  0.00  0.00    +0.156 HD
ENDROOT
TORSDOF 0
ENDMDL
MODEL 5
REMARK VINA RESULT:      -3.4      9.349      9.907
REMARK  Name = 
REMARK                            x       y       z     vdW  Elec       q    Type
REMARK                         _______ _______ _______ _____ _____    ______ ____
ROOT
ATOM      1  O   LIG    1       -6.633  -4.771  16.933  0.00  0.00    -0.275 OA
ATOM      2  C   LIG    1       -6.782  -4.464  15.758  0.00  0.00    +0.228 C 
ATOM      3  C   LIG    1       -5.660  -4.115  14.815  0.00  0.00    +0.172 C 
ATOM      4  S   LIG    1       -6.456  -3.751  13.224  0.00  0.00    -0.093 S 
ATOM      5  C   LIG    1       -8.058  -4.047  13.839  0.00  0.00    +0.113 C 
ATOM      6  S   LIG    1       -9.471  -3.931  12.986  0.00  0.00    -0.028 S 
ATOM      7  N   LIG    1       -8.002  -4.398  15.149  0.00  0.00    -0.274 N 
ATOM      8  H   LIG    1       -8.839  -4.608  15.673  0.00  0.00    +0.156 HD
ENDROOT
TORSDOF 0
ENDMDL
MODEL 6
REMARK VINA RESULT:      -3.3      8.783      9.423
REMARK  Name = 
REMARK                            x       y       z     vdW  Elec       q    Type
REMARK                         _______ _______ _______ _____ _____    ______ ____
ROOT
ATOM      1  O   LIG    1       -3.509  -4.699  14.187  0.00  0.00    -0.275 OA
ATOM      2  C   LIG    1       -4.633  -4.573  14.655  0.00  0.00    +0.228 C 
ATOM      3  C   LIG    1       -4.947  -4.520  16.127  0.00  0.00    +0.172 C 
ATOM      4  S   LIG    1       -6.748  -4.324  16.236  0.00  0.00    -0.093 S 
ATOM      5  C   LIG    1       -6.957  -4.328  14.506  0.00  0.00    +0.113 C 
ATOM      6  S   LIG    1       -8.391  -4.186  13.694  0.00  0.00    -0.028 S 
ATOM      7  N   LIG    1       -5.757  -4.464  13.887  0.00  0.00    -0.274 N 
ATOM      8  H   LIG    1       -5.684  -4.487  12.881  0.00  0.00    +0.156 HD
ENDROOT
TORSDOF 0
ENDMDL
MODEL 7
REMARK VINA RESULT:      -3.3     13.680     14.265
REMARK  Name = 
REMARK                            x       y       z     vdW  Elec       q    Type
REMARK                         _______ _______ _______ _____ _____    ______ ____
ROOT
ATOM      1  O   LIG    1       -8.031  -2.264   8.979  0.00  0.00    -0.275 OA
ATOM      2  C   LIG    1       -7.928  -3.483   8.974  0.00  0.00    +0.228 C 
ATOM      3  C   LIG    1       -8.813  -4.414   8.187  0.00  0.00    +0.172 C 
ATOM      4  S   LIG    1       -8.209  -6.087   8.553  0.00  0.00    -0.093 S 
ATOM      5  C   LIG    1       -6.955  -5.513   9.618  0.00  0.00    +0.113 C 
ATOM      6  S   LIG    1       -5.864  -6.449  10.437  0.00  0.00    -0.028 S 
ATOM      7  N   LIG    1       -6.984  -4.158   9.693  0.00  0.00    -0.274 N 
ATOM      8  H   LIG    1       -6.327  -3.650  10.266  0.00  0.00    +0.156 HD
ENDROOT
TORSDOF 0
ENDMDL
MODEL 8
REMARK VINA RESULT:      -3.2      8.383      9.025
REMARK  Name = 
REMARK                            x       y       z     vdW  Elec       q    Type
REMARK                         _______ _______ _______ _____ _____    ______ ____
ROOT
ATOM      1  O   LIG    1       -7.191  -4.113  16.879  0.00  0.00    -0.275 OA
ATOM      2  C   LIG    1       -6.394  -4.299  15.970  0.00  0.00    +0.228 C 
ATOM      3  C   LIG    1       -4.908  -4.469  16.156  0.00  0.00    +0.172 C 
ATOM      4  S   LIG    1       -4.233  -4.715  14.489  0.00  0.00    -0.093 S 
ATOM      5  C   LIG    1       -5.794  -4.588  13.725  0.00  0.00    +0.113 C 
ATOM      6  S   LIG    1       -6.102  -4.702  12.104  0.00  0.00    -0.028 S 
ATOM      7  N   LIG    1       -6.758  -4.377  14.657  0.00  0.00    -0.274 N 
ATOM      8  H   LIG    1       -7.728  -4.278  14.396  0.00  0.00    +0.156 HD
ENDROOT
TORSDOF 0
ENDMDL
MODEL 9
REMARK VINA RESULT:      -3.2     11.024     11.634
REMARK  Name = 
REMARK                            x       y       z     vdW  Elec       q    Type
REMARK                         _______ _______ _______ _____ _____    ______ ____
ROOT
ATOM      1  O   LIG    1      -10.675  -3.678  12.724  0.00  0.00    -0.275 OA
ATOM      2  C   LIG    1       -9.560  -4.145  12.914  0.00  0.00    +0.228 C 
ATOM      3  C   LIG    1       -8.819  -5.018  11.935  0.00  0.00    +0.172 C 
ATOM      4  S   LIG    1       -7.235  -5.409  12.732  0.00  0.00    -0.093 S 
ATOM      5  C   LIG    1       -7.611  -4.493  14.165  0.00  0.00    +0.113 C 
ATOM      6  S   LIG    1       -6.640  -4.309  15.491  0.00  0.00    -0.028 S 
ATOM      7  N   LIG    1       -8.841  -3.929  14.054  0.00  0.00    -0.274 N 
ATOM      8  H   LIG    1       -9.226  -3.360  14.793  0.00  0.00    +0.156 HD
ENDROOT
TORSDOF 0
ENDMDL
