MODEL 1
REMARK VINA RESULT:      -3.8      0.000      0.000
REMARK  Name = 
REMARK                            x       y       z     vdW  Elec       q    Type
REMARK                         _______ _______ _______ _____ _____    ______ ____
ROOT
ATOM      1  O   LIG    1       44.641  -5.803  15.659  0.00  0.00    -0.275 OA
ATOM      2  C   LIG    1       44.104  -4.791  16.087  0.00  0.00    +0.228 C 
ATOM      3  C   LIG    1       44.689  -3.897  17.150  0.00  0.00    +0.172 C 
ATOM      4  S   LIG    1       43.480  -2.563  17.385  0.00  0.00    -0.093 S 
ATOM      5  C   LIG    1       42.386  -3.203  16.190  0.00  0.00    +0.113 C 
ATOM      6  S   LIG    1       40.931  -2.552  15.747  0.00  0.00    -0.028 S 
ATOM      7  N   LIG    1       42.893  -4.340  15.648  0.00  0.00    -0.274 N 
ATOM      8  H   LIG    1       42.394  -4.850  14.936  0.00  0.00    +0.156 HD
ENDROOT
TORSDOF 0
ENDMDL
MODEL 2
REMARK VINA RESULT:      -3.7      3.824      4.318
REMARK  Name = 
REMARK                            x       y       z     vdW  Elec       q    Type
REMARK                         _______ _______ _______ _____ _____    ______ ____
ROOT
ATOM      1  O   LIG    1       48.396  -2.716  15.058  0.00  0.00    -0.275 OA
ATOM      2  C   LIG    1       47.841  -3.013  16.107  0.00  0.00    +0.228 C 
ATOM      3  C   LIG    1       48.278  -4.128  17.022  0.00  0.00    +0.172 C 
ATOM      4  S   LIG    1       47.107  -4.109  18.409  0.00  0.00    -0.093 S 
ATOM      5  C   LIG    1       46.201  -2.770  17.761  0.00  0.00    +0.113 C 
ATOM      6  S   LIG    1       44.870  -2.066  18.448  0.00  0.00    -0.028 S 
ATOM      7  N   LIG    1       46.741  -2.361  16.584  0.00  0.00    -0.274 N 
ATOM      8  H   LIG    1       46.345  -1.593  16.064  0.00  0.00    +0.156 HD
ENDROOT
TORSDOF 0
ENDMDL
MODEL 3
REMARK VINA RESULT:      -3.7      1.893      2.355
REMARK  Name = 
REMARK                            x       y       z     vdW  Elec       q    Type
REMARK                         _______ _______ _______ _____ _____    ______ ____
ROOT
ATOM      1  O   LIG    1       46.002  -5.151  17.248  0.00  0.00    -0.275 OA
ATOM      2  C   LIG    1       45.035  -4.422  17.068  0.00  0.00    +0.228 C 
ATOM      3  C   LIG    1       43.994  -4.630  15.999  0.00  0.00    +0.172 C 
ATOM      4  S   LIG    1       42.811  -3.267  16.200  0.00  0.00    -0.093 S 
ATOM      5  C   LIG    1       43.677  -2.575  17.544  0.00  0.00    +0.113 C 
ATOM      6  S   LIG    1       43.253  -1.215  18.384  0.00  0.00    -0.028 S 
ATOM      7  N   LIG    1       44.779  -3.316  17.826  0.00  0.00    -0.274 N 
ATOM      8  H   LIG    1       45.402  -3.064  18.578  0.00  0.00    +0.156 HD
ENDROOT
TORSDOF 0
ENDMDL
MODEL 4
REMARK VINA RESULT:      -3.7      2.466      3.182
REMARK  Name = 
REMARK                            x       y       z     vdW  Elec       q    Type
REMARK                         _______ _______ _______ _____ _____    ______ ____
ROOT
ATOM      1  O   LIG    1       40.452  -2.712  15.539  0.00  0.00    -0.275 OA
ATOM      2  C   LIG    1       41.567  -2.892  16.010  0.00  0.00    +0.228 C 
ATOM      3  C   LIG    1       42.206  -2.016  17.056  0.00  0.00    +0.172 C 
ATOM      4  S   LIG    1       43.836  -2.748  17.377  0.00  0.00    -0.093 S 
ATOM      5  C   LIG    1       43.600  -4.033  16.224  0.00  0.00    +0.113 C 
ATOM      6  S   LIG    1       44.679  -5.235  15.865  0.00  0.00    -0.028 S 
ATOM      7  N   LIG    1       42.380  -3.923  15.639  0.00  0.00    -0.274 N 
ATOM      8  H   LIG    1       42.071  -4.584  14.942  0.00  0.00    +0.156 HD
ENDROOT
TORSDOF 0
ENDMDL
MODEL 5
REMARK VINA RESULT:      -3.7      2.728      3.158
REMARK  Name = 
REMARK                            x       y       z     vdW  Elec       q    Type
REMARK                         _______ _______ _______ _____ _____    ______ ____
ROOT
ATOM      1  O   LIG    1       41.639  -3.200  15.840  0.00  0.00    -0.275 OA
ATOM      2  C   LIG    1       42.724  -3.291  16.397  0.00  0.00    +0.228 C 
ATOM      3  C   LIG    1       43.794  -4.287  16.028  0.00  0.00    +0.172 C 
ATOM      4  S   LIG    1       45.170  -3.969  17.169  0.00  0.00    -0.093 S 
ATOM      5  C   LIG    1       44.333  -2.675  17.983  0.00  0.00    +0.113 C 
ATOM      6  S   LIG    1       44.914  -1.775  19.243  0.00  0.00    -0.028 S 
ATOM      7  N   LIG    1       43.105  -2.492  17.435  0.00  0.00    -0.274 N 
ATOM      8  H   LIG    1       42.477  -1.781  17.781  0.00  0.00    +0.156 HD
ENDROOT
TORSDOF 0
ENDMDL
MODEL 6
REMARK VINA RESULT:      -3.7      3.061      3.737
REMARK  Name = 
REMARK                            x       y       z     vdW  Elec       q    Type
REMARK                         _______ _______ _______ _____ _____    ______ ____
ROOT
ATOM      1  O   LIG    1       42.210  -2.909  16.606  0.00  0.00    -0.275 OA
ATOM      2  C   LIG    1       43.162  -2.643  17.327  0.00  0.00    +0.228 C 
ATOM      3  C   LIG    1       43.236  -1.449  18.242  0.00  0.00    +0.172 C 
ATOM      4  S   LIG    1       44.853  -1.559  19.059  0.00  0.00    -0.093 S 
ATOM      5  C   LIG    1       45.290  -3.025  18.226  0.00  0.00    +0.113 C 
ATOM      6  S   LIG    1       46.707  -3.862  18.397  0.00  0.00    -0.028 S 
ATOM      7  N   LIG    1       44.291  -3.408  17.391  0.00  0.00    -0.274 N 
ATOM      8  H   LIG    1       44.369  -4.240  16.825  0.00  0.00    +0.156 HD
ENDROOT
TORSDOF 0
ENDMDL
MODEL 7
REMARK VINA RESULT:      -3.6      2.009      2.140
REMARK  Name = 
REMARK                            x       y       z     vdW  Elec       q    Type
REMARK                         _______ _______ _______ _____ _____    ______ ____
ROOT
ATOM      1  O   LIG    1       43.903  -5.184  15.772  0.00  0.00    -0.275 OA
ATOM      2  C   LIG    1       44.271  -4.354  16.592  0.00  0.00    +0.228 C 
ATOM      3  C   LIG    1       45.608  -4.372  17.287  0.00  0.00    +0.172 C 
ATOM      4  S   LIG    1       45.611  -2.920  18.377  0.00  0.00    -0.093 S 
ATOM      5  C   LIG    1       44.009  -2.429  17.899  0.00  0.00    +0.113 C 
ATOM      6  S   LIG    1       43.184  -1.108  18.456  0.00  0.00    -0.028 S 
ATOM      7  N   LIG    1       43.505  -3.295  16.983  0.00  0.00    -0.274 N 
ATOM      8  H   LIG    1       42.584  -3.167  16.591  0.00  0.00    +0.156 HD
ENDROOT
TORSDOF 0
ENDMDL
MODEL 8
REMARK VINA RESULT:      -3.6      3.302      3.708
REMARK  Name = 
REMARK                            x       y       z     vdW  Elec       q    Type
REMARK                         _______ _______ _______ _____ _____    ______ ____
ROOT
ATOM      1  O   LIG    1       42.406  -0.662  18.650  0.00  0.00    -0.275 OA
ATOM      2  C   LIG    1       43.276  -1.476  18.374  0.00  0.00    +0.228 C 
ATOM      3  C   LIG    1       44.633  -1.533  19.027  0.00  0.00    +0.172 C 
ATOM      4  S   LIG    1       45.496  -2.922  18.239  0.00  0.00    -0.093 S 
ATOM      5  C   LIG    1       44.152  -3.302  17.199  0.00  0.00    +0.113 C 
ATOM      6  S   LIG    1       44.094  -4.521  16.081  0.00  0.00    -0.028 S 
ATOM      7  N   LIG    1       43.123  -2.447  17.427  0.00  0.00    -0.274 N 
ATOM      8  H   LIG    1       42.257  -2.518  16.914  0.00  0.00    +0.156 HD
ENDROOT
TORSDOF 0
ENDMDL
MODEL 9
REMARK VINA RESULT:      -3.6      4.481      5.102
REMARK  Name = 
REMARK                            x       y       z     vdW  Elec       q    Type
REMARK                         _______ _______ _______ _____ _____    ______ ____
ROOT
ATOM      1  O   LIG    1       40.205   0.104  18.206  0.00  0.00    -0.275 OA
ATOM      2  C   LIG    1       41.320  -0.176  17.788  0.00  0.00    +0.228 C 
ATOM      3  C   LIG    1       41.718  -0.160  16.335  0.00  0.00    +0.172 C 
ATOM      4  S   LIG    1       43.465  -0.652  16.302  0.00  0.00    -0.093 S 
ATOM      5  C   LIG    1       43.554  -0.833  18.032  0.00  0.00    +0.113 C 
ATOM      6  S   LIG    1       44.886  -1.290  18.901  0.00  0.00    -0.028 S 
ATOM      7  N   LIG    1       42.355  -0.543  18.598  0.00  0.00    -0.274 N 
ATOM      8  H   LIG    1       42.219  -0.595  19.597  0.00  0.00    +0.156 HD
ENDROOT
TORSDOF 0
ENDMDL
