MODEL 1
REMARK VINA RESULT:      -3.4      0.000      0.000
REMARK  Name = 
REMARK                            x       y       z     vdW  Elec       q    Type
REMARK                         _______ _______ _______ _____ _____    ______ ____
ROOT
ATOM      1  O   LIG    1       27.160  -3.752  27.422  0.00  0.00    -0.275 OA
ATOM      2  C   LIG    1       27.991  -2.902  27.132  0.00  0.00    +0.228 C 
ATOM      3  C   LIG    1       27.669  -1.558  26.531  0.00  0.00    +0.172 C 
ATOM      4  S   LIG    1       29.267  -0.724  26.319  0.00  0.00    -0.093 S 
ATOM      5  C   LIG    1       30.171  -2.064  26.967  0.00  0.00    +0.113 C 
ATOM      6  S   LIG    1       31.815  -2.142  27.143  0.00  0.00    -0.028 S 
ATOM      7  N   LIG    1       29.332  -3.071  27.321  0.00  0.00    -0.274 N 
ATOM      8  H   LIG    1       29.682  -3.931  27.717  0.00  0.00    +0.156 HD
ENDROOT
TORSDOF 0
ENDMDL
MODEL 2
REMARK VINA RESULT:      -3.3      5.736      6.270
REMARK  Name = 
REMARK                            x       y       z     vdW  Elec       q    Type
REMARK                         _______ _______ _______ _____ _____    ______ ____
ROOT
ATOM      1  O   LIG    1       35.173   2.517  28.050  0.00  0.00    -0.275 OA
ATOM      2  C   LIG    1       34.333   1.764  27.577  0.00  0.00    +0.228 C 
ATOM      3  C   LIG    1       33.550   2.036  26.318  0.00  0.00    +0.172 C 
ATOM      4  S   LIG    1       32.467   0.596  26.096  0.00  0.00    -0.093 S 
ATOM      5  C   LIG    1       33.051  -0.195  27.534  0.00  0.00    +0.113 C 
ATOM      6  S   LIG    1       32.554  -1.663  28.113  0.00  0.00    -0.028 S 
ATOM      7  N   LIG    1       33.997   0.567  28.140  0.00  0.00    -0.274 N 
ATOM      8  H   LIG    1       34.449   0.265  28.990  0.00  0.00    +0.156 HD
ENDROOT
TORSDOF 0
ENDMDL
MODEL 3
REMARK VINA RESULT:      -3.3      2.643      3.084
REMARK  Name = 
REMARK                            x       y       z     vdW  Elec       q    Type
REMARK                         _______ _______ _______ _____ _____    ______ ____
ROOT
ATOM      1  O   LIG    1       25.313  -0.662  26.603  0.00  0.00    -0.275 OA
ATOM      2  C   LIG    1       26.518  -0.666  26.811  0.00  0.00    +0.228 C 
ATOM      3  C   LIG    1       27.448  -1.792  26.438  0.00  0.00    +0.172 C 
ATOM      4  S   LIG    1       29.099  -1.259  26.973  0.00  0.00    -0.093 S 
ATOM      5  C   LIG    1       28.520   0.261  27.596  0.00  0.00    +0.113 C 
ATOM      6  S   LIG    1       29.437   1.437  28.312  0.00  0.00    -0.028 S 
ATOM      7  N   LIG    1       27.179   0.365  27.414  0.00  0.00    -0.274 N 
ATOM      8  H   LIG    1       26.670   1.182  27.714  0.00  0.00    +0.156 HD
ENDROOT
TORSDOF 0
ENDMDL
MODEL 4
REMARK VINA RESULT:      -3.3      6.164      6.715
REMARK  Name = 
REMARK                            x       y       z     vdW  Elec       q    Type
REMARK                         _______ _______ _______ _____ _____    ______ ____
ROOT
ATOM      1  O   LIG    1       33.368   2.301  26.067  0.00  0.00    -0.275 OA
ATOM      2  C   LIG    1       33.555   1.943  27.222  0.00  0.00    +0.228 C 
ATOM      3  C   LIG    1       34.907   1.839  27.878  0.00  0.00    +0.172 C 
ATOM      4  S   LIG    1       34.585   1.272  29.572  0.00  0.00    -0.093 S 
ATOM      5  C   LIG    1       32.861   1.209  29.334  0.00  0.00    +0.113 C 
ATOM      6  S   LIG    1       31.734   0.758  30.458  0.00  0.00    -0.028 S 
ATOM      7  N   LIG    1       32.546   1.590  28.070  0.00  0.00    -0.274 N 
ATOM      8  H   LIG    1       31.588   1.615  27.752  0.00  0.00    +0.156 HD
ENDROOT
TORSDOF 0
ENDMDL
MODEL 5
REMARK VINA RESULT:      -3.3      2.235      2.402
REMARK  Name = 
REMARK                            x       y       z     vdW  Elec       q    Type
REMARK                         _______ _______ _______ _____ _____    ______ ____
ROOT
ATOM      1  O   LIG    1       25.569  -0.720  26.431  0.00  0.00    -0.275 OA
ATOM      2  C   LIG    1       26.715  -0.547  26.823  0.00  0.00    +0.228 C 
ATOM      3  C   LIG    1       27.234   0.740  27.409  0.00  0.00    +0.172 C 
ATOM      4  S   LIG    1       28.975   0.424  27.814  0.00  0.00    -0.093 S 
ATOM      5  C   LIG    1       28.919  -1.219  27.240  0.00  0.00    +0.113 C 
ATOM      6  S   LIG    1       30.172  -2.299  27.240  0.00  0.00    -0.028 S 
ATOM      7  N   LIG    1       27.677  -1.514  26.777  0.00  0.00    -0.274 N 
ATOM      8  H   LIG    1       27.459  -2.426  26.404  0.00  0.00    +0.156 HD
ENDROOT
TORSDOF 0
ENDMDL
MODEL 6
REMARK VINA RESULT:      -3.3      3.248      3.553
REMARK  Name = 
REMARK                            x       y       z     vdW  Elec       q    Type
REMARK                         _______ _______ _______ _____ _____    ______ ____
ROOT
ATOM      1  O   LIG    1       29.484   0.935  28.266  0.00  0.00    -0.275 OA
ATOM      2  C   LIG    1       28.548   0.237  27.900  0.00  0.00    +0.228 C 
ATOM      3  C   LIG    1       27.232   0.766  27.391  0.00  0.00    +0.172 C 
ATOM      4  S   LIG    1       26.236  -0.699  26.997  0.00  0.00    -0.093 S 
ATOM      5  C   LIG    1       27.488  -1.809  27.482  0.00  0.00    +0.113 C 
ATOM      6  S   LIG    1       27.400  -3.461  27.443  0.00  0.00    -0.028 S 
ATOM      7  N   LIG    1       28.582  -1.128  27.909  0.00  0.00    -0.274 N 
ATOM      8  H   LIG    1       29.408  -1.609  28.230  0.00  0.00    +0.156 HD
ENDROOT
TORSDOF 0
ENDMDL
MODEL 7
REMARK VINA RESULT:      -3.2      2.207      2.433
REMARK  Name = 
REMARK                            x       y       z     vdW  Elec       q    Type
REMARK                         _______ _______ _______ _____ _____    ______ ____
ROOT
ATOM      1  O   LIG    1       25.564  -0.697  26.580  0.00  0.00    -0.275 OA
ATOM      2  C   LIG    1       26.644  -1.216  26.828  0.00  0.00    +0.228 C 
ATOM      3  C   LIG    1       26.829  -2.439  27.688  0.00  0.00    +0.172 C 
ATOM      4  S   LIG    1       28.616  -2.758  27.705  0.00  0.00    -0.093 S 
ATOM      5  C   LIG    1       28.974  -1.394  26.682  0.00  0.00    +0.113 C 
ATOM      6  S   LIG    1       30.475  -0.925  26.168  0.00  0.00    -0.028 S 
ATOM      7  N   LIG    1       27.831  -0.743  26.348  0.00  0.00    -0.274 N 
ATOM      8  H   LIG    1       27.846   0.075  25.758  0.00  0.00    +0.156 HD
ENDROOT
TORSDOF 0
ENDMDL
MODEL 8
REMARK VINA RESULT:      -3.2      2.830      3.765
REMARK  Name = 
REMARK                            x       y       z     vdW  Elec       q    Type
REMARK                         _______ _______ _______ _____ _____    ______ ____
ROOT
ATOM      1  O   LIG    1       32.715  -3.299  25.808  0.00  0.00    -0.275 OA
ATOM      2  C   LIG    1       31.993  -2.754  26.632  0.00  0.00    +0.228 C 
ATOM      3  C   LIG    1       32.487  -1.903  27.773  0.00  0.00    +0.172 C 
ATOM      4  S   LIG    1       30.997  -1.360  28.657  0.00  0.00    -0.093 S 
ATOM      5  C   LIG    1       29.923  -2.206  27.578  0.00  0.00    +0.113 C 
ATOM      6  S   LIG    1       28.272  -2.244  27.674  0.00  0.00    -0.028 S 
ATOM      7  N   LIG    1       30.632  -2.851  26.618  0.00  0.00    -0.274 N 
ATOM      8  H   LIG    1       30.173  -3.396  25.902  0.00  0.00    +0.156 HD
ENDROOT
TORSDOF 0
ENDMDL
MODEL 9
REMARK VINA RESULT:      -3.1      5.389      5.728
REMARK  Name = 
REMARK                            x       y       z     vdW  Elec       q    Type
REMARK                         _______ _______ _______ _____ _____    ______ ____
ROOT
ATOM      1  O   LIG    1       32.814   1.203  31.247  0.00  0.00    -0.275 OA
ATOM      2  C   LIG    1       32.393   1.215  30.098  0.00  0.00    +0.228 C 
ATOM      3  C   LIG    1       30.984   0.860  29.699  0.00  0.00    +0.172 C 
ATOM      4  S   LIG    1       30.925   1.054  27.895  0.00  0.00    -0.093 S 
ATOM      5  C   LIG    1       32.594   1.539  27.788  0.00  0.00    +0.113 C 
ATOM      6  S   LIG    1       33.412   1.931  26.404  0.00  0.00    -0.028 S 
ATOM      7  N   LIG    1       33.159   1.557  29.022  0.00  0.00    -0.274 N 
ATOM      8  H   LIG    1       34.126   1.815  29.153  0.00  0.00    +0.156 HD
ENDROOT
TORSDOF 0
ENDMDL
