MODEL 1
REMARK VINA RESULT:      -3.6      0.000      0.000
REMARK  Name = 
REMARK                            x       y       z     vdW  Elec       q    Type
REMARK                         _______ _______ _______ _____ _____    ______ ____
ROOT
ATOM      1  O   LIG    1        1.822   5.540  21.820  0.00  0.00    -0.275 OA
ATOM      2  C   LIG    1        2.399   4.465  21.730  0.00  0.00    +0.228 C 
ATOM      3  C   LIG    1        2.852   3.636  22.904  0.00  0.00    +0.172 C 
ATOM      4  S   LIG    1        3.634   2.163  22.187  0.00  0.00    -0.093 S 
ATOM      5  C   LIG    1        3.348   2.680  20.549  0.00  0.00    +0.113 C 
ATOM      6  S   LIG    1        3.777   1.863  19.176  0.00  0.00    -0.028 S 
ATOM      7  N   LIG    1        2.707   3.877  20.538  0.00  0.00    -0.274 N 
ATOM      8  H   LIG    1        2.458   4.331  19.672  0.00  0.00    +0.156 HD
ENDROOT
TORSDOF 0
ENDMDL
MODEL 2
REMARK VINA RESULT:      -3.6      1.807      2.321
REMARK  Name = 
REMARK                            x       y       z     vdW  Elec       q    Type
REMARK                         _______ _______ _______ _____ _____    ______ ____
ROOT
ATOM      1  O   LIG    1        1.802   5.064  21.698  0.00  0.00    -0.275 OA
ATOM      2  C   LIG    1        2.229   3.940  21.923  0.00  0.00    +0.228 C 
ATOM      3  C   LIG    1        3.684   3.551  21.875  0.00  0.00    +0.172 C 
ATOM      4  S   LIG    1        3.731   1.785  22.293  0.00  0.00    -0.093 S 
ATOM      5  C   LIG    1        2.002   1.678  22.484  0.00  0.00    +0.113 C 
ATOM      6  S   LIG    1        1.145   0.322  22.889  0.00  0.00    -0.028 S 
ATOM      7  N   LIG    1        1.427   2.885  22.251  0.00  0.00    -0.274 N 
ATOM      8  H   LIG    1        0.428   3.012  22.317  0.00  0.00    +0.156 HD
ENDROOT
TORSDOF 0
ENDMDL
MODEL 3
REMARK VINA RESULT:      -3.5      6.462      7.050
REMARK  Name = 
REMARK                            x       y       z     vdW  Elec       q    Type
REMARK                         _______ _______ _______ _____ _____    ______ ____
ROOT
ATOM      1  O   LIG    1        1.465  -0.139  22.723  0.00  0.00    -0.275 OA
ATOM      2  C   LIG    1        1.251  -1.200  23.295  0.00  0.00    +0.228 C 
ATOM      3  C   LIG    1        1.585  -2.557  22.733  0.00  0.00    +0.172 C 
ATOM      4  S   LIG    1        1.057  -3.751  23.996  0.00  0.00    -0.093 S 
ATOM      5  C   LIG    1        0.483  -2.511  25.076  0.00  0.00    +0.113 C 
ATOM      6  S   LIG    1       -0.203  -2.750  26.563  0.00  0.00    -0.028 S 
ATOM      7  N   LIG    1        0.675  -1.283  24.529  0.00  0.00    -0.274 N 
ATOM      8  H   LIG    1        0.402  -0.443  25.016  0.00  0.00    +0.156 HD
ENDROOT
TORSDOF 0
ENDMDL
MODEL 4
REMARK VINA RESULT:      -3.4      2.846      3.539
REMARK  Name = 
REMARK                            x       y       z     vdW  Elec       q    Type
REMARK                         _______ _______ _______ _____ _____    ______ ____
ROOT
ATOM      1  O   LIG    1        4.058   1.136  18.151  0.00  0.00    -0.275 OA
ATOM      2  C   LIG    1        3.749   1.480  19.284  0.00  0.00    +0.228 C 
ATOM      3  C   LIG    1        3.760   0.573  20.487  0.00  0.00    +0.172 C 
ATOM      4  S   LIG    1        3.222   1.604  21.881  0.00  0.00    -0.093 S 
ATOM      5  C   LIG    1        3.031   3.025  20.891  0.00  0.00    +0.113 C 
ATOM      6  S   LIG    1        2.535   4.517  21.405  0.00  0.00    -0.028 S 
ATOM      7  N   LIG    1        3.352   2.746  19.601  0.00  0.00    -0.274 N 
ATOM      8  H   LIG    1        3.300   3.453  18.883  0.00  0.00    +0.156 HD
ENDROOT
TORSDOF 0
ENDMDL
MODEL 5
REMARK VINA RESULT:      -3.3      3.594      4.219
REMARK  Name = 
REMARK                            x       y       z     vdW  Elec       q    Type
REMARK                         _______ _______ _______ _____ _____    ______ ____
ROOT
ATOM      1  O   LIG    1        4.809  -0.413  20.405  0.00  0.00    -0.275 OA
ATOM      2  C   LIG    1        3.952   0.095  21.116  0.00  0.00    +0.228 C 
ATOM      3  C   LIG    1        2.702  -0.606  21.583  0.00  0.00    +0.172 C 
ATOM      4  S   LIG    1        1.813   0.609  22.598  0.00  0.00    -0.093 S 
ATOM      5  C   LIG    1        3.021   1.842  22.365  0.00  0.00    +0.113 C 
ATOM      6  S   LIG    1        2.989   3.373  22.992  0.00  0.00    -0.028 S 
ATOM      7  N   LIG    1        4.026   1.376  21.581  0.00  0.00    -0.274 N 
ATOM      8  H   LIG    1        4.815   1.955  21.339  0.00  0.00    +0.156 HD
ENDROOT
TORSDOF 0
ENDMDL
MODEL 6
REMARK VINA RESULT:      -3.3     12.647     13.192
REMARK  Name = 
REMARK                            x       y       z     vdW  Elec       q    Type
REMARK                         _______ _______ _______ _____ _____    ______ ____
ROOT
ATOM      1  O   LIG    1        6.868  -3.788  32.978  0.00  0.00    -0.275 OA
ATOM      2  C   LIG    1        7.449  -4.040  31.931  0.00  0.00    +0.228 C 
ATOM      3  C   LIG    1        8.899  -4.439  31.831  0.00  0.00    +0.172 C 
ATOM      4  S   LIG    1        9.214  -4.689  30.060  0.00  0.00    -0.093 S 
ATOM      5  C   LIG    1        7.581  -4.288  29.607  0.00  0.00    +0.113 C 
ATOM      6  S   LIG    1        6.971  -4.264  28.069  0.00  0.00    -0.028 S 
ATOM      7  N   LIG    1        6.846  -3.989  30.708  0.00  0.00    -0.274 N 
ATOM      8  H   LIG    1        5.873  -3.732  30.636  0.00  0.00    +0.156 HD
ENDROOT
TORSDOF 0
ENDMDL
MODEL 7
REMARK VINA RESULT:      -3.3     11.813     12.321
REMARK  Name = 
REMARK                            x       y       z     vdW  Elec       q    Type
REMARK                         _______ _______ _______ _____ _____    ______ ____
ROOT
ATOM      1  O   LIG    1       12.269  -3.172  24.844  0.00  0.00    -0.275 OA
ATOM      2  C   LIG    1       11.348  -3.511  25.576  0.00  0.00    +0.228 C 
ATOM      3  C   LIG    1        9.900  -3.556  25.164  0.00  0.00    +0.172 C 
ATOM      4  S   LIG    1        8.994  -4.126  26.630  0.00  0.00    -0.093 S 
ATOM      5  C   LIG    1       10.435  -4.254  27.600  0.00  0.00    +0.113 C 
ATOM      6  S   LIG    1       10.512  -4.739  29.180  0.00  0.00    -0.028 S 
ATOM      7  N   LIG    1       11.525  -3.895  26.873  0.00  0.00    -0.274 N 
ATOM      8  H   LIG    1       12.451  -3.909  27.274  0.00  0.00    +0.156 HD
ENDROOT
TORSDOF 0
ENDMDL
MODEL 8
REMARK VINA RESULT:      -3.2      5.411      6.006
REMARK  Name = 
REMARK                            x       y       z     vdW  Elec       q    Type
REMARK                         _______ _______ _______ _____ _____    ______ ____
ROOT
ATOM      1  O   LIG    1        7.602  -1.620  20.798  0.00  0.00    -0.275 OA
ATOM      2  C   LIG    1        6.381  -1.545  20.843  0.00  0.00    +0.228 C 
ATOM      3  C   LIG    1        5.447  -2.724  20.754  0.00  0.00    +0.172 C 
ATOM      4  S   LIG    1        3.774  -2.031  20.879  0.00  0.00    -0.093 S 
ATOM      5  C   LIG    1        4.350  -0.394  21.024  0.00  0.00    +0.113 C 
ATOM      6  S   LIG    1        3.416   0.961  21.189  0.00  0.00    -0.028 S 
ATOM      7  N   LIG    1        5.707  -0.367  20.983  0.00  0.00    -0.274 N 
ATOM      8  H   LIG    1        6.217   0.501  21.053  0.00  0.00    +0.156 HD
ENDROOT
TORSDOF 0
ENDMDL
MODEL 9
REMARK VINA RESULT:      -3.2     10.692     11.021
REMARK  Name = 
REMARK                            x       y       z     vdW  Elec       q    Type
REMARK                         _______ _______ _______ _____ _____    ______ ____
ROOT
ATOM      1  O   LIG    1        6.639  -4.402  28.768  0.00  0.00    -0.275 OA
ATOM      2  C   LIG    1        7.605  -4.245  28.033  0.00  0.00    +0.228 C 
ATOM      3  C   LIG    1        9.040  -4.274  28.489  0.00  0.00    +0.172 C 
ATOM      4  S   LIG    1       10.032  -3.991  26.996  0.00  0.00    -0.093 S 
ATOM      5  C   LIG    1        8.634  -3.861  25.965  0.00  0.00    +0.113 C 
ATOM      6  S   LIG    1        8.643  -3.585  24.334  0.00  0.00    -0.028 S 
ATOM      7  N   LIG    1        7.498  -4.022  26.691  0.00  0.00    -0.274 N 
ATOM      8  H   LIG    1        6.587  -3.978  26.258  0.00  0.00    +0.156 HD
ENDROOT
TORSDOF 0
ENDMDL
