MODEL 1
REMARK VINA RESULT:      -3.8      0.000      0.000
REMARK  Name = 
REMARK                            x       y       z     vdW  Elec       q    Type
REMARK                         _______ _______ _______ _____ _____    ______ ____
ROOT
ATOM      1  O   LIG    1       18.998   0.821  22.977  0.00  0.00    -0.275 OA
ATOM      2  C   LIG    1       18.528   1.951  22.965  0.00  0.00    +0.228 C 
ATOM      3  C   LIG    1       19.343   3.217  22.900  0.00  0.00    +0.172 C 
ATOM      4  S   LIG    1       18.138   4.574  22.908  0.00  0.00    -0.093 S 
ATOM      5  C   LIG    1       16.771   3.498  22.991  0.00  0.00    +0.113 C 
ATOM      6  S   LIG    1       15.178   3.942  23.041  0.00  0.00    -0.028 S 
ATOM      7  N   LIG    1       17.188   2.206  23.010  0.00  0.00    -0.274 N 
ATOM      8  H   LIG    1       16.531   1.442  23.056  0.00  0.00    +0.156 HD
ENDROOT
TORSDOF 0
ENDMDL
MODEL 2
REMARK VINA RESULT:      -3.8      2.473      3.093
REMARK  Name = 
REMARK                            x       y       z     vdW  Elec       q    Type
REMARK                         _______ _______ _______ _____ _____    ______ ____
ROOT
ATOM      1  O   LIG    1       15.516   3.586  23.395  0.00  0.00    -0.275 OA
ATOM      2  C   LIG    1       16.657   3.355  23.016  0.00  0.00    +0.228 C 
ATOM      3  C   LIG    1       17.626   4.401  22.531  0.00  0.00    +0.172 C 
ATOM      4  S   LIG    1       19.145   3.501  22.109  0.00  0.00    -0.093 S 
ATOM      5  C   LIG    1       18.475   1.955  22.551  0.00  0.00    +0.113 C 
ATOM      6  S   LIG    1       19.247   0.494  22.466  0.00  0.00    -0.028 S 
ATOM      7  N   LIG    1       17.198   2.103  22.987  0.00  0.00    -0.274 N 
ATOM      8  H   LIG    1       16.650   1.310  23.287  0.00  0.00    +0.156 HD
ENDROOT
TORSDOF 0
ENDMDL
MODEL 3
REMARK VINA RESULT:      -3.7      3.351      3.706
REMARK  Name = 
REMARK                            x       y       z     vdW  Elec       q    Type
REMARK                         _______ _______ _______ _____ _____    ______ ____
ROOT
ATOM      1  O   LIG    1       18.515   5.105  21.950  0.00  0.00    -0.275 OA
ATOM      2  C   LIG    1       18.533   4.875  23.152  0.00  0.00    +0.228 C 
ATOM      3  C   LIG    1       18.667   3.502  23.758  0.00  0.00    +0.172 C 
ATOM      4  S   LIG    1       18.638   3.757  25.555  0.00  0.00    -0.093 S 
ATOM      5  C   LIG    1       18.464   5.484  25.412  0.00  0.00    +0.113 C 
ATOM      6  S   LIG    1       18.351   6.564  26.661  0.00  0.00    -0.028 S 
ATOM      7  N   LIG    1       18.432   5.847  24.104  0.00  0.00    -0.274 N 
ATOM      8  H   LIG    1       18.335   6.813  23.829  0.00  0.00    +0.156 HD
ENDROOT
TORSDOF 0
ENDMDL
MODEL 4
REMARK VINA RESULT:      -3.7     12.780     13.564
REMARK  Name = 
REMARK                            x       y       z     vdW  Elec       q    Type
REMARK                         _______ _______ _______ _____ _____    ______ ____
ROOT
ATOM      1  O   LIG    1        7.094   9.829  27.466  0.00  0.00    -0.275 OA
ATOM      2  C   LIG    1        6.556   8.743  27.637  0.00  0.00    +0.228 C 
ATOM      3  C   LIG    1        5.325   8.520  28.477  0.00  0.00    +0.172 C 
ATOM      4  S   LIG    1        4.977   6.742  28.369  0.00  0.00    -0.093 S 
ATOM      5  C   LIG    1        6.340   6.432  27.330  0.00  0.00    +0.113 C 
ATOM      6  S   LIG    1        6.788   4.962  26.716  0.00  0.00    -0.028 S 
ATOM      7  N   LIG    1        7.012   7.584  27.078  0.00  0.00    -0.274 N 
ATOM      8  H   LIG    1        7.833   7.596  26.492  0.00  0.00    +0.156 HD
ENDROOT
TORSDOF 0
ENDMDL
MODEL 5
REMARK VINA RESULT:      -3.6      2.988      3.431
REMARK  Name = 
REMARK                            x       y       z     vdW  Elec       q    Type
REMARK                         _______ _______ _______ _____ _____    ______ ____
ROOT
ATOM      1  O   LIG    1       14.832   3.939  22.793  0.00  0.00    -0.275 OA
ATOM      2  C   LIG    1       15.869   3.844  23.435  0.00  0.00    +0.228 C 
ATOM      3  C   LIG    1       17.088   3.082  22.986  0.00  0.00    +0.172 C 
ATOM      4  S   LIG    1       18.308   3.284  24.315  0.00  0.00    -0.093 S 
ATOM      5  C   LIG    1       17.241   4.259  25.287  0.00  0.00    +0.113 C 
ATOM      6  S   LIG    1       17.587   4.910  26.768  0.00  0.00    -0.028 S 
ATOM      7  N   LIG    1       16.050   4.425  24.657  0.00  0.00    -0.274 N 
ATOM      8  H   LIG    1       15.306   4.965  25.073  0.00  0.00    +0.156 HD
ENDROOT
TORSDOF 0
ENDMDL
MODEL 6
REMARK VINA RESULT:      -3.6      3.976      4.331
REMARK  Name = 
REMARK                            x       y       z     vdW  Elec       q    Type
REMARK                         _______ _______ _______ _____ _____    ______ ____
ROOT
ATOM      1  O   LIG    1       18.521   7.141  26.318  0.00  0.00    -0.275 OA
ATOM      2  C   LIG    1       18.521   6.093  25.687  0.00  0.00    +0.228 C 
ATOM      3  C   LIG    1       18.542   4.720  26.307  0.00  0.00    +0.172 C 
ATOM      4  S   LIG    1       18.528   3.555  24.915  0.00  0.00    -0.093 S 
ATOM      5  C   LIG    1       18.501   4.822  23.720  0.00  0.00    +0.113 C 
ATOM      6  S   LIG    1       18.477   4.618  22.078  0.00  0.00    -0.028 S 
ATOM      7  N   LIG    1       18.500   6.038  24.323  0.00  0.00    -0.274 N 
ATOM      8  H   LIG    1       18.485   6.891  23.785  0.00  0.00    +0.156 HD
ENDROOT
TORSDOF 0
ENDMDL
MODEL 7
REMARK VINA RESULT:      -3.6     13.536     13.988
REMARK  Name = 
REMARK                            x       y       z     vdW  Elec       q    Type
REMARK                         _______ _______ _______ _____ _____    ______ ____
ROOT
ATOM      1  O   LIG    1       10.313   1.686  37.276  0.00  0.00    -0.275 OA
ATOM      2  C   LIG    1       10.773   1.929  36.169  0.00  0.00    +0.228 C 
ATOM      3  C   LIG    1       11.967   2.813  35.913  0.00  0.00    +0.172 C 
ATOM      4  S   LIG    1       12.199   2.811  34.113  0.00  0.00    -0.093 S 
ATOM      5  C   LIG    1       10.842   1.754  33.835  0.00  0.00    +0.113 C 
ATOM      6  S   LIG    1       10.312   1.209  32.366  0.00  0.00    -0.028 S 
ATOM      7  N   LIG    1       10.254   1.423  35.013  0.00  0.00    -0.274 N 
ATOM      8  H   LIG    1        9.450   0.815  35.045  0.00  0.00    +0.156 HD
ENDROOT
TORSDOF 0
ENDMDL
MODEL 8
REMARK VINA RESULT:      -3.6      2.669      2.798
REMARK  Name = 
REMARK                            x       y       z     vdW  Elec       q    Type
REMARK                         _______ _______ _______ _____ _____    ______ ____
ROOT
ATOM      1  O   LIG    1       19.275   5.683  25.472  0.00  0.00    -0.275 OA
ATOM      2  C   LIG    1       18.786   5.055  24.543  0.00  0.00    +0.228 C 
ATOM      3  C   LIG    1       19.577   4.416  23.431  0.00  0.00    +0.172 C 
ATOM      4  S   LIG    1       18.350   3.629  22.349  0.00  0.00    -0.093 S 
ATOM      5  C   LIG    1       17.004   4.142  23.329  0.00  0.00    +0.113 C 
ATOM      6  S   LIG    1       15.406   3.828  23.037  0.00  0.00    -0.028 S 
ATOM      7  N   LIG    1       17.444   4.855  24.397  0.00  0.00    -0.274 N 
ATOM      8  H   LIG    1       16.801   5.234  25.076  0.00  0.00    +0.156 HD
ENDROOT
TORSDOF 0
ENDMDL
MODEL 9
REMARK VINA RESULT:      -3.5     12.453     12.816
REMARK  Name = 
REMARK                            x       y       z     vdW  Elec       q    Type
REMARK                         _______ _______ _______ _____ _____    ______ ____
ROOT
ATOM      1  O   LIG    1        7.395   5.689  25.503  0.00  0.00    -0.275 OA
ATOM      2  C   LIG    1        6.918   6.650  26.092  0.00  0.00    +0.228 C 
ATOM      3  C   LIG    1        6.318   6.597  27.473  0.00  0.00    +0.172 C 
ATOM      4  S   LIG    1        5.779   8.292  27.836  0.00  0.00    -0.093 S 
ATOM      5  C   LIG    1        6.319   8.905  26.297  0.00  0.00    +0.113 C 
ATOM      6  S   LIG    1        6.200  10.468  25.770  0.00  0.00    -0.028 S 
ATOM      7  N   LIG    1        6.869   7.906  25.560  0.00  0.00    -0.274 N 
ATOM      8  H   LIG    1        7.238   8.077  24.637  0.00  0.00    +0.156 HD
ENDROOT
TORSDOF 0
ENDMDL
