MODEL 1
REMARK VINA RESULT:      -4.0      0.000      0.000
REMARK  Name = 
REMARK                            x       y       z     vdW  Elec       q    Type
REMARK                         _______ _______ _______ _____ _____    ______ ____
ROOT
ATOM      1  O   LIG    1       26.469  -0.592  17.409  0.00  0.00    -0.275 OA
ATOM      2  C   LIG    1       26.238   0.610  17.385  0.00  0.00    +0.228 C 
ATOM      3  C   LIG    1       26.316   1.520  18.583  0.00  0.00    +0.172 C 
ATOM      4  S   LIG    1       25.880   3.172  17.969  0.00  0.00    -0.093 S 
ATOM      5  C   LIG    1       25.642   2.616  16.335  0.00  0.00    +0.113 C 
ATOM      6  S   LIG    1       25.197   3.545  15.040  0.00  0.00    -0.028 S 
ATOM      7  N   LIG    1       25.876   1.281  16.253  0.00  0.00    -0.274 N 
ATOM      8  H   LIG    1       25.786   0.785  15.379  0.00  0.00    +0.156 HD
ENDROOT
TORSDOF 0
ENDMDL
MODEL 2
REMARK VINA RESULT:      -3.9      2.460      3.084
REMARK  Name = 
REMARK                            x       y       z     vdW  Elec       q    Type
REMARK                         _______ _______ _______ _____ _____    ______ ____
ROOT
ATOM      1  O   LIG    1       25.187   3.177  15.357  0.00  0.00    -0.275 OA
ATOM      2  C   LIG    1       25.593   2.604  16.359  0.00  0.00    +0.228 C 
ATOM      3  C   LIG    1       25.818   3.268  17.693  0.00  0.00    +0.172 C 
ATOM      4  S   LIG    1       26.413   1.956  18.797  0.00  0.00    -0.093 S 
ATOM      5  C   LIG    1       26.339   0.735  17.556  0.00  0.00    +0.113 C 
ATOM      6  S   LIG    1       26.739  -0.861  17.729  0.00  0.00    -0.028 S 
ATOM      7  N   LIG    1       25.896   1.274  16.391  0.00  0.00    -0.274 N 
ATOM      8  H   LIG    1       25.790   0.712  15.560  0.00  0.00    +0.156 HD
ENDROOT
TORSDOF 0
ENDMDL
MODEL 3
REMARK VINA RESULT:      -3.9      3.760      4.759
REMARK  Name = 
REMARK                            x       y       z     vdW  Elec       q    Type
REMARK                         _______ _______ _______ _____ _____    ______ ____
ROOT
ATOM      1  O   LIG    1       26.198   4.001  12.090  0.00  0.00    -0.275 OA
ATOM      2  C   LIG    1       25.415   3.910  13.026  0.00  0.00    +0.228 C 
ATOM      3  C   LIG    1       23.921   4.072  12.911  0.00  0.00    +0.172 C 
ATOM      4  S   LIG    1       23.274   3.832  14.590  0.00  0.00    -0.093 S 
ATOM      5  C   LIG    1       24.854   3.564  15.273  0.00  0.00    +0.113 C 
ATOM      6  S   LIG    1       25.193   3.250  16.861  0.00  0.00    -0.028 S 
ATOM      7  N   LIG    1       25.805   3.646  14.307  0.00  0.00    -0.274 N 
ATOM      8  H   LIG    1       26.783   3.516  14.520  0.00  0.00    +0.156 HD
ENDROOT
TORSDOF 0
ENDMDL
MODEL 4
REMARK VINA RESULT:      -3.7      2.680      3.097
REMARK  Name = 
REMARK                            x       y       z     vdW  Elec       q    Type
REMARK                         _______ _______ _______ _____ _____    ______ ____
ROOT
ATOM      1  O   LIG    1       25.354   2.905  15.184  0.00  0.00    -0.275 OA
ATOM      2  C   LIG    1       25.677   2.710  16.348  0.00  0.00    +0.228 C 
ATOM      3  C   LIG    1       25.970   1.357  16.941  0.00  0.00    +0.172 C 
ATOM      4  S   LIG    1       26.394   1.666  18.679  0.00  0.00    -0.093 S 
ATOM      5  C   LIG    1       26.177   3.389  18.533  0.00  0.00    +0.113 C 
ATOM      6  S   LIG    1       26.376   4.505  19.737  0.00  0.00    -0.028 S 
ATOM      7  N   LIG    1       25.813   3.712  17.266  0.00  0.00    -0.274 N 
ATOM      8  H   LIG    1       25.643   4.669  16.996  0.00  0.00    +0.156 HD
ENDROOT
TORSDOF 0
ENDMDL
MODEL 5
REMARK VINA RESULT:      -3.6      3.405      3.812
REMARK  Name = 
REMARK                            x       y       z     vdW  Elec       q    Type
REMARK                         _______ _______ _______ _____ _____    ______ ____
ROOT
ATOM      1  O   LIG    1       25.040   3.301  17.175  0.00  0.00    -0.275 OA
ATOM      2  C   LIG    1       24.795   3.550  16.002  0.00  0.00    +0.228 C 
ATOM      3  C   LIG    1       23.409   3.645  15.418  0.00  0.00    +0.172 C 
ATOM      4  S   LIG    1       23.646   4.036  13.662  0.00  0.00    -0.093 S 
ATOM      5  C   LIG    1       25.383   4.046  13.791  0.00  0.00    +0.113 C 
ATOM      6  S   LIG    1       26.454   4.338  12.564  0.00  0.00    -0.028 S 
ATOM      7  N   LIG    1       25.762   3.776  15.066  0.00  0.00    -0.274 N 
ATOM      8  H   LIG    1       26.736   3.741  15.329  0.00  0.00    +0.156 HD
ENDROOT
TORSDOF 0
ENDMDL
MODEL 6
REMARK VINA RESULT:      -3.5      3.427      4.545
REMARK  Name = 
REMARK                            x       y       z     vdW  Elec       q    Type
REMARK                         _______ _______ _______ _____ _____    ______ ____
ROOT
ATOM      1  O   LIG    1       27.021  -1.296  17.566  0.00  0.00    -0.275 OA
ATOM      2  C   LIG    1       27.012  -0.612  18.580  0.00  0.00    +0.228 C 
ATOM      3  C   LIG    1       26.329   0.726  18.704  0.00  0.00    +0.172 C 
ATOM      4  S   LIG    1       26.637   1.275  20.407  0.00  0.00    -0.093 S 
ATOM      5  C   LIG    1       27.558  -0.148  20.810  0.00  0.00    +0.113 C 
ATOM      6  S   LIG    1       28.260  -0.478  22.271  0.00  0.00    -0.028 S 
ATOM      7  N   LIG    1       27.628  -0.981  19.740  0.00  0.00    -0.274 N 
ATOM      8  H   LIG    1       28.124  -1.859  19.790  0.00  0.00    +0.156 HD
ENDROOT
TORSDOF 0
ENDMDL
MODEL 7
REMARK VINA RESULT:      -3.4      2.870      3.278
REMARK  Name = 
REMARK                            x       y       z     vdW  Elec       q    Type
REMARK                         _______ _______ _______ _____ _____    ______ ____
ROOT
ATOM      1  O   LIG    1       27.135  -0.372  21.368  0.00  0.00    -0.275 OA
ATOM      2  C   LIG    1       26.941  -0.233  20.168  0.00  0.00    +0.228 C 
ATOM      3  C   LIG    1       27.186  -1.299  19.131  0.00  0.00    +0.172 C 
ATOM      4  S   LIG    1       26.729  -0.548  17.543  0.00  0.00    -0.093 S 
ATOM      5  C   LIG    1       26.290   0.973  18.269  0.00  0.00    +0.113 C 
ATOM      6  S   LIG    1       25.728   2.311  17.474  0.00  0.00    -0.028 S 
ATOM      7  N   LIG    1       26.472   0.923  19.614  0.00  0.00    -0.274 N 
ATOM      8  H   LIG    1       26.267   1.717  20.201  0.00  0.00    +0.156 HD
ENDROOT
TORSDOF 0
ENDMDL
MODEL 8
REMARK VINA RESULT:      -3.4      1.741      2.567
REMARK  Name = 
REMARK                            x       y       z     vdW  Elec       q    Type
REMARK                         _______ _______ _______ _____ _____    ______ ____
ROOT
ATOM      1  O   LIG    1       26.793  -0.255  18.671  0.00  0.00    -0.275 OA
ATOM      2  C   LIG    1       26.483   0.886  18.356  0.00  0.00    +0.228 C 
ATOM      3  C   LIG    1       25.897   1.279  17.025  0.00  0.00    +0.172 C 
ATOM      4  S   LIG    1       25.636   3.073  17.116  0.00  0.00    -0.093 S 
ATOM      5  C   LIG    1       26.256   3.185  18.740  0.00  0.00    +0.113 C 
ATOM      6  S   LIG    1       26.385   4.564  19.645  0.00  0.00    -0.028 S 
ATOM      7  N   LIG    1       26.633   1.960  19.186  0.00  0.00    -0.274 N 
ATOM      8  H   LIG    1       27.017   1.832  20.111  0.00  0.00    +0.156 HD
ENDROOT
TORSDOF 0
ENDMDL
MODEL 9
REMARK VINA RESULT:      -3.4      3.083      3.950
REMARK  Name = 
REMARK                            x       y       z     vdW  Elec       q    Type
REMARK                         _______ _______ _______ _____ _____    ______ ____
ROOT
ATOM      1  O   LIG    1       25.696   3.430  17.764  0.00  0.00    -0.275 OA
ATOM      2  C   LIG    1       26.005   2.260  17.944  0.00  0.00    +0.228 C 
ATOM      3  C   LIG    1       26.060   1.213  16.862  0.00  0.00    +0.172 C 
ATOM      4  S   LIG    1       26.573  -0.319  17.691  0.00  0.00    -0.093 S 
ATOM      5  C   LIG    1       26.670   0.438  19.256  0.00  0.00    +0.113 C 
ATOM      6  S   LIG    1       27.096  -0.299  20.675  0.00  0.00    -0.028 S 
ATOM      7  N   LIG    1       26.342   1.752  19.165  0.00  0.00    -0.274 N 
ATOM      8  H   LIG    1       26.344   2.351  19.977  0.00  0.00    +0.156 HD
ENDROOT
TORSDOF 0
ENDMDL
