MODEL 1
REMARK VINA RESULT:      -4.0      0.000      0.000
REMARK  Name = 
REMARK                            x       y       z     vdW  Elec       q    Type
REMARK                         _______ _______ _______ _____ _____    ______ ____
ROOT
ATOM      1  O   LIG    1       10.476  20.871  23.821  0.00  0.00    -0.275 OA
ATOM      2  C   LIG    1        9.602  21.231  24.598  0.00  0.00    +0.228 C 
ATOM      3  C   LIG    1        9.375  22.656  25.032  0.00  0.00    +0.172 C 
ATOM      4  S   LIG    1        7.963  22.600  26.172  0.00  0.00    -0.093 S 
ATOM      5  C   LIG    1        7.778  20.874  26.023  0.00  0.00    +0.113 C 
ATOM      6  S   LIG    1        6.644  19.942  26.787  0.00  0.00    -0.028 S 
ATOM      7  N   LIG    1        8.712  20.372  25.175  0.00  0.00    -0.274 N 
ATOM      8  H   LIG    1        8.756  19.385  24.968  0.00  0.00    +0.156 HD
ENDROOT
TORSDOF 0
ENDMDL
MODEL 2
REMARK VINA RESULT:      -4.0      1.483      2.543
REMARK  Name = 
REMARK                            x       y       z     vdW  Elec       q    Type
REMARK                         _______ _______ _______ _____ _____    ______ ____
ROOT
ATOM      1  O   LIG    1       10.362  21.036  23.967  0.00  0.00    -0.275 OA
ATOM      2  C   LIG    1        9.505  21.508  24.702  0.00  0.00    +0.228 C 
ATOM      3  C   LIG    1        8.472  20.699  25.442  0.00  0.00    +0.172 C 
ATOM      4  S   LIG    1        7.479  21.906  26.366  0.00  0.00    -0.093 S 
ATOM      5  C   LIG    1        8.393  23.266  25.776  0.00  0.00    +0.113 C 
ATOM      6  S   LIG    1        8.132  24.856  26.151  0.00  0.00    -0.028 S 
ATOM      7  N   LIG    1        9.379  22.845  24.943  0.00  0.00    -0.274 N 
ATOM      8  H   LIG    1       10.011  23.499  24.506  0.00  0.00    +0.156 HD
ENDROOT
TORSDOF 0
ENDMDL
MODEL 3
REMARK VINA RESULT:      -3.9      3.414      4.354
REMARK  Name = 
REMARK                            x       y       z     vdW  Elec       q    Type
REMARK                         _______ _______ _______ _____ _____    ______ ____
ROOT
ATOM      1  O   LIG    1        7.909  20.276  30.210  0.00  0.00    -0.275 OA
ATOM      2  C   LIG    1        7.479  20.219  29.066  0.00  0.00    +0.228 C 
ATOM      3  C   LIG    1        6.111  19.713  28.689  0.00  0.00    +0.172 C 
ATOM      4  S   LIG    1        6.017  19.860  26.882  0.00  0.00    -0.093 S 
ATOM      5  C   LIG    1        7.627  20.511  26.748  0.00  0.00    +0.113 C 
ATOM      6  S   LIG    1        8.388  20.954  25.347  0.00  0.00    -0.028 S 
ATOM      7  N   LIG    1        8.197  20.614  27.975  0.00  0.00    -0.274 N 
ATOM      8  H   LIG    1        9.133  20.974  28.090  0.00  0.00    +0.156 HD
ENDROOT
TORSDOF 0
ENDMDL
MODEL 4
REMARK VINA RESULT:      -3.9      2.750      3.253
REMARK  Name = 
REMARK                            x       y       z     vdW  Elec       q    Type
REMARK                         _______ _______ _______ _____ _____    ______ ____
ROOT
ATOM      1  O   LIG    1        6.664  19.854  26.536  0.00  0.00    -0.275 OA
ATOM      2  C   LIG    1        7.414  20.725  26.116  0.00  0.00    +0.228 C 
ATOM      3  C   LIG    1        8.626  20.471  25.259  0.00  0.00    +0.172 C 
ATOM      4  S   LIG    1        9.347  22.105  24.936  0.00  0.00    -0.093 S 
ATOM      5  C   LIG    1        8.131  22.940  25.862  0.00  0.00    +0.113 C 
ATOM      6  S   LIG    1        8.035  24.574  26.103  0.00  0.00    -0.028 S 
ATOM      7  N   LIG    1        7.241  22.054  26.377  0.00  0.00    -0.274 N 
ATOM      8  H   LIG    1        6.464  22.359  26.944  0.00  0.00    +0.156 HD
ENDROOT
TORSDOF 0
ENDMDL
MODEL 5
REMARK VINA RESULT:      -3.8      2.444      3.166
REMARK  Name = 
REMARK                            x       y       z     vdW  Elec       q    Type
REMARK                         _______ _______ _______ _____ _____    ______ ____
ROOT
ATOM      1  O   LIG    1        6.606  19.521  26.895  0.00  0.00    -0.275 OA
ATOM      2  C   LIG    1        7.262  20.460  26.464  0.00  0.00    +0.228 C 
ATOM      3  C   LIG    1        7.021  21.905  26.815  0.00  0.00    +0.172 C 
ATOM      4  S   LIG    1        8.277  22.845  25.902  0.00  0.00    -0.093 S 
ATOM      5  C   LIG    1        8.972  21.418  25.183  0.00  0.00    +0.113 C 
ATOM      6  S   LIG    1       10.254  21.374  24.139  0.00  0.00    -0.028 S 
ATOM      7  N   LIG    1        8.308  20.310  25.600  0.00  0.00    -0.274 N 
ATOM      8  H   LIG    1        8.573  19.389  25.285  0.00  0.00    +0.156 HD
ENDROOT
TORSDOF 0
ENDMDL
MODEL 6
REMARK VINA RESULT:      -3.8      2.873      3.426
REMARK  Name = 
REMARK                            x       y       z     vdW  Elec       q    Type
REMARK                         _______ _______ _______ _____ _____    ______ ____
ROOT
ATOM      1  O   LIG    1        7.949  24.723  26.284  0.00  0.00    -0.275 OA
ATOM      2  C   LIG    1        8.153  23.545  26.023  0.00  0.00    +0.228 C 
ATOM      3  C   LIG    1        7.324  22.398  26.540  0.00  0.00    +0.172 C 
ATOM      4  S   LIG    1        8.071  20.900  25.838  0.00  0.00    -0.093 S 
ATOM      5  C   LIG    1        9.309  21.788  24.994  0.00  0.00    +0.113 C 
ATOM      6  S   LIG    1       10.499  21.144  24.042  0.00  0.00    -0.028 S 
ATOM      7  N   LIG    1        9.171  23.120  25.221  0.00  0.00    -0.274 N 
ATOM      8  H   LIG    1        9.803  23.791  24.810  0.00  0.00    +0.156 HD
ENDROOT
TORSDOF 0
ENDMDL
MODEL 7
REMARK VINA RESULT:      -3.7      4.284      5.204
REMARK  Name = 
REMARK                            x       y       z     vdW  Elec       q    Type
REMARK                         _______ _______ _______ _____ _____    ______ ____
ROOT
ATOM      1  O   LIG    1        3.095  19.360  25.989  0.00  0.00    -0.275 OA
ATOM      2  C   LIG    1        3.925  19.788  26.779  0.00  0.00    +0.228 C 
ATOM      3  C   LIG    1        3.647  20.097  28.228  0.00  0.00    +0.172 C 
ATOM      4  S   LIG    1        5.222  20.689  28.910  0.00  0.00    -0.093 S 
ATOM      5  C   LIG    1        6.064  20.514  27.396  0.00  0.00    +0.113 C 
ATOM      6  S   LIG    1        7.657  20.860  27.117  0.00  0.00    -0.028 S 
ATOM      7  N   LIG    1        5.222  20.041  26.441  0.00  0.00    -0.274 N 
ATOM      8  H   LIG    1        5.539  19.876  25.497  0.00  0.00    +0.156 HD
ENDROOT
TORSDOF 0
ENDMDL
MODEL 8
REMARK VINA RESULT:      -3.6      3.213      3.670
REMARK  Name = 
REMARK                            x       y       z     vdW  Elec       q    Type
REMARK                         _______ _______ _______ _____ _____    ______ ____
ROOT
ATOM      1  O   LIG    1        8.238  21.355  26.557  0.00  0.00    -0.275 OA
ATOM      2  C   LIG    1        7.295  20.768  27.071  0.00  0.00    +0.228 C 
ATOM      3  C   LIG    1        7.268  20.275  28.494  0.00  0.00    +0.172 C 
ATOM      4  S   LIG    1        5.643  19.494  28.708  0.00  0.00    -0.093 S 
ATOM      5  C   LIG    1        5.150  19.830  27.071  0.00  0.00    +0.113 C 
ATOM      6  S   LIG    1        3.700  19.427  26.384  0.00  0.00    -0.028 S 
ATOM      7  N   LIG    1        6.137  20.485  26.408  0.00  0.00    -0.274 N 
ATOM      8  H   LIG    1        6.027  20.762  25.444  0.00  0.00    +0.156 HD
ENDROOT
TORSDOF 0
ENDMDL
MODEL 9
REMARK VINA RESULT:      -3.4      3.954      4.585
REMARK  Name = 
REMARK                            x       y       z     vdW  Elec       q    Type
REMARK                         _______ _______ _______ _____ _____    ______ ____
ROOT
ATOM      1  O   LIG    1        8.587  20.304  29.720  0.00  0.00    -0.275 OA
ATOM      2  C   LIG    1        7.546  20.299  29.076  0.00  0.00    +0.228 C 
ATOM      3  C   LIG    1        7.471  20.341  27.571  0.00  0.00    +0.172 C 
ATOM      4  S   LIG    1        5.700  20.309  27.171  0.00  0.00    -0.093 S 
ATOM      5  C   LIG    1        5.217  20.250  28.844  0.00  0.00    +0.113 C 
ATOM      6  S   LIG    1        3.664  20.197  29.412  0.00  0.00    -0.028 S 
ATOM      7  N   LIG    1        6.309  20.253  29.650  0.00  0.00    -0.274 N 
ATOM      8  H   LIG    1        6.220  20.222  30.655  0.00  0.00    +0.156 HD
ENDROOT
TORSDOF 0
ENDMDL
