MODEL 1
REMARK VINA RESULT:      -3.9      0.000      0.000
REMARK  Name = 
REMARK                            x       y       z     vdW  Elec       q    Type
REMARK                         _______ _______ _______ _____ _____    ______ ____
ROOT
ATOM      1  O   LIG    1       18.124 -18.412  18.918  0.00  0.00    -0.275 OA
ATOM      2  C   LIG    1       19.160 -17.760  18.911  0.00  0.00    +0.228 C 
ATOM      3  C   LIG    1       19.251 -16.294  19.244  0.00  0.00    +0.172 C 
ATOM      4  S   LIG    1       21.007 -15.864  19.077  0.00  0.00    -0.093 S 
ATOM      5  C   LIG    1       21.467 -17.482  18.622  0.00  0.00    +0.113 C 
ATOM      6  S   LIG    1       22.997 -18.000  18.263  0.00  0.00    -0.028 S 
ATOM      7  N   LIG    1       20.377 -18.291  18.598  0.00  0.00    -0.274 N 
ATOM      8  H   LIG    1       20.454 -19.268  18.354  0.00  0.00    +0.156 HD
ENDROOT
TORSDOF 0
ENDMDL
MODEL 2
REMARK VINA RESULT:      -3.9      2.500      3.094
REMARK  Name = 
REMARK                            x       y       z     vdW  Elec       q    Type
REMARK                         _______ _______ _______ _____ _____    ______ ____
ROOT
ATOM      1  O   LIG    1       22.266 -18.064  18.589  0.00  0.00    -0.275 OA
ATOM      2  C   LIG    1       21.167 -17.534  18.674  0.00  0.00    +0.228 C 
ATOM      3  C   LIG    1       20.934 -16.109  19.102  0.00  0.00    +0.172 C 
ATOM      4  S   LIG    1       19.136 -15.868  19.041  0.00  0.00    -0.093 S 
ATOM      5  C   LIG    1       18.831 -17.499  18.511  0.00  0.00    +0.113 C 
ATOM      6  S   LIG    1       17.350 -18.163  18.193  0.00  0.00    -0.028 S 
ATOM      7  N   LIG    1       19.999 -18.179  18.385  0.00  0.00    -0.274 N 
ATOM      8  H   LIG    1       20.016 -19.143  18.086  0.00  0.00    +0.156 HD
ENDROOT
TORSDOF 0
ENDMDL
MODEL 3
REMARK VINA RESULT:      -3.7      2.627      3.501
REMARK  Name = 
REMARK                            x       y       z     vdW  Elec       q    Type
REMARK                         _______ _______ _______ _____ _____    ______ ____
ROOT
ATOM      1  O   LIG    1       23.456 -19.798  18.138  0.00  0.00    -0.275 OA
ATOM      2  C   LIG    1       22.945 -18.700  18.313  0.00  0.00    +0.228 C 
ATOM      3  C   LIG    1       23.714 -17.423  18.534  0.00  0.00    +0.172 C 
ATOM      4  S   LIG    1       22.460 -16.126  18.730  0.00  0.00    -0.093 S 
ATOM      5  C   LIG    1       21.132 -17.235  18.531  0.00  0.00    +0.113 C 
ATOM      6  S   LIG    1       19.523 -16.852  18.574  0.00  0.00    -0.028 S 
ATOM      7  N   LIG    1       21.596 -18.495  18.330  0.00  0.00    -0.274 N 
ATOM      8  H   LIG    1       20.966 -19.271  18.194  0.00  0.00    +0.156 HD
ENDROOT
TORSDOF 0
ENDMDL
MODEL 4
REMARK VINA RESULT:      -3.7      1.646      1.851
REMARK  Name = 
REMARK                            x       y       z     vdW  Elec       q    Type
REMARK                         _______ _______ _______ _____ _____    ______ ____
ROOT
ATOM      1  O   LIG    1       19.471 -17.322  18.669  0.00  0.00    -0.275 OA
ATOM      2  C   LIG    1       20.694 -17.314  18.629  0.00  0.00    +0.228 C 
ATOM      3  C   LIG    1       21.552 -16.104  18.891  0.00  0.00    +0.172 C 
ATOM      4  S   LIG    1       23.267 -16.670  18.699  0.00  0.00    -0.093 S 
ATOM      5  C   LIG    1       22.794 -18.303  18.320  0.00  0.00    +0.113 C 
ATOM      6  S   LIG    1       23.813 -19.562  17.982  0.00  0.00    -0.028 S 
ATOM      7  N   LIG    1       21.442 -18.418  18.337  0.00  0.00    -0.274 N 
ATOM      8  H   LIG    1       20.987 -19.297  18.140  0.00  0.00    +0.156 HD
ENDROOT
TORSDOF 0
ENDMDL
MODEL 5
REMARK VINA RESULT:      -3.6      5.754      6.515
REMARK  Name = 
REMARK                            x       y       z     vdW  Elec       q    Type
REMARK                         _______ _______ _______ _____ _____    ______ ____
ROOT
ATOM      1  O   LIG    1       26.328 -12.426  18.903  0.00  0.00    -0.275 OA
ATOM      2  C   LIG    1       25.675 -13.407  18.573  0.00  0.00    +0.228 C 
ATOM      3  C   LIG    1       26.250 -14.638  17.923  0.00  0.00    +0.172 C 
ATOM      4  S   LIG    1       24.842 -15.755  17.664  0.00  0.00    -0.093 S 
ATOM      5  C   LIG    1       23.697 -14.640  18.357  0.00  0.00    +0.113 C 
ATOM      6  S   LIG    1       22.069 -14.886  18.522  0.00  0.00    -0.028 S 
ATOM      7  N   LIG    1       24.327 -13.506  18.758  0.00  0.00    -0.274 N 
ATOM      8  H   LIG    1       23.819 -12.746  19.184  0.00  0.00    +0.156 HD
ENDROOT
TORSDOF 0
ENDMDL
MODEL 6
REMARK VINA RESULT:      -3.6     14.450     14.849
REMARK  Name = 
REMARK                            x       y       z     vdW  Elec       q    Type
REMARK                         _______ _______ _______ _____ _____    ______ ____
ROOT
ATOM      1  O   LIG    1       30.132 -21.595  25.910  0.00  0.00    -0.275 OA
ATOM      2  C   LIG    1       30.521 -22.640  26.413  0.00  0.00    +0.228 C 
ATOM      3  C   LIG    1       29.992 -23.222  27.698  0.00  0.00    +0.172 C 
ATOM      4  S   LIG    1       30.919 -24.761  27.956  0.00  0.00    -0.093 S 
ATOM      5  C   LIG    1       31.856 -24.562  26.501  0.00  0.00    +0.113 C 
ATOM      6  S   LIG    1       33.023 -25.592  25.941  0.00  0.00    -0.028 S 
ATOM      7  N   LIG    1       31.498 -23.419  25.863  0.00  0.00    -0.274 N 
ATOM      8  H   LIG    1       31.937 -23.140  24.998  0.00  0.00    +0.156 HD
ENDROOT
TORSDOF 0
ENDMDL
MODEL 7
REMARK VINA RESULT:      -3.5      3.230      3.956
REMARK  Name = 
REMARK                            x       y       z     vdW  Elec       q    Type
REMARK                         _______ _______ _______ _____ _____    ______ ____
ROOT
ATOM      1  O   LIG    1       20.235 -17.958  18.927  0.00  0.00    -0.275 OA
ATOM      2  C   LIG    1       19.138 -17.420  18.988  0.00  0.00    +0.228 C 
ATOM      3  C   LIG    1       18.870 -15.980  18.631  0.00  0.00    +0.172 C 
ATOM      4  S   LIG    1       17.093 -15.733  18.904  0.00  0.00    -0.093 S 
ATOM      5  C   LIG    1       16.838 -17.376  19.423  0.00  0.00    +0.113 C 
ATOM      6  S   LIG    1       15.398 -18.042  19.892  0.00  0.00    -0.028 S 
ATOM      7  N   LIG    1       18.006 -18.066  19.392  0.00  0.00    -0.274 N 
ATOM      8  H   LIG    1       18.050 -19.038  19.661  0.00  0.00    +0.156 HD
ENDROOT
TORSDOF 0
ENDMDL
MODEL 8
REMARK VINA RESULT:      -3.5      4.978      5.521
REMARK  Name = 
REMARK                            x       y       z     vdW  Elec       q    Type
REMARK                         _______ _______ _______ _____ _____    ______ ____
ROOT
ATOM      1  O   LIG    1       22.071 -14.553  18.668  0.00  0.00    -0.275 OA
ATOM      2  C   LIG    1       23.270 -14.626  18.433  0.00  0.00    +0.228 C 
ATOM      3  C   LIG    1       23.947 -15.813  17.797  0.00  0.00    +0.172 C 
ATOM      4  S   LIG    1       25.704 -15.372  17.690  0.00  0.00    -0.093 S 
ATOM      5  C   LIG    1       25.464 -13.809  18.419  0.00  0.00    +0.113 C 
ATOM      6  S   LIG    1       26.634 -12.678  18.717  0.00  0.00    -0.028 S 
ATOM      7  N   LIG    1       24.153 -13.627  18.722  0.00  0.00    -0.274 N 
ATOM      8  H   LIG    1       23.827 -12.775  19.153  0.00  0.00    +0.156 HD
ENDROOT
TORSDOF 0
ENDMDL
MODEL 9
REMARK VINA RESULT:      -3.5     14.376     14.788
REMARK  Name = 
REMARK                            x       y       z     vdW  Elec       q    Type
REMARK                         _______ _______ _______ _____ _____    ______ ____
ROOT
ATOM      1  O   LIG    1       28.710 -21.790  27.005  0.00  0.00    -0.275 OA
ATOM      2  C   LIG    1       29.505 -22.577  27.500  0.00  0.00    +0.228 C 
ATOM      3  C   LIG    1       30.665 -22.184  28.379  0.00  0.00    +0.172 C 
ATOM      4  S   LIG    1       31.490 -23.739  28.821  0.00  0.00    -0.093 S 
ATOM      5  C   LIG    1       30.370 -24.714  27.910  0.00  0.00    +0.113 C 
ATOM      6  S   LIG    1       30.401 -26.362  27.765  0.00  0.00    -0.028 S 
ATOM      7  N   LIG    1       29.438 -23.927  27.315  0.00  0.00    -0.274 N 
ATOM      8  H   LIG    1       28.705 -24.322  26.744  0.00  0.00    +0.156 HD
ENDROOT
TORSDOF 0
ENDMDL
