MODEL 1
REMARK VINA RESULT:      -4.1      0.000      0.000
REMARK  Name = 
REMARK                            x       y       z     vdW  Elec       q    Type
REMARK                         _______ _______ _______ _____ _____    ______ ____
ROOT
ATOM      1  O   LIG    1        3.334  20.885   6.572  0.00  0.00    -0.275 OA
ATOM      2  C   LIG    1        3.042  21.173   7.725  0.00  0.00    +0.228 C 
ATOM      3  C   LIG    1        1.844  20.635   8.464  0.00  0.00    +0.172 C 
ATOM      4  S   LIG    1        1.911  21.389  10.114  0.00  0.00    -0.093 S 
ATOM      5  C   LIG    1        3.366  22.280   9.762  0.00  0.00    +0.113 C 
ATOM      6  S   LIG    1        4.165  23.296  10.795  0.00  0.00    -0.028 S 
ATOM      7  N   LIG    1        3.777  22.028   8.493  0.00  0.00    -0.274 N 
ATOM      8  H   LIG    1        4.607  22.460   8.115  0.00  0.00    +0.156 HD
ENDROOT
TORSDOF 0
ENDMDL
MODEL 2
REMARK VINA RESULT:      -4.0      7.395      7.813
REMARK  Name = 
REMARK                            x       y       z     vdW  Elec       q    Type
REMARK                         _______ _______ _______ _____ _____    ______ ____
ROOT
ATOM      1  O   LIG    1        3.861  26.164   5.203  0.00  0.00    -0.275 OA
ATOM      2  C   LIG    1        3.575  27.336   5.409  0.00  0.00    +0.228 C 
ATOM      3  C   LIG    1        4.557  28.478   5.360  0.00  0.00    +0.172 C 
ATOM      4  S   LIG    1        3.590  29.968   5.736  0.00  0.00    -0.093 S 
ATOM      5  C   LIG    1        2.101  29.082   5.919  0.00  0.00    +0.113 C 
ATOM      6  S   LIG    1        0.622  29.722   6.291  0.00  0.00    -0.028 S 
ATOM      7  N   LIG    1        2.313  27.758   5.710  0.00  0.00    -0.274 N 
ATOM      8  H   LIG    1        1.560  27.089   5.774  0.00  0.00    +0.156 HD
ENDROOT
TORSDOF 0
ENDMDL
MODEL 3
REMARK VINA RESULT:      -4.0      3.702      4.488
REMARK  Name = 
REMARK                            x       y       z     vdW  Elec       q    Type
REMARK                         _______ _______ _______ _____ _____    ______ ____
ROOT
ATOM      1  O   LIG    1        5.394  21.851  13.609  0.00  0.00    -0.275 OA
ATOM      2  C   LIG    1        4.991  22.042  12.469  0.00  0.00    +0.228 C 
ATOM      3  C   LIG    1        4.406  23.340  11.975  0.00  0.00    +0.172 C 
ATOM      4  S   LIG    1        3.988  23.055  10.232  0.00  0.00    -0.093 S 
ATOM      5  C   LIG    1        4.551  21.406  10.259  0.00  0.00    +0.113 C 
ATOM      6  S   LIG    1        4.532  20.345   8.990  0.00  0.00    -0.028 S 
ATOM      7  N   LIG    1        5.022  21.090  11.492  0.00  0.00    -0.274 N 
ATOM      8  H   LIG    1        5.391  20.173  11.694  0.00  0.00    +0.156 HD
ENDROOT
TORSDOF 0
ENDMDL
MODEL 4
REMARK VINA RESULT:      -3.8      7.645      7.862
REMARK  Name = 
REMARK                            x       y       z     vdW  Elec       q    Type
REMARK                         _______ _______ _______ _____ _____    ______ ____
ROOT
ATOM      1  O   LIG    1        3.915  26.137   5.236  0.00  0.00    -0.275 OA
ATOM      2  C   LIG    1        3.399  27.246   5.273  0.00  0.00    +0.228 C 
ATOM      3  C   LIG    1        1.925  27.500   5.456  0.00  0.00    +0.172 C 
ATOM      4  S   LIG    1        1.735  29.305   5.435  0.00  0.00    -0.093 S 
ATOM      5  C   LIG    1        3.439  29.587   5.207  0.00  0.00    +0.113 C 
ATOM      6  S   LIG    1        4.177  31.061   5.072  0.00  0.00    -0.028 S 
ATOM      7  N   LIG    1        4.108  28.407   5.151  0.00  0.00    -0.274 N 
ATOM      8  H   LIG    1        5.108  28.376   5.022  0.00  0.00    +0.156 HD
ENDROOT
TORSDOF 0
ENDMDL
MODEL 5
REMARK VINA RESULT:      -3.8      7.997      8.238
REMARK  Name = 
REMARK                            x       y       z     vdW  Elec       q    Type
REMARK                         _______ _______ _______ _____ _____    ______ ____
ROOT
ATOM      1  O   LIG    1        0.348  27.082   5.817  0.00  0.00    -0.275 OA
ATOM      2  C   LIG    1        1.108  27.960   5.430  0.00  0.00    +0.228 C 
ATOM      3  C   LIG    1        0.677  29.199   4.689  0.00  0.00    +0.172 C 
ATOM      4  S   LIG    1        2.201  30.134   4.374  0.00  0.00    -0.093 S 
ATOM      5  C   LIG    1        3.212  28.950   5.157  0.00  0.00    +0.113 C 
ATOM      6  S   LIG    1        4.856  29.027   5.327  0.00  0.00    -0.028 S 
ATOM      7  N   LIG    1        2.458  27.923   5.625  0.00  0.00    -0.274 N 
ATOM      8  H   LIG    1        2.876  27.143   6.110  0.00  0.00    +0.156 HD
ENDROOT
TORSDOF 0
ENDMDL
MODEL 6
REMARK VINA RESULT:      -3.8      9.516      9.755
REMARK  Name = 
REMARK                            x       y       z     vdW  Elec       q    Type
REMARK                         _______ _______ _______ _____ _____    ______ ____
ROOT
ATOM      1  O   LIG    1        0.450  27.523   5.450  0.00  0.00    -0.275 OA
ATOM      2  C   LIG    1        0.774  28.639   5.066  0.00  0.00    +0.228 C 
ATOM      3  C   LIG    1        2.116  28.985   4.474  0.00  0.00    +0.172 C 
ATOM      4  S   LIG    1        2.037  30.756   4.086  0.00  0.00    -0.093 S 
ATOM      5  C   LIG    1        0.404  30.917   4.671  0.00  0.00    +0.113 C 
ATOM      6  S   LIG    1       -0.496  32.305   4.688  0.00  0.00    -0.028 S 
ATOM      7  N   LIG    1       -0.053  29.723   5.126  0.00  0.00    -0.274 N 
ATOM      8  H   LIG    1       -0.984  29.626   5.504  0.00  0.00    +0.156 HD
ENDROOT
TORSDOF 0
ENDMDL
MODEL 7
REMARK VINA RESULT:      -3.7      7.885      8.112
REMARK  Name = 
REMARK                            x       y       z     vdW  Elec       q    Type
REMARK                         _______ _______ _______ _____ _____    ______ ____
ROOT
ATOM      1  O   LIG    1        5.446  28.982   5.322  0.00  0.00    -0.275 OA
ATOM      2  C   LIG    1        4.254  28.754   5.482  0.00  0.00    +0.228 C 
ATOM      3  C   LIG    1        3.573  27.461   5.116  0.00  0.00    +0.172 C 
ATOM      4  S   LIG    1        1.830  27.682   5.572  0.00  0.00    -0.093 S 
ATOM      5  C   LIG    1        2.080  29.303   6.157  0.00  0.00    +0.113 C 
ATOM      6  S   LIG    1        0.926  30.302   6.794  0.00  0.00    -0.028 S 
ATOM      7  N   LIG    1        3.384  29.657   6.021  0.00  0.00    -0.274 N 
ATOM      8  H   LIG    1        3.714  30.566   6.309  0.00  0.00    +0.156 HD
ENDROOT
TORSDOF 0
ENDMDL
MODEL 8
REMARK VINA RESULT:      -3.7     10.008     10.325
REMARK  Name = 
REMARK                            x       y       z     vdW  Elec       q    Type
REMARK                         _______ _______ _______ _____ _____    ______ ____
ROOT
ATOM      1  O   LIG    1       -0.989  32.395   4.538  0.00  0.00    -0.275 OA
ATOM      2  C   LIG    1       -0.283  31.624   5.174  0.00  0.00    +0.228 C 
ATOM      3  C   LIG    1        0.532  32.008   6.381  0.00  0.00    +0.172 C 
ATOM      4  S   LIG    1        1.365  30.484   6.912  0.00  0.00    -0.093 S 
ATOM      5  C   LIG    1        0.660  29.531   5.635  0.00  0.00    +0.113 C 
ATOM      6  S   LIG    1        0.910  27.918   5.367  0.00  0.00    -0.028 S 
ATOM      7  N   LIG    1       -0.148  30.302   4.863  0.00  0.00    -0.274 N 
ATOM      8  H   LIG    1       -0.643  29.916   4.073  0.00  0.00    +0.156 HD
ENDROOT
TORSDOF 0
ENDMDL
MODEL 9
REMARK VINA RESULT:      -3.6      8.416      8.782
REMARK  Name = 
REMARK                            x       y       z     vdW  Elec       q    Type
REMARK                         _______ _______ _______ _____ _____    ______ ____
ROOT
ATOM      1  O   LIG    1        4.220  31.364   5.411  0.00  0.00    -0.275 OA
ATOM      2  C   LIG    1        3.914  30.179   5.386  0.00  0.00    +0.228 C 
ATOM      3  C   LIG    1        4.898  29.044   5.269  0.00  0.00    +0.172 C 
ATOM      4  S   LIG    1        3.898  27.529   5.286  0.00  0.00    -0.093 S 
ATOM      5  C   LIG    1        2.395  28.398   5.428  0.00  0.00    +0.113 C 
ATOM      6  S   LIG    1        0.883  27.731   5.512  0.00  0.00    -0.028 S 
ATOM      7  N   LIG    1        2.626  29.735   5.463  0.00  0.00    -0.274 N 
ATOM      8  H   LIG    1        1.868  30.397   5.543  0.00  0.00    +0.156 HD
ENDROOT
TORSDOF 0
ENDMDL
