MODEL 1
REMARK VINA RESULT:      -3.7      0.000      0.000
REMARK  Name = 
REMARK                            x       y       z     vdW  Elec       q    Type
REMARK                         _______ _______ _______ _____ _____    ______ ____
ROOT
ATOM      1  O   LIG    1      -47.281  14.057 -35.203  0.00  0.00    -0.275 OA
ATOM      2  C   LIG    1      -46.811  14.804 -34.355  0.00  0.00    +0.228 C 
ATOM      3  C   LIG    1      -47.025  16.295 -34.314  0.00  0.00    +0.172 C 
ATOM      4  S   LIG    1      -46.109  16.880 -32.860  0.00  0.00    -0.093 S 
ATOM      5  C   LIG    1      -45.554  15.283 -32.439  0.00  0.00    +0.113 C 
ATOM      6  S   LIG    1      -44.592  14.890 -31.151  0.00  0.00    -0.028 S 
ATOM      7  N   LIG    1      -46.024  14.371 -33.328  0.00  0.00    -0.274 N 
ATOM      8  H   LIG    1      -45.803  13.391 -33.240  0.00  0.00    +0.156 HD
ENDROOT
TORSDOF 0
ENDMDL
MODEL 2
REMARK VINA RESULT:      -3.7     14.950     15.254
REMARK  Name = 
REMARK                            x       y       z     vdW  Elec       q    Type
REMARK                         _______ _______ _______ _____ _____    ______ ____
ROOT
ATOM      1  O   LIG    1      -36.664   9.352 -43.434  0.00  0.00    -0.275 OA
ATOM      2  C   LIG    1      -36.107   8.697 -42.565  0.00  0.00    +0.228 C 
ATOM      3  C   LIG    1      -36.080   7.191 -42.512  0.00  0.00    +0.172 C 
ATOM      4  S   LIG    1      -35.121   6.771 -41.029  0.00  0.00    -0.093 S 
ATOM      5  C   LIG    1      -34.844   8.439 -40.609  0.00  0.00    +0.113 C 
ATOM      6  S   LIG    1      -33.996   8.990 -39.300  0.00  0.00    -0.028 S 
ATOM      7  N   LIG    1      -35.430   9.257 -41.521  0.00  0.00    -0.274 N 
ATOM      8  H   LIG    1      -35.373  10.261 -41.438  0.00  0.00    +0.156 HD
ENDROOT
TORSDOF 0
ENDMDL
MODEL 3
REMARK VINA RESULT:      -3.7      2.586      3.285
REMARK  Name = 
REMARK                            x       y       z     vdW  Elec       q    Type
REMARK                         _______ _______ _______ _____ _____    ______ ____
ROOT
ATOM      1  O   LIG    1      -44.340  14.387 -30.516  0.00  0.00    -0.275 OA
ATOM      2  C   LIG    1      -44.955  14.995 -31.382  0.00  0.00    +0.228 C 
ATOM      3  C   LIG    1      -45.253  16.471 -31.343  0.00  0.00    +0.172 C 
ATOM      4  S   LIG    1      -46.176  16.822 -32.867  0.00  0.00    -0.093 S 
ATOM      5  C   LIG    1      -46.121  15.167 -33.405  0.00  0.00    +0.113 C 
ATOM      6  S   LIG    1      -46.773  14.571 -34.804  0.00  0.00    -0.028 S 
ATOM      7  N   LIG    1      -45.453  14.401 -32.505  0.00  0.00    -0.274 N 
ATOM      8  H   LIG    1      -45.322  13.411 -32.652  0.00  0.00    +0.156 HD
ENDROOT
TORSDOF 0
ENDMDL
MODEL 4
REMARK VINA RESULT:      -3.7     13.891     14.330
REMARK  Name = 
REMARK                            x       y       z     vdW  Elec       q    Type
REMARK                         _______ _______ _______ _____ _____    ______ ____
ROOT
ATOM      1  O   LIG    1      -37.515   7.623 -36.922  0.00  0.00    -0.275 OA
ATOM      2  C   LIG    1      -36.652   7.394 -37.757  0.00  0.00    +0.228 C 
ATOM      3  C   LIG    1      -35.378   6.636 -37.486  0.00  0.00    +0.172 C 
ATOM      4  S   LIG    1      -34.488   6.597 -39.068  0.00  0.00    -0.093 S 
ATOM      5  C   LIG    1      -35.724   7.494 -39.905  0.00  0.00    +0.113 C 
ATOM      6  S   LIG    1      -35.706   7.929 -41.501  0.00  0.00    -0.028 S 
ATOM      7  N   LIG    1      -36.738   7.802 -39.057  0.00  0.00    -0.274 N 
ATOM      8  H   LIG    1      -37.544   8.322 -39.369  0.00  0.00    +0.156 HD
ENDROOT
TORSDOF 0
ENDMDL
MODEL 5
REMARK VINA RESULT:      -3.7      2.945      3.621
REMARK  Name = 
REMARK                            x       y       z     vdW  Elec       q    Type
REMARK                         _______ _______ _______ _____ _____    ______ ____
ROOT
ATOM      1  O   LIG    1      -46.110  18.648 -31.574  0.00  0.00    -0.275 OA
ATOM      2  C   LIG    1      -45.851  17.468 -31.770  0.00  0.00    +0.228 C 
ATOM      3  C   LIG    1      -45.487  16.481 -30.691  0.00  0.00    +0.172 C 
ATOM      4  S   LIG    1      -45.215  14.903 -31.546  0.00  0.00    -0.093 S 
ATOM      5  C   LIG    1      -45.560  15.574 -33.116  0.00  0.00    +0.113 C 
ATOM      6  S   LIG    1      -45.537  14.759 -34.555  0.00  0.00    -0.028 S 
ATOM      7  N   LIG    1      -45.861  16.894 -33.008  0.00  0.00    -0.274 N 
ATOM      8  H   LIG    1      -46.090  17.448 -33.819  0.00  0.00    +0.156 HD
ENDROOT
TORSDOF 0
ENDMDL
MODEL 6
REMARK VINA RESULT:      -3.6     14.112     14.502
REMARK  Name = 
REMARK                            x       y       z     vdW  Elec       q    Type
REMARK                         _______ _______ _______ _____ _____    ______ ____
ROOT
ATOM      1  O   LIG    1      -37.576   7.851 -37.150  0.00  0.00    -0.275 OA
ATOM      2  C   LIG    1      -36.591   7.219 -37.504  0.00  0.00    +0.228 C 
ATOM      3  C   LIG    1      -35.787   7.510 -38.745  0.00  0.00    +0.172 C 
ATOM      4  S   LIG    1      -34.457   6.274 -38.766  0.00  0.00    -0.093 S 
ATOM      5  C   LIG    1      -34.991   5.522 -37.288  0.00  0.00    +0.113 C 
ATOM      6  S   LIG    1      -34.288   4.224 -36.542  0.00  0.00    -0.028 S 
ATOM      7  N   LIG    1      -36.092   6.156 -36.809  0.00  0.00    -0.274 N 
ATOM      8  H   LIG    1      -36.541   5.856 -35.956  0.00  0.00    +0.156 HD
ENDROOT
TORSDOF 0
ENDMDL
MODEL 7
REMARK VINA RESULT:      -3.5     15.218     15.509
REMARK  Name = 
REMARK                            x       y       z     vdW  Elec       q    Type
REMARK                         _______ _______ _______ _____ _____    ______ ____
ROOT
ATOM      1  O   LIG    1      -34.094   9.389 -39.316  0.00  0.00    -0.275 OA
ATOM      2  C   LIG    1      -34.635   8.727 -40.191  0.00  0.00    +0.228 C 
ATOM      3  C   LIG    1      -34.689   7.222 -40.217  0.00  0.00    +0.172 C 
ATOM      4  S   LIG    1      -35.607   6.792 -41.723  0.00  0.00    -0.093 S 
ATOM      5  C   LIG    1      -35.838   8.457 -42.182  0.00  0.00    +0.113 C 
ATOM      6  S   LIG    1      -36.632   8.999 -43.528  0.00  0.00    -0.028 S 
ATOM      7  N   LIG    1      -35.267   9.281 -41.267  0.00  0.00    -0.274 N 
ATOM      8  H   LIG    1      -35.302  10.284 -41.370  0.00  0.00    +0.156 HD
ENDROOT
TORSDOF 0
ENDMDL
MODEL 8
REMARK VINA RESULT:      -3.5      3.035      3.540
REMARK  Name = 
REMARK                            x       y       z     vdW  Elec       q    Type
REMARK                         _______ _______ _______ _____ _____    ______ ____
ROOT
ATOM      1  O   LIG    1      -44.262  14.546 -30.601  0.00  0.00    -0.275 OA
ATOM      2  C   LIG    1      -44.874  15.353 -31.287  0.00  0.00    +0.228 C 
ATOM      3  C   LIG    1      -45.267  15.131 -32.724  0.00  0.00    +0.172 C 
ATOM      4  S   LIG    1      -46.146  16.638 -33.228  0.00  0.00    -0.093 S 
ATOM      5  C   LIG    1      -45.957  17.393 -31.670  0.00  0.00    +0.113 C 
ATOM      6  S   LIG    1      -46.505  18.893 -31.237  0.00  0.00    -0.028 S 
ATOM      7  N   LIG    1      -45.282  16.571 -30.827  0.00  0.00    -0.274 N 
ATOM      8  H   LIG    1      -45.080  16.845 -29.877  0.00  0.00    +0.156 HD
ENDROOT
TORSDOF 0
ENDMDL
MODEL 9
REMARK VINA RESULT:      -3.4      1.737      2.563
REMARK  Name = 
REMARK                            x       y       z     vdW  Elec       q    Type
REMARK                         _______ _______ _______ _____ _____    ______ ____
ROOT
ATOM      1  O   LIG    1      -45.603  15.065 -34.954  0.00  0.00    -0.275 OA
ATOM      2  C   LIG    1      -45.568  15.470 -33.800  0.00  0.00    +0.228 C 
ATOM      3  C   LIG    1      -45.038  14.681 -32.631  0.00  0.00    +0.172 C 
ATOM      4  S   LIG    1      -45.227  15.764 -31.186  0.00  0.00    -0.093 S 
ATOM      5  C   LIG    1      -45.926  17.059 -32.118  0.00  0.00    +0.113 C 
ATOM      6  S   LIG    1      -46.426  18.524 -31.534  0.00  0.00    -0.028 S 
ATOM      7  N   LIG    1      -46.011  16.706 -33.426  0.00  0.00    -0.274 N 
ATOM      8  H   LIG    1      -46.392  17.336 -34.116  0.00  0.00    +0.156 HD
ENDROOT
TORSDOF 0
ENDMDL
