MODEL 1
REMARK VINA RESULT:      -4.0      0.000      0.000
REMARK  Name = 
REMARK                            x       y       z     vdW  Elec       q    Type
REMARK                         _______ _______ _______ _____ _____    ______ ____
ROOT
ATOM      1  O   LIG    1       26.903 -15.836 -13.933  0.00  0.00    -0.275 OA
ATOM      2  C   LIG    1       26.752 -15.944 -12.724  0.00  0.00    +0.228 C 
ATOM      3  C   LIG    1       25.560 -15.428 -11.960  0.00  0.00    +0.172 C 
ATOM      4  S   LIG    1       25.864 -15.865 -10.225  0.00  0.00    -0.093 S 
ATOM      5  C   LIG    1       27.393 -16.623 -10.576  0.00  0.00    +0.113 C 
ATOM      6  S   LIG    1       28.407 -17.335  -9.480  0.00  0.00    -0.028 S 
ATOM      7  N   LIG    1       27.658 -16.555 -11.906  0.00  0.00    -0.274 N 
ATOM      8  H   LIG    1       28.504 -16.945 -12.293  0.00  0.00    +0.156 HD
ENDROOT
TORSDOF 0
ENDMDL
MODEL 2
REMARK VINA RESULT:      -3.8      1.727      2.240
REMARK  Name = 
REMARK                            x       y       z     vdW  Elec       q    Type
REMARK                         _______ _______ _______ _____ _____    ______ ____
ROOT
ATOM      1  O   LIG    1       25.618 -16.472 -12.328  0.00  0.00    -0.275 OA
ATOM      2  C   LIG    1       26.627 -16.629 -11.656  0.00  0.00    +0.228 C 
ATOM      3  C   LIG    1       26.639 -17.118 -10.230  0.00  0.00    +0.172 C 
ATOM      4  S   LIG    1       28.388 -17.161  -9.744  0.00  0.00    -0.093 S 
ATOM      5  C   LIG    1       28.940 -16.586 -11.293  0.00  0.00    +0.113 C 
ATOM      6  S   LIG    1       30.513 -16.319 -11.733  0.00  0.00    -0.028 S 
ATOM      7  N   LIG    1       27.885 -16.377 -12.121  0.00  0.00    -0.274 N 
ATOM      8  H   LIG    1       28.016 -16.042 -13.064  0.00  0.00    +0.156 HD
ENDROOT
TORSDOF 0
ENDMDL
MODEL 3
REMARK VINA RESULT:      -3.7     14.112     14.575
REMARK  Name = 
REMARK                            x       y       z     vdW  Elec       q    Type
REMARK                         _______ _______ _______ _____ _____    ______ ____
ROOT
ATOM      1  O   LIG    1       25.477 -32.546  -9.633  0.00  0.00    -0.275 OA
ATOM      2  C   LIG    1       25.357 -31.332  -9.732  0.00  0.00    +0.228 C 
ATOM      3  C   LIG    1       26.505 -30.368  -9.881  0.00  0.00    +0.172 C 
ATOM      4  S   LIG    1       25.749 -28.721  -9.985  0.00  0.00    -0.093 S 
ATOM      5  C   LIG    1       24.128 -29.342  -9.837  0.00  0.00    +0.113 C 
ATOM      6  S   LIG    1       22.735 -28.450  -9.836  0.00  0.00    -0.028 S 
ATOM      7  N   LIG    1       24.151 -30.694  -9.719  0.00  0.00    -0.274 N 
ATOM      8  H   LIG    1       23.299 -31.227  -9.624  0.00  0.00    +0.156 HD
ENDROOT
TORSDOF 0
ENDMDL
MODEL 4
REMARK VINA RESULT:      -3.6      8.366      8.688
REMARK  Name = 
REMARK                            x       y       z     vdW  Elec       q    Type
REMARK                         _______ _______ _______ _____ _____    ______ ____
ROOT
ATOM      1  O   LIG    1       25.295 -22.078 -13.037  0.00  0.00    -0.275 OA
ATOM      2  C   LIG    1       25.322 -23.199 -12.548  0.00  0.00    +0.228 C 
ATOM      3  C   LIG    1       26.562 -23.875 -12.024  0.00  0.00    +0.172 C 
ATOM      4  S   LIG    1       26.015 -25.498 -11.420  0.00  0.00    -0.093 S 
ATOM      5  C   LIG    1       24.352 -25.215 -11.856  0.00  0.00    +0.113 C 
ATOM      6  S   LIG    1       23.092 -26.264 -11.637  0.00  0.00    -0.028 S 
ATOM      7  N   LIG    1       24.214 -23.985 -12.414  0.00  0.00    -0.274 N 
ATOM      8  H   LIG    1       23.316 -23.649 -12.729  0.00  0.00    +0.156 HD
ENDROOT
TORSDOF 0
ENDMDL
MODEL 5
REMARK VINA RESULT:      -3.5     13.927     14.317
REMARK  Name = 
REMARK                            x       y       z     vdW  Elec       q    Type
REMARK                         _______ _______ _______ _____ _____    ______ ____
ROOT
ATOM      1  O   LIG    1       25.504 -32.550  -9.626  0.00  0.00    -0.275 OA
ATOM      2  C   LIG    1       25.268 -31.353  -9.720  0.00  0.00    +0.228 C 
ATOM      3  C   LIG    1       23.890 -30.761  -9.864  0.00  0.00    +0.172 C 
ATOM      4  S   LIG    1       24.139 -28.965  -9.954  0.00  0.00    -0.093 S 
ATOM      5  C   LIG    1       25.870 -29.092  -9.814  0.00  0.00    +0.113 C 
ATOM      6  S   LIG    1       26.946 -27.836  -9.809  0.00  0.00    -0.028 S 
ATOM      7  N   LIG    1       26.239 -30.394  -9.704  0.00  0.00    -0.274 N 
ATOM      8  H   LIG    1       27.208 -30.659  -9.613  0.00  0.00    +0.156 HD
ENDROOT
TORSDOF 0
ENDMDL
MODEL 6
REMARK VINA RESULT:      -3.5      9.866     10.155
REMARK  Name = 
REMARK                            x       y       z     vdW  Elec       q    Type
REMARK                         _______ _______ _______ _____ _____    ______ ____
ROOT
ATOM      1  O   LIG    1       28.023 -24.657 -13.158  0.00  0.00    -0.275 OA
ATOM      2  C   LIG    1       27.106 -25.263 -12.620  0.00  0.00    +0.228 C 
ATOM      3  C   LIG    1       26.077 -24.634 -11.717  0.00  0.00    +0.172 C 
ATOM      4  S   LIG    1       24.974 -25.986 -11.217  0.00  0.00    -0.093 S 
ATOM      5  C   LIG    1       25.850 -27.179 -12.136  0.00  0.00    +0.113 C 
ATOM      6  S   LIG    1       25.490 -28.791 -12.241  0.00  0.00    -0.028 S 
ATOM      7  N   LIG    1       26.899 -26.603 -12.776  0.00  0.00    -0.274 N 
ATOM      8  H   LIG    1       27.521 -27.145 -13.358  0.00  0.00    +0.156 HD
ENDROOT
TORSDOF 0
ENDMDL
MODEL 7
REMARK VINA RESULT:      -3.5      2.732      3.554
REMARK  Name = 
REMARK                            x       y       z     vdW  Elec       q    Type
REMARK                         _______ _______ _______ _____ _____    ______ ____
ROOT
ATOM      1  O   LIG    1       26.428 -17.438  -9.705  0.00  0.00    -0.275 OA
ATOM      2  C   LIG    1       27.233 -17.042 -10.537  0.00  0.00    +0.228 C 
ATOM      3  C   LIG    1       28.728 -17.038 -10.348  0.00  0.00    +0.172 C 
ATOM      4  S   LIG    1       29.412 -16.355 -11.885  0.00  0.00    -0.093 S 
ATOM      5  C   LIG    1       27.843 -16.136 -12.609  0.00  0.00    +0.113 C 
ATOM      6  S   LIG    1       27.537 -15.519 -14.113  0.00  0.00    -0.028 S 
ATOM      7  N   LIG    1       26.870 -16.548 -11.757  0.00  0.00    -0.274 N 
ATOM      8  H   LIG    1       25.894 -16.496 -12.009  0.00  0.00    +0.156 HD
ENDROOT
TORSDOF 0
ENDMDL
MODEL 8
REMARK VINA RESULT:      -3.4     13.962     14.384
REMARK  Name = 
REMARK                            x       y       z     vdW  Elec       q    Type
REMARK                         _______ _______ _______ _____ _____    ______ ____
ROOT
ATOM      1  O   LIG    1       26.883 -30.089  -9.407  0.00  0.00    -0.275 OA
ATOM      2  C   LIG    1       25.683 -30.213  -9.614  0.00  0.00    +0.228 C 
ATOM      3  C   LIG    1       24.993 -31.524  -9.887  0.00  0.00    +0.172 C 
ATOM      4  S   LIG    1       23.239 -31.114 -10.113  0.00  0.00    -0.093 S 
ATOM      5  C   LIG    1       23.498 -29.410  -9.863  0.00  0.00    +0.113 C 
ATOM      6  S   LIG    1       22.340 -28.229  -9.901  0.00  0.00    -0.028 S 
ATOM      7  N   LIG    1       24.811 -29.163  -9.623  0.00  0.00    -0.274 N 
ATOM      8  H   LIG    1       25.147 -28.227  -9.454  0.00  0.00    +0.156 HD
ENDROOT
TORSDOF 0
ENDMDL
MODEL 9
REMARK VINA RESULT:      -3.4      8.840      9.018
REMARK  Name = 
REMARK                            x       y       z     vdW  Elec       q    Type
REMARK                         _______ _______ _______ _____ _____    ______ ____
ROOT
ATOM      1  O   LIG    1       25.103 -22.612 -12.884  0.00  0.00    -0.275 OA
ATOM      2  C   LIG    1       24.951 -23.730 -12.411  0.00  0.00    +0.228 C 
ATOM      3  C   LIG    1       23.748 -24.167 -11.615  0.00  0.00    +0.172 C 
ATOM      4  S   LIG    1       24.058 -25.901 -11.176  0.00  0.00    -0.093 S 
ATOM      5  C   LIG    1       25.600 -25.939 -11.984  0.00  0.00    +0.113 C 
ATOM      6  S   LIG    1       26.624 -27.235 -12.077  0.00  0.00    -0.028 S 
ATOM      7  N   LIG    1       25.866 -24.733 -12.548  0.00  0.00    -0.274 N 
ATOM      8  H   LIG    1       26.720 -24.570 -13.060  0.00  0.00    +0.156 HD
ENDROOT
TORSDOF 0
ENDMDL
