MODEL 1
REMARK VINA RESULT:      -3.8      0.000      0.000
REMARK  Name = 
REMARK                            x       y       z     vdW  Elec       q    Type
REMARK                         _______ _______ _______ _____ _____    ______ ____
ROOT
ATOM      1  O   LIG    1       11.703  46.331  28.406  0.00  0.00    -0.275 OA
ATOM      2  C   LIG    1       12.924  46.385  28.346  0.00  0.00    +0.228 C 
ATOM      3  C   LIG    1       13.700  47.466  27.639  0.00  0.00    +0.172 C 
ATOM      4  S   LIG    1       15.450  47.044  27.874  0.00  0.00    -0.093 S 
ATOM      5  C   LIG    1       15.088  45.610  28.794  0.00  0.00    +0.113 C 
ATOM      6  S   LIG    1       16.189  44.558  29.441  0.00  0.00    -0.028 S 
ATOM      7  N   LIG    1       13.744  45.457  28.919  0.00  0.00    -0.274 N 
ATOM      8  H   LIG    1       13.349  44.678  29.424  0.00  0.00    +0.156 HD
ENDROOT
TORSDOF 0
ENDMDL
MODEL 2
REMARK VINA RESULT:      -3.8     17.088     17.605
REMARK  Name = 
REMARK                            x       y       z     vdW  Elec       q    Type
REMARK                         _______ _______ _______ _____ _____    ______ ____
ROOT
ATOM      1  O   LIG    1       23.016  51.884  12.470  0.00  0.00    -0.275 OA
ATOM      2  C   LIG    1       22.467  50.852  12.831  0.00  0.00    +0.228 C 
ATOM      3  C   LIG    1       22.860  49.470  12.377  0.00  0.00    +0.172 C 
ATOM      4  S   LIG    1       21.722  48.337  13.224  0.00  0.00    -0.093 S 
ATOM      5  C   LIG    1       20.881  49.626  14.040  0.00  0.00    +0.113 C 
ATOM      6  S   LIG    1       19.609  49.456  15.084  0.00  0.00    -0.028 S 
ATOM      7  N   LIG    1       21.418  50.826  13.703  0.00  0.00    -0.274 N 
ATOM      8  H   LIG    1       21.056  51.688  14.082  0.00  0.00    +0.156 HD
ENDROOT
TORSDOF 0
ENDMDL
MODEL 3
REMARK VINA RESULT:      -3.8      3.001      3.815
REMARK  Name = 
REMARK                            x       y       z     vdW  Elec       q    Type
REMARK                         _______ _______ _______ _____ _____    ______ ____
ROOT
ATOM      1  O   LIG    1       16.226  47.888  27.477  0.00  0.00    -0.275 OA
ATOM      2  C   LIG    1       15.110  47.481  27.769  0.00  0.00    +0.228 C 
ATOM      3  C   LIG    1       14.812  46.099  28.290  0.00  0.00    +0.172 C 
ATOM      4  S   LIG    1       13.016  46.053  28.552  0.00  0.00    -0.093 S 
ATOM      5  C   LIG    1       12.790  47.693  28.009  0.00  0.00    +0.113 C 
ATOM      6  S   LIG    1       11.351  48.505  27.920  0.00  0.00    -0.028 S 
ATOM      7  N   LIG    1       13.982  48.241  27.656  0.00  0.00    -0.274 N 
ATOM      8  H   LIG    1       14.044  49.189  27.317  0.00  0.00    +0.156 HD
ENDROOT
TORSDOF 0
ENDMDL
MODEL 4
REMARK VINA RESULT:      -3.7      2.967      3.106
REMARK  Name = 
REMARK                            x       y       z     vdW  Elec       q    Type
REMARK                         _______ _______ _______ _____ _____    ______ ____
ROOT
ATOM      1  O   LIG    1       15.541  50.061  28.290  0.00  0.00    -0.275 OA
ATOM      2  C   LIG    1       15.065  48.951  28.093  0.00  0.00    +0.228 C 
ATOM      3  C   LIG    1       13.622  48.584  28.324  0.00  0.00    +0.172 C 
ATOM      4  S   LIG    1       13.485  46.833  27.867  0.00  0.00    -0.093 S 
ATOM      5  C   LIG    1       15.170  46.703  27.446  0.00  0.00    +0.113 C 
ATOM      6  S   LIG    1       15.939  45.346  26.893  0.00  0.00    -0.028 S 
ATOM      7  N   LIG    1       15.795  47.894  27.632  0.00  0.00    -0.274 N 
ATOM      8  H   LIG    1       16.779  48.006  27.438  0.00  0.00    +0.156 HD
ENDROOT
TORSDOF 0
ENDMDL
MODEL 5
REMARK VINA RESULT:      -3.6     11.246     11.816
REMARK  Name = 
REMARK                            x       y       z     vdW  Elec       q    Type
REMARK                         _______ _______ _______ _____ _____    ______ ____
ROOT
ATOM      1  O   LIG    1       16.657  51.193  18.585  0.00  0.00    -0.275 OA
ATOM      2  C   LIG    1       17.399  50.225  18.480  0.00  0.00    +0.228 C 
ATOM      3  C   LIG    1       17.094  48.851  19.018  0.00  0.00    +0.172 C 
ATOM      4  S   LIG    1       18.526  47.826  18.576  0.00  0.00    -0.093 S 
ATOM      5  C   LIG    1       19.356  49.141  17.791  0.00  0.00    +0.113 C 
ATOM      6  S   LIG    1       20.839  49.064  17.061  0.00  0.00    -0.028 S 
ATOM      7  N   LIG    1       18.610  50.273  17.853  0.00  0.00    -0.274 N 
ATOM      8  H   LIG    1       18.934  51.138  17.448  0.00  0.00    +0.156 HD
ENDROOT
TORSDOF 0
ENDMDL
MODEL 6
REMARK VINA RESULT:      -3.6      3.165      3.744
REMARK  Name = 
REMARK                            x       y       z     vdW  Elec       q    Type
REMARK                         _______ _______ _______ _____ _____    ______ ____
ROOT
ATOM      1  O   LIG    1       15.513  46.022  27.059  0.00  0.00    -0.275 OA
ATOM      2  C   LIG    1       15.162  47.129  27.445  0.00  0.00    +0.228 C 
ATOM      3  C   LIG    1       16.100  48.206  27.924  0.00  0.00    +0.172 C 
ATOM      4  S   LIG    1       15.042  49.615  28.362  0.00  0.00    -0.093 S 
ATOM      5  C   LIG    1       13.575  48.780  27.933  0.00  0.00    +0.113 C 
ATOM      6  S   LIG    1       12.039  49.386  28.036  0.00  0.00    -0.028 S 
ATOM      7  N   LIG    1       13.857  47.529  27.489  0.00  0.00    -0.274 N 
ATOM      8  H   LIG    1       13.127  46.898  27.195  0.00  0.00    +0.156 HD
ENDROOT
TORSDOF 0
ENDMDL
MODEL 7
REMARK VINA RESULT:      -3.5      2.454      3.097
REMARK  Name = 
REMARK                            x       y       z     vdW  Elec       q    Type
REMARK                         _______ _______ _______ _____ _____    ______ ____
ROOT
ATOM      1  O   LIG    1       15.820  44.614  28.983  0.00  0.00    -0.275 OA
ATOM      2  C   LIG    1       15.112  45.568  28.691  0.00  0.00    +0.228 C 
ATOM      3  C   LIG    1       15.627  46.941  28.342  0.00  0.00    +0.172 C 
ATOM      4  S   LIG    1       14.152  47.942  27.998  0.00  0.00    -0.093 S 
ATOM      5  C   LIG    1       13.057  46.623  28.307  0.00  0.00    +0.113 C 
ATOM      6  S   LIG    1       11.406  46.680  28.215  0.00  0.00    -0.028 S 
ATOM      7  N   LIG    1       13.750  45.505  28.645  0.00  0.00    -0.274 N 
ATOM      8  H   LIG    1       13.277  44.640  28.859  0.00  0.00    +0.156 HD
ENDROOT
TORSDOF 0
ENDMDL
MODEL 8
REMARK VINA RESULT:      -3.5     15.714     16.233
REMARK  Name = 
REMARK                            x       y       z     vdW  Elec       q    Type
REMARK                         _______ _______ _______ _____ _____    ______ ____
ROOT
ATOM      1  O   LIG    1       20.715  49.061  16.872  0.00  0.00    -0.275 OA
ATOM      2  C   LIG    1       21.104  48.888  15.724  0.00  0.00    +0.228 C 
ATOM      3  C   LIG    1       20.667  47.754  14.833  0.00  0.00    +0.172 C 
ATOM      4  S   LIG    1       21.549  47.999  13.265  0.00  0.00    -0.093 S 
ATOM      5  C   LIG    1       22.360  49.435  13.825  0.00  0.00    +0.113 C 
ATOM      6  S   LIG    1       23.428  50.355  12.960  0.00  0.00    -0.028 S 
ATOM      7  N   LIG    1       21.994  49.715  15.102  0.00  0.00    -0.274 N 
ATOM      8  H   LIG    1       22.366  50.515  15.592  0.00  0.00    +0.156 HD
ENDROOT
TORSDOF 0
ENDMDL
MODEL 9
REMARK VINA RESULT:      -3.5     10.434     11.066
REMARK  Name = 
REMARK                            x       y       z     vdW  Elec       q    Type
REMARK                         _______ _______ _______ _____ _____    ______ ____
ROOT
ATOM      1  O   LIG    1       16.083  46.616  18.606  0.00  0.00    -0.275 OA
ATOM      2  C   LIG    1       16.566  47.739  18.657  0.00  0.00    +0.228 C 
ATOM      3  C   LIG    1       16.044  48.858  19.520  0.00  0.00    +0.172 C 
ATOM      4  S   LIG    1       17.135  50.273  19.198  0.00  0.00    -0.093 S 
ATOM      5  C   LIG    1       18.112  49.392  18.056  0.00  0.00    +0.113 C 
ATOM      6  S   LIG    1       19.419  49.980  17.229  0.00  0.00    -0.028 S 
ATOM      7  N   LIG    1       17.654  48.121  17.926  0.00  0.00    -0.274 N 
ATOM      8  H   LIG    1       18.100  47.463  17.304  0.00  0.00    +0.156 HD
ENDROOT
TORSDOF 0
ENDMDL
