REMARK  Name = 
REMARK                            x       y       z     vdW  Elec       q    Type
REMARK                         _______ _______ _______ _____ _____    ______ ____
ROOT
ATOM      1  O   LIG    1        1.307   0.169   0.575  0.00  0.00    -0.275 OA
ATOM      2  C   LIG    1        2.425   0.073   0.087  0.00  0.00    +0.228 C 
ATOM      3  C   LIG    1        3.154  -1.227  -0.134  0.00  0.00    +0.172 C 
ATOM      4  S   LIG    1        4.746  -0.773  -0.879  0.00  0.00    -0.093 S 
ATOM      5  C   LIG    1        4.390   0.932  -0.853  0.00  0.00    +0.113 C 
ATOM      6  S   LIG    1        5.379   2.146  -1.387  0.00  0.00    -0.028 S 
ATOM      7  N   LIG    1        3.159   1.148  -0.323  0.00  0.00    -0.274 N 
ATOM      8  H   LIG    1        2.784   2.080  -0.229  0.00  0.00    +0.156 HD
ENDROOT
TORSDOF 0
