MODEL 1
REMARK VINA RESULT:      -4.8      0.000      0.000
REMARK  Name = 
REMARK                            x       y       z     vdW  Elec       q    Type
REMARK                         _______ _______ _______ _____ _____    ______ ____
ROOT
ATOM      1  C   LIG    1       -4.471  -4.542  14.182  0.00  0.00    +0.000 A 
ATOM      2  C   LIG    1       -4.215  -4.883  15.510  0.00  0.00    +0.004 A 
ATOM      3  C   LIG    1       -5.201  -4.699  16.479  0.00  0.00    +0.045 A 
ATOM      4  C   LIG    1       -6.437  -4.177  16.112  0.00  0.00    +0.117 A 
ATOM      5  C   LIG    1       -6.704  -3.835  14.791  0.00  0.00    +0.045 A 
ATOM      6  C   LIG    1       -5.715  -4.018  13.822  0.00  0.00    +0.004 A 
ENDROOT
BRANCH   4   7
ATOM      7  O   LIG    1       -7.372  -4.013  17.091  0.00  0.00    -0.507 OA
ATOM      8  H   LIG    1       -7.360  -4.799  17.663  0.00  0.00    +0.292 HD
ENDBRANCH   4   7
TORSDOF 1
ENDMDL
MODEL 2
REMARK VINA RESULT:      -4.8      1.346      1.900
REMARK  Name = 
REMARK                            x       y       z     vdW  Elec       q    Type
REMARK                         _______ _______ _______ _____ _____    ______ ____
ROOT
ATOM      1  C   LIG    1       -5.888  -4.252  14.503  0.00  0.00    +0.000 A 
ATOM      2  C   LIG    1       -4.593  -4.660  14.825  0.00  0.00    +0.004 A 
ATOM      3  C   LIG    1       -4.290  -5.050  16.129  0.00  0.00    +0.045 A 
ATOM      4  C   LIG    1       -5.285  -5.031  17.102  0.00  0.00    +0.117 A 
ATOM      5  C   LIG    1       -6.580  -4.627  16.791  0.00  0.00    +0.045 A 
ATOM      6  C   LIG    1       -6.881  -4.235  15.485  0.00  0.00    +0.004 A 
ENDROOT
BRANCH   4   7
ATOM      7  O   LIG    1       -4.946  -5.420  18.364  0.00  0.00    -0.507 OA
ATOM      8  H   LIG    1       -5.453  -4.886  18.997  0.00  0.00    +0.292 HD
ENDBRANCH   4   7
TORSDOF 1
ENDMDL
MODEL 3
REMARK VINA RESULT:      -4.8      1.336      2.262
REMARK  Name = 
REMARK                            x       y       z     vdW  Elec       q    Type
REMARK                         _______ _______ _______ _____ _____    ______ ____
ROOT
ATOM      1  C   LIG    1       -5.921  -4.108  14.529  0.00  0.00    +0.000 A 
ATOM      2  C   LIG    1       -6.890  -4.187  15.529  0.00  0.00    +0.004 A 
ATOM      3  C   LIG    1       -6.543  -4.642  16.801  0.00  0.00    +0.045 A 
ATOM      4  C   LIG    1       -5.229  -5.013  17.063  0.00  0.00    +0.117 A 
ATOM      5  C   LIG    1       -4.254  -4.938  16.074  0.00  0.00    +0.045 A 
ATOM      6  C   LIG    1       -4.604  -4.483  14.800  0.00  0.00    +0.004 A 
ENDROOT
BRANCH   4   7
ATOM      7  O   LIG    1       -4.933  -5.453  18.320  0.00  0.00    -0.507 OA
ATOM      8  H   LIG    1       -4.879  -4.684  18.910  0.00  0.00    +0.292 HD
ENDBRANCH   4   7
TORSDOF 1
ENDMDL
MODEL 4
REMARK VINA RESULT:      -4.7      0.145      1.834
REMARK  Name = 
REMARK                            x       y       z     vdW  Elec       q    Type
REMARK                         _______ _______ _______ _____ _____    ______ ____
ROOT
ATOM      1  C   LIG    1       -4.472  -4.471  14.219  0.00  0.00    +0.000 A 
ATOM      2  C   LIG    1       -5.717  -3.991  13.814  0.00  0.00    +0.004 A 
ATOM      3  C   LIG    1       -6.757  -3.887  14.737  0.00  0.00    +0.045 A 
ATOM      4  C   LIG    1       -6.544  -4.264  16.059  0.00  0.00    +0.117 A 
ATOM      5  C   LIG    1       -5.305  -4.743  16.474  0.00  0.00    +0.045 A 
ATOM      6  C   LIG    1       -4.265  -4.847  15.548  0.00  0.00    +0.004 A 
ENDROOT
BRANCH   4   7
ATOM      7  O   LIG    1       -7.588  -4.147  16.928  0.00  0.00    -0.507 OA
ATOM      8  H   LIG    1       -8.275  -4.784  16.671  0.00  0.00    +0.292 HD
ENDBRANCH   4   7
TORSDOF 1
ENDMDL
MODEL 5
REMARK VINA RESULT:      -4.6     14.077     14.513
REMARK  Name = 
REMARK                            x       y       z     vdW  Elec       q    Type
REMARK                         _______ _______ _______ _____ _____    ______ ____
ROOT
ATOM      1  C   LIG    1      -17.742 -10.780  20.238  0.00  0.00    +0.000 A 
ATOM      2  C   LIG    1      -17.703 -10.947  21.623  0.00  0.00    +0.004 A 
ATOM      3  C   LIG    1      -17.844  -9.842  22.462  0.00  0.00    +0.045 A 
ATOM      4  C   LIG    1      -18.024  -8.578  21.910  0.00  0.00    +0.117 A 
ATOM      5  C   LIG    1      -18.065  -8.400  20.530  0.00  0.00    +0.045 A 
ATOM      6  C   LIG    1      -17.923  -9.508  19.692  0.00  0.00    +0.004 A 
ENDROOT
BRANCH   4   7
ATOM      7  O   LIG    1      -18.156  -7.525  22.766  0.00  0.00    -0.507 OA
ATOM      8  H   LIG    1      -17.394  -7.521  23.369  0.00  0.00    +0.292 HD
ENDBRANCH   4   7
TORSDOF 1
ENDMDL
MODEL 6
REMARK VINA RESULT:      -4.5      2.005      3.252
REMARK  Name = 
REMARK                            x       y       z     vdW  Elec       q    Type
REMARK                         _______ _______ _______ _____ _____    ______ ____
ROOT
ATOM      1  C   LIG    1       -6.730  -4.512  16.428  0.00  0.00    +0.000 A 
ATOM      2  C   LIG    1       -6.721  -4.092  15.098  0.00  0.00    +0.004 A 
ATOM      3  C   LIG    1       -5.538  -4.137  14.361  0.00  0.00    +0.045 A 
ATOM      4  C   LIG    1       -4.372  -4.602  14.961  0.00  0.00    +0.117 A 
ATOM      5  C   LIG    1       -4.370  -5.025  16.286  0.00  0.00    +0.045 A 
ATOM      6  C   LIG    1       -5.556  -4.978  17.023  0.00  0.00    +0.004 A 
ENDROOT
BRANCH   4   7
ATOM      7  O   LIG    1       -3.237  -4.628  14.205  0.00  0.00    -0.507 OA
ATOM      8  H   LIG    1       -3.104  -3.747  13.820  0.00  0.00    +0.292 HD
ENDBRANCH   4   7
TORSDOF 1
ENDMDL
MODEL 7
REMARK VINA RESULT:      -4.4     14.180     14.807
REMARK  Name = 
REMARK                            x       y       z     vdW  Elec       q    Type
REMARK                         _______ _______ _______ _____ _____    ______ ____
ROOT
ATOM      1  C   LIG    1      -18.075  -8.091  20.573  0.00  0.00    +0.000 A 
ATOM      2  C   LIG    1      -17.921  -9.188  19.725  0.00  0.00    +0.004 A 
ATOM      3  C   LIG    1      -17.856 -10.475  20.258  0.00  0.00    +0.045 A 
ATOM      4  C   LIG    1      -17.945 -10.656  21.634  0.00  0.00    +0.117 A 
ATOM      5  C   LIG    1      -18.100  -9.568  22.488  0.00  0.00    +0.045 A 
ATOM      6  C   LIG    1      -18.164  -8.280  21.954  0.00  0.00    +0.004 A 
ENDROOT
BRANCH   4   7
ATOM      7  O   LIG    1      -17.875 -11.931  22.113  0.00  0.00    -0.507 OA
ATOM      8  H   LIG    1      -18.551 -12.465  21.665  0.00  0.00    +0.292 HD
ENDBRANCH   4   7
TORSDOF 1
ENDMDL
MODEL 8
REMARK VINA RESULT:      -4.3     13.742     14.356
REMARK  Name = 
REMARK                            x       y       z     vdW  Elec       q    Type
REMARK                         _______ _______ _______ _____ _____    ______ ____
ROOT
ATOM      1  C   LIG    1      -17.897  -9.939  22.177  0.00  0.00    +0.000 A 
ATOM      2  C   LIG    1      -17.672 -10.537  20.937  0.00  0.00    +0.004 A 
ATOM      3  C   LIG    1      -17.737  -9.772  19.772  0.00  0.00    +0.045 A 
ATOM      4  C   LIG    1      -18.025  -8.414  19.857  0.00  0.00    +0.117 A 
ATOM      5  C   LIG    1      -18.249  -7.807  21.089  0.00  0.00    +0.045 A 
ATOM      6  C   LIG    1      -18.185  -8.574  22.253  0.00  0.00    +0.004 A 
ENDROOT
BRANCH   4   7
ATOM      7  O   LIG    1      -18.080  -7.703  18.694  0.00  0.00    -0.507 OA
ATOM      8  H   LIG    1      -18.457  -6.829  18.885  0.00  0.00    +0.292 HD
ENDBRANCH   4   7
TORSDOF 1
ENDMDL
MODEL 9
REMARK VINA RESULT:      -4.3      1.741      2.523
REMARK  Name = 
REMARK                            x       y       z     vdW  Elec       q    Type
REMARK                         _______ _______ _______ _____ _____    ______ ____
ROOT
ATOM      1  C   LIG    1       -4.173  -4.837  15.566  0.00  0.00    +0.000 A 
ATOM      2  C   LIG    1       -3.807  -4.667  14.231  0.00  0.00    +0.004 A 
ATOM      3  C   LIG    1       -4.720  -4.133  13.321  0.00  0.00    +0.045 A 
ATOM      4  C   LIG    1       -5.991  -3.772  13.755  0.00  0.00    +0.117 A 
ATOM      5  C   LIG    1       -6.366  -3.936  15.084  0.00  0.00    +0.045 A 
ATOM      6  C   LIG    1       -5.451  -4.472  15.994  0.00  0.00    +0.004 A 
ENDROOT
BRANCH   4   7
ATOM      7  O   LIG    1       -6.853  -3.255  12.833  0.00  0.00    -0.507 OA
ATOM      8  H   LIG    1       -7.463  -2.650  13.286  0.00  0.00    +0.292 HD
ENDBRANCH   4   7
TORSDOF 1
ENDMDL
