MODEL 1
REMARK VINA RESULT:      -5.4      0.000      0.000
REMARK  Name = 
REMARK                            x       y       z     vdW  Elec       q    Type
REMARK                         _______ _______ _______ _____ _____    ______ ____
ROOT
ATOM      1  C   LIG    1       54.835  46.644  29.301  0.00  0.00    +0.000 A 
ATOM      2  C   LIG    1       56.083  46.732  28.684  0.00  0.00    +0.004 A 
ATOM      3  C   LIG    1       57.070  45.789  28.970  0.00  0.00    +0.045 A 
ATOM      4  C   LIG    1       56.800  44.763  29.870  0.00  0.00    +0.117 A 
ATOM      5  C   LIG    1       55.559  44.665  30.490  0.00  0.00    +0.045 A 
ATOM      6  C   LIG    1       54.572  45.611  30.204  0.00  0.00    +0.004 A 
ENDROOT
BRANCH   4   7
ATOM      7  O   LIG    1       57.793  43.862  30.122  0.00  0.00    -0.507 OA
ATOM      8  H   LIG    1       58.250  44.128  30.936  0.00  0.00    +0.292 HD
ENDBRANCH   4   7
TORSDOF 1
ENDMDL
MODEL 2
REMARK VINA RESULT:      -5.4      0.056      1.829
REMARK  Name = 
REMARK                            x       y       z     vdW  Elec       q    Type
REMARK                         _______ _______ _______ _____ _____    ______ ____
ROOT
ATOM      1  C   LIG    1       54.806  46.623  29.357  0.00  0.00    +0.000 A 
ATOM      2  C   LIG    1       54.598  45.579  30.259  0.00  0.00    +0.004 A 
ATOM      3  C   LIG    1       55.618  44.662  30.510  0.00  0.00    +0.045 A 
ATOM      4  C   LIG    1       56.839  44.796  29.857  0.00  0.00    +0.117 A 
ATOM      5  C   LIG    1       57.058  45.834  28.957  0.00  0.00    +0.045 A 
ATOM      6  C   LIG    1       56.035  46.751  28.706  0.00  0.00    +0.004 A 
ENDROOT
BRANCH   4   7
ATOM      7  O   LIG    1       57.809  43.877  30.131  0.00  0.00    -0.507 OA
ATOM      8  H   LIG    1       58.209  44.098  30.988  0.00  0.00    +0.292 HD
ENDBRANCH   4   7
TORSDOF 1
ENDMDL
MODEL 3
REMARK VINA RESULT:      -5.2      1.867      2.616
REMARK  Name = 
REMARK                            x       y       z     vdW  Elec       q    Type
REMARK                         _______ _______ _______ _____ _____    ______ ____
ROOT
ATOM      1  C   LIG    1       57.902  45.194  29.827  0.00  0.00    +0.000 A 
ATOM      2  C   LIG    1       57.450  46.216  28.992  0.00  0.00    +0.004 A 
ATOM      3  C   LIG    1       56.102  46.575  28.998  0.00  0.00    +0.045 A 
ATOM      4  C   LIG    1       55.218  45.911  29.841  0.00  0.00    +0.117 A 
ATOM      5  C   LIG    1       55.658  44.891  30.679  0.00  0.00    +0.045 A 
ATOM      6  C   LIG    1       57.008  44.531  30.670  0.00  0.00    +0.004 A 
ENDROOT
BRANCH   4   7
ATOM      7  O   LIG    1       53.909  46.293  29.816  0.00  0.00    -0.507 OA
ATOM      8  H   LIG    1       53.556  46.126  28.926  0.00  0.00    +0.292 HD
ENDBRANCH   4   7
TORSDOF 1
ENDMDL
MODEL 4
REMARK VINA RESULT:      -5.2      1.925      3.167
REMARK  Name = 
REMARK                            x       y       z     vdW  Elec       q    Type
REMARK                         _______ _______ _______ _____ _____    ______ ____
ROOT
ATOM      1  C   LIG    1       57.745  45.147  29.934  0.00  0.00    +0.000 A 
ATOM      2  C   LIG    1       56.763  44.680  30.808  0.00  0.00    +0.004 A 
ATOM      3  C   LIG    1       55.455  45.154  30.704  0.00  0.00    +0.045 A 
ATOM      4  C   LIG    1       55.140  46.092  29.726  0.00  0.00    +0.117 A 
ATOM      5  C   LIG    1       56.112  46.564  28.849  0.00  0.00    +0.045 A 
ATOM      6  C   LIG    1       57.421  46.088  28.955  0.00  0.00    +0.004 A 
ENDROOT
BRANCH   4   7
ATOM      7  O   LIG    1       53.851  46.530  29.659  0.00  0.00    -0.507 OA
ATOM      8  H   LIG    1       53.679  46.846  28.757  0.00  0.00    +0.292 HD
ENDBRANCH   4   7
TORSDOF 1
ENDMDL
MODEL 5
REMARK VINA RESULT:      -4.6      9.133      9.977
REMARK  Name = 
REMARK                            x       y       z     vdW  Elec       q    Type
REMARK                         _______ _______ _______ _____ _____    ______ ____
ROOT
ATOM      1  C   LIG    1       64.948  43.604  34.264  0.00  0.00    +0.000 A 
ATOM      2  C   LIG    1       65.741  44.750  34.316  0.00  0.00    +0.004 A 
ATOM      3  C   LIG    1       65.940  45.512  33.165  0.00  0.00    +0.045 A 
ATOM      4  C   LIG    1       65.343  45.123  31.971  0.00  0.00    +0.117 A 
ATOM      5  C   LIG    1       64.548  43.983  31.908  0.00  0.00    +0.045 A 
ATOM      6  C   LIG    1       64.351  43.220  33.061  0.00  0.00    +0.004 A 
ENDROOT
BRANCH   4   7
ATOM      7  O   LIG    1       65.565  45.896  30.869  0.00  0.00    -0.507 OA
ATOM      8  H   LIG    1       66.481  45.759  30.576  0.00  0.00    +0.292 HD
ENDBRANCH   4   7
TORSDOF 1
ENDMDL
MODEL 6
REMARK VINA RESULT:      -4.6      7.577      8.150
REMARK  Name = 
REMARK                            x       y       z     vdW  Elec       q    Type
REMARK                         _______ _______ _______ _____ _____    ______ ____
ROOT
ATOM      1  C   LIG    1       62.796  44.748  27.442  0.00  0.00    +0.000 A 
ATOM      2  C   LIG    1       63.463  45.972  27.502  0.00  0.00    +0.004 A 
ATOM      3  C   LIG    1       64.443  46.184  28.472  0.00  0.00    +0.045 A 
ATOM      4  C   LIG    1       64.749  45.169  29.373  0.00  0.00    +0.117 A 
ATOM      5  C   LIG    1       64.091  43.945  29.321  0.00  0.00    +0.045 A 
ATOM      6  C   LIG    1       63.109  43.735  28.351  0.00  0.00    +0.004 A 
ENDROOT
BRANCH   4   7
ATOM      7  O   LIG    1       65.713  45.419  30.306  0.00  0.00    -0.507 OA
ATOM      8  H   LIG    1       65.961  44.578  30.724  0.00  0.00    +0.292 HD
ENDBRANCH   4   7
TORSDOF 1
ENDMDL
MODEL 7
REMARK VINA RESULT:      -4.6      7.578      8.306
REMARK  Name = 
REMARK                            x       y       z     vdW  Elec       q    Type
REMARK                         _______ _______ _______ _____ _____    ______ ____
ROOT
ATOM      1  C   LIG    1       62.799  44.723  27.454  0.00  0.00    +0.000 A 
ATOM      2  C   LIG    1       63.129  43.723  28.369  0.00  0.00    +0.004 A 
ATOM      3  C   LIG    1       64.115  43.955  29.328  0.00  0.00    +0.045 A 
ATOM      4  C   LIG    1       64.761  45.186  29.366  0.00  0.00    +0.117 A 
ATOM      5  C   LIG    1       64.439  46.191  28.460  0.00  0.00    +0.045 A 
ATOM      6  C   LIG    1       63.452  45.957  27.499  0.00  0.00    +0.004 A 
ENDROOT
BRANCH   4   7
ATOM      7  O   LIG    1       65.719  45.370  30.319  0.00  0.00    -0.507 OA
ATOM      8  H   LIG    1       65.300  45.752  31.107  0.00  0.00    +0.292 HD
ENDBRANCH   4   7
TORSDOF 1
ENDMDL
MODEL 8
REMARK VINA RESULT:      -4.5      9.315      9.507
REMARK  Name = 
REMARK                            x       y       z     vdW  Elec       q    Type
REMARK                         _______ _______ _______ _____ _____    ______ ____
ROOT
ATOM      1  C   LIG    1       47.967  50.205  30.566  0.00  0.00    +0.000 A 
ATOM      2  C   LIG    1       48.661  51.414  30.507  0.00  0.00    +0.004 A 
ATOM      3  C   LIG    1       49.162  51.870  29.288  0.00  0.00    +0.045 A 
ATOM      4  C   LIG    1       48.964  51.115  28.137  0.00  0.00    +0.117 A 
ATOM      5  C   LIG    1       48.273  49.908  28.184  0.00  0.00    +0.045 A 
ATOM      6  C   LIG    1       47.773  49.452  29.406  0.00  0.00    +0.004 A 
ENDROOT
BRANCH   4   7
ATOM      7  O   LIG    1       49.471  51.597  26.967  0.00  0.00    -0.507 OA
ATOM      8  H   LIG    1       48.932  51.257  26.234  0.00  0.00    +0.292 HD
ENDBRANCH   4   7
TORSDOF 1
ENDMDL
MODEL 9
REMARK VINA RESULT:      -4.5      6.356      7.526
REMARK  Name = 
REMARK                            x       y       z     vdW  Elec       q    Type
REMARK                         _______ _______ _______ _____ _____    ______ ____
ROOT
ATOM      1  C   LIG    1       61.154  46.790  27.782  0.00  0.00    +0.000 A 
ATOM      2  C   LIG    1       61.937  45.639  27.684  0.00  0.00    +0.004 A 
ATOM      3  C   LIG    1       63.320  45.748  27.542  0.00  0.00    +0.045 A 
ATOM      4  C   LIG    1       63.910  47.007  27.498  0.00  0.00    +0.117 A 
ATOM      5  C   LIG    1       63.139  48.161  27.596  0.00  0.00    +0.045 A 
ATOM      6  C   LIG    1       61.754  48.050  27.737  0.00  0.00    +0.004 A 
ENDROOT
BRANCH   4   7
ATOM      7  O   LIG    1       65.265  47.068  27.357  0.00  0.00    -0.507 OA
ATOM      8  H   LIG    1       65.538  47.999  27.404  0.00  0.00    +0.292 HD
ENDBRANCH   4   7
TORSDOF 1
ENDMDL
