MODEL 1
REMARK VINA RESULT:      -4.9      0.000      0.000
REMARK  Name = 
REMARK                            x       y       z     vdW  Elec       q    Type
REMARK                         _______ _______ _______ _____ _____    ______ ____
ROOT
ATOM      1  C   LIG    1       43.831  -3.109  17.224  0.00  0.00    +0.000 A 
ATOM      2  C   LIG    1       42.592  -2.767  16.681  0.00  0.00    +0.004 A 
ATOM      3  C   LIG    1       41.878  -1.687  17.200  0.00  0.00    +0.045 A 
ATOM      4  C   LIG    1       42.409  -0.957  18.258  0.00  0.00    +0.117 A 
ATOM      5  C   LIG    1       43.644  -1.288  18.806  0.00  0.00    +0.045 A 
ATOM      6  C   LIG    1       44.357  -2.370  18.286  0.00  0.00    +0.004 A 
ENDROOT
BRANCH   4   7
ATOM      7  O   LIG    1       41.678   0.091  18.736  0.00  0.00    -0.507 OA
ATOM      8  H   LIG    1       41.088   0.402  18.030  0.00  0.00    +0.292 HD
ENDBRANCH   4   7
TORSDOF 1
ENDMDL
MODEL 2
REMARK VINA RESULT:      -4.9      0.047      1.829
REMARK  Name = 
REMARK                            x       y       z     vdW  Elec       q    Type
REMARK                         _______ _______ _______ _____ _____    ______ ____
ROOT
ATOM      1  C   LIG    1       43.819  -3.122  17.198  0.00  0.00    +0.000 A 
ATOM      2  C   LIG    1       44.330  -2.375  18.260  0.00  0.00    +0.004 A 
ATOM      3  C   LIG    1       43.605  -1.298  18.768  0.00  0.00    +0.045 A 
ATOM      4  C   LIG    1       42.372  -0.976  18.210  0.00  0.00    +0.117 A 
ATOM      5  C   LIG    1       41.852  -1.713  17.152  0.00  0.00    +0.045 A 
ATOM      6  C   LIG    1       42.580  -2.791  16.644  0.00  0.00    +0.004 A 
ENDROOT
BRANCH   4   7
ATOM      7  O   LIG    1       41.696   0.086  18.736  0.00  0.00    -0.507 OA
ATOM      8  H   LIG    1       40.908   0.249  18.192  0.00  0.00    +0.292 HD
ENDBRANCH   4   7
TORSDOF 1
ENDMDL
MODEL 3
REMARK VINA RESULT:      -4.8      3.533      4.690
REMARK  Name = 
REMARK                            x       y       z     vdW  Elec       q    Type
REMARK                         _______ _______ _______ _____ _____    ______ ____
ROOT
ATOM      1  C   LIG    1       44.206  -2.848  17.724  0.00  0.00    +0.000 A 
ATOM      2  C   LIG    1       45.273  -2.623  18.595  0.00  0.00    +0.004 A 
ATOM      3  C   LIG    1       46.355  -3.502  18.613  0.00  0.00    +0.045 A 
ATOM      4  C   LIG    1       46.363  -4.601  17.760  0.00  0.00    +0.117 A 
ATOM      5  C   LIG    1       45.305  -4.835  16.887  0.00  0.00    +0.045 A 
ATOM      6  C   LIG    1       44.222  -3.953  16.871  0.00  0.00    +0.004 A 
ENDROOT
BRANCH   4   7
ATOM      7  O   LIG    1       47.439  -5.436  17.811  0.00  0.00    -0.507 OA
ATOM      8  H   LIG    1       47.118  -6.347  17.913  0.00  0.00    +0.292 HD
ENDBRANCH   4   7
TORSDOF 1
ENDMDL
MODEL 4
REMARK VINA RESULT:      -4.8      2.076      2.784
REMARK  Name = 
REMARK                            x       y       z     vdW  Elec       q    Type
REMARK                         _______ _______ _______ _____ _____    ______ ____
ROOT
ATOM      1  C   LIG    1       44.420  -1.794  18.847  0.00  0.00    +0.000 A 
ATOM      2  C   LIG    1       43.175  -1.427  18.335  0.00  0.00    +0.004 A 
ATOM      3  C   LIG    1       42.611  -2.154  17.287  0.00  0.00    +0.045 A 
ATOM      4  C   LIG    1       43.296  -3.244  16.760  0.00  0.00    +0.117 A 
ATOM      5  C   LIG    1       44.537  -3.620  17.264  0.00  0.00    +0.045 A 
ATOM      6  C   LIG    1       45.101  -2.890  18.313  0.00  0.00    +0.004 A 
ENDROOT
BRANCH   4   7
ATOM      7  O   LIG    1       42.709  -3.927  15.736  0.00  0.00    -0.507 OA
ATOM      8  H   LIG    1       43.081  -3.606  14.898  0.00  0.00    +0.292 HD
ENDBRANCH   4   7
TORSDOF 1
ENDMDL
MODEL 5
REMARK VINA RESULT:      -4.8      3.218      4.036
REMARK  Name = 
REMARK                            x       y       z     vdW  Elec       q    Type
REMARK                         _______ _______ _______ _____ _____    ______ ____
ROOT
ATOM      1  C   LIG    1       43.217  -3.369  16.604  0.00  0.00    +0.000 A 
ATOM      2  C   LIG    1       43.615  -4.570  16.015  0.00  0.00    +0.004 A 
ATOM      3  C   LIG    1       44.810  -5.174  16.405  0.00  0.00    +0.045 A 
ATOM      4  C   LIG    1       45.598  -4.573  17.381  0.00  0.00    +0.117 A 
ATOM      5  C   LIG    1       45.210  -3.377  17.975  0.00  0.00    +0.045 A 
ATOM      6  C   LIG    1       44.014  -2.773  17.583  0.00  0.00    +0.004 A 
ENDROOT
BRANCH   4   7
ATOM      7  O   LIG    1       46.759  -5.197  17.731  0.00  0.00    -0.507 OA
ATOM      8  H   LIG    1       47.066  -4.825  18.574  0.00  0.00    +0.292 HD
ENDBRANCH   4   7
TORSDOF 1
ENDMDL
MODEL 6
REMARK VINA RESULT:      -4.7      2.358      3.155
REMARK  Name = 
REMARK                            x       y       z     vdW  Elec       q    Type
REMARK                         _______ _______ _______ _____ _____    ______ ____
ROOT
ATOM      1  C   LIG    1       45.337  -4.082  17.520  0.00  0.00    +0.000 A 
ATOM      2  C   LIG    1       44.914  -5.004  16.562  0.00  0.00    +0.004 A 
ATOM      3  C   LIG    1       43.694  -4.822  15.911  0.00  0.00    +0.045 A 
ATOM      4  C   LIG    1       42.907  -3.718  16.221  0.00  0.00    +0.117 A 
ATOM      5  C   LIG    1       43.320  -2.791  17.174  0.00  0.00    +0.045 A 
ATOM      6  C   LIG    1       44.541  -2.976  17.826  0.00  0.00    +0.004 A 
ENDROOT
BRANCH   4   7
ATOM      7  O   LIG    1       41.721  -3.579  15.562  0.00  0.00    -0.507 OA
ATOM      8  H   LIG    1       41.618  -2.647  15.308  0.00  0.00    +0.292 HD
ENDBRANCH   4   7
TORSDOF 1
ENDMDL
MODEL 7
REMARK VINA RESULT:      -4.7      2.515      3.651
REMARK  Name = 
REMARK                            x       y       z     vdW  Elec       q    Type
REMARK                         _______ _______ _______ _____ _____    ______ ____
ROOT
ATOM      1  C   LIG    1       43.318  -1.321  18.571  0.00  0.00    +0.000 A 
ATOM      2  C   LIG    1       44.530  -1.578  19.212  0.00  0.00    +0.004 A 
ATOM      3  C   LIG    1       45.327  -2.643  18.794  0.00  0.00    +0.045 A 
ATOM      4  C   LIG    1       44.907  -3.443  17.736  0.00  0.00    +0.117 A 
ATOM      5  C   LIG    1       43.701  -3.195  17.089  0.00  0.00    +0.045 A 
ATOM      6  C   LIG    1       42.903  -2.129  17.510  0.00  0.00    +0.004 A 
ENDROOT
BRANCH   4   7
ATOM      7  O   LIG    1       45.716  -4.474  17.360  0.00  0.00    -0.507 OA
ATOM      8  H   LIG    1       45.205  -5.299  17.405  0.00  0.00    +0.292 HD
ENDBRANCH   4   7
TORSDOF 1
ENDMDL
MODEL 8
REMARK VINA RESULT:      -4.7      2.408      3.070
REMARK  Name = 
REMARK                            x       y       z     vdW  Elec       q    Type
REMARK                         _______ _______ _______ _____ _____    ______ ____
ROOT
ATOM      1  C   LIG    1       42.853  -1.880  17.666  0.00  0.00    +0.000 A 
ATOM      2  C   LIG    1       43.388  -3.002  17.032  0.00  0.00    +0.004 A 
ATOM      3  C   LIG    1       44.604  -3.531  17.463  0.00  0.00    +0.045 A 
ATOM      4  C   LIG    1       45.275  -2.935  18.526  0.00  0.00    +0.117 A 
ATOM      5  C   LIG    1       44.750  -1.817  19.166  0.00  0.00    +0.045 A 
ATOM      6  C   LIG    1       43.533  -1.287  18.732  0.00  0.00    +0.004 A 
ENDROOT
BRANCH   4   7
ATOM      7  O   LIG    1       46.462  -3.485  18.915  0.00  0.00    -0.507 OA
ATOM      8  H   LIG    1       46.277  -4.306  19.398  0.00  0.00    +0.292 HD
ENDBRANCH   4   7
TORSDOF 1
ENDMDL
MODEL 9
REMARK VINA RESULT:      -4.6      3.424      4.625
REMARK  Name = 
REMARK                            x       y       z     vdW  Elec       q    Type
REMARK                         _______ _______ _______ _____ _____    ______ ____
ROOT
ATOM      1  C   LIG    1       37.835  -0.683  16.292  0.00  0.00    +0.000 A 
ATOM      2  C   LIG    1       38.616  -1.665  16.902  0.00  0.00    +0.004 A 
ATOM      3  C   LIG    1       39.735  -1.300  17.650  0.00  0.00    +0.045 A 
ATOM      4  C   LIG    1       40.064   0.045  17.783  0.00  0.00    +0.117 A 
ATOM      5  C   LIG    1       39.291   1.033  17.181  0.00  0.00    +0.045 A 
ATOM      6  C   LIG    1       38.171   0.665  16.431  0.00  0.00    +0.004 A 
ENDROOT
BRANCH   4   7
ATOM      7  O   LIG    1       41.167   0.359  18.522  0.00  0.00    -0.507 OA
ATOM      8  H   LIG    1       40.930   0.312  19.463  0.00  0.00    +0.292 HD
ENDBRANCH   4   7
TORSDOF 1
ENDMDL
