MODEL 1
REMARK VINA RESULT:      -4.8      0.000      0.000
REMARK  Name = 
REMARK                            x       y       z     vdW  Elec       q    Type
REMARK                         _______ _______ _______ _____ _____    ______ ____
ROOT
ATOM      1  C   LIG    1       17.476  30.384  10.220  0.00  0.00    +0.000 A 
ATOM      2  C   LIG    1       16.708  31.297  10.943  0.00  0.00    +0.004 A 
ATOM      3  C   LIG    1       15.609  31.912  10.343  0.00  0.00    +0.045 A 
ATOM      4  C   LIG    1       15.288  31.609   9.024  0.00  0.00    +0.117 A 
ATOM      5  C   LIG    1       16.046  30.699   8.294  0.00  0.00    +0.045 A 
ATOM      6  C   LIG    1       17.147  30.085   8.897  0.00  0.00    +0.004 A 
ENDROOT
BRANCH   4   7
ATOM      7  O   LIG    1       14.207  32.233   8.475  0.00  0.00    -0.507 OA
ATOM      8  H   LIG    1       13.988  33.006   9.021  0.00  0.00    +0.292 HD
ENDBRANCH   4   7
TORSDOF 1
ENDMDL
MODEL 2
REMARK VINA RESULT:      -4.8      0.050      1.830
REMARK  Name = 
REMARK                            x       y       z     vdW  Elec       q    Type
REMARK                         _______ _______ _______ _____ _____    ______ ____
ROOT
ATOM      1  C   LIG    1       17.479  30.412  10.243  0.00  0.00    +0.000 A 
ATOM      2  C   LIG    1       17.136  30.121   8.923  0.00  0.00    +0.004 A 
ATOM      3  C   LIG    1       16.031  30.740   8.338  0.00  0.00    +0.045 A 
ATOM      4  C   LIG    1       15.278  31.645   9.079  0.00  0.00    +0.117 A 
ATOM      5  C   LIG    1       15.612  31.943  10.396  0.00  0.00    +0.045 A 
ATOM      6  C   LIG    1       16.719  31.323  10.980  0.00  0.00    +0.004 A 
ENDROOT
BRANCH   4   7
ATOM      7  O   LIG    1       14.205  32.226   8.469  0.00  0.00    -0.507 OA
ATOM      8  H   LIG    1       13.455  31.610   8.513  0.00  0.00    +0.292 HD
ENDBRANCH   4   7
TORSDOF 1
ENDMDL
MODEL 3
REMARK VINA RESULT:      -4.7      1.480      2.139
REMARK  Name = 
REMARK                            x       y       z     vdW  Elec       q    Type
REMARK                         _______ _______ _______ _____ _____    ______ ____
ROOT
ATOM      1  C   LIG    1       16.507  31.792  10.693  0.00  0.00    +0.000 A 
ATOM      2  C   LIG    1       15.290  31.693  10.018  0.00  0.00    +0.004 A 
ATOM      3  C   LIG    1       15.186  30.886   8.885  0.00  0.00    +0.045 A 
ATOM      4  C   LIG    1       16.299  30.184   8.436  0.00  0.00    +0.117 A 
ATOM      5  C   LIG    1       17.517  30.275   9.102  0.00  0.00    +0.045 A 
ATOM      6  C   LIG    1       17.620  31.084  10.236  0.00  0.00    +0.004 A 
ENDROOT
BRANCH   4   7
ATOM      7  O   LIG    1       16.154  29.408   7.324  0.00  0.00    -0.507 OA
ATOM      8  H   LIG    1       15.980  28.495   7.607  0.00  0.00    +0.292 HD
ENDBRANCH   4   7
TORSDOF 1
ENDMDL
MODEL 4
REMARK VINA RESULT:      -4.6      1.527      2.326
REMARK  Name = 
REMARK                            x       y       z     vdW  Elec       q    Type
REMARK                         _______ _______ _______ _____ _____    ______ ____
ROOT
ATOM      1  C   LIG    1       16.302  31.869  10.662  0.00  0.00    +0.000 A 
ATOM      2  C   LIG    1       17.450  31.190  10.252  0.00  0.00    +0.004 A 
ATOM      3  C   LIG    1       17.400  30.345   9.144  0.00  0.00    +0.045 A 
ATOM      4  C   LIG    1       16.203  30.185   8.454  0.00  0.00    +0.117 A 
ATOM      5  C   LIG    1       15.053  30.859   8.853  0.00  0.00    +0.045 A 
ATOM      6  C   LIG    1       15.104  31.704   9.964  0.00  0.00    +0.004 A 
ENDROOT
BRANCH   4   7
ATOM      7  O   LIG    1       16.198  29.349   7.377  0.00  0.00    -0.507 OA
ATOM      8  H   LIG    1       17.052  29.429   6.921  0.00  0.00    +0.292 HD
ENDBRANCH   4   7
TORSDOF 1
ENDMDL
MODEL 5
REMARK VINA RESULT:      -4.4      7.495      8.103
REMARK  Name = 
REMARK                            x       y       z     vdW  Elec       q    Type
REMARK                         _______ _______ _______ _____ _____    ______ ____
ROOT
ATOM      1  C   LIG    1       12.751  36.440   5.825  0.00  0.00    +0.000 A 
ATOM      2  C   LIG    1       11.627  36.062   5.089  0.00  0.00    +0.004 A 
ATOM      3  C   LIG    1       11.764  35.684   3.754  0.00  0.00    +0.045 A 
ATOM      4  C   LIG    1       13.024  35.687   3.164  0.00  0.00    +0.117 A 
ATOM      5  C   LIG    1       14.151  36.062   3.889  0.00  0.00    +0.045 A 
ATOM      6  C   LIG    1       14.012  36.440   5.226  0.00  0.00    +0.004 A 
ENDROOT
BRANCH   4   7
ATOM      7  O   LIG    1       13.113  35.312   1.856  0.00  0.00    -0.507 OA
ATOM      8  H   LIG    1       14.048  35.157   1.643  0.00  0.00    +0.292 HD
ENDBRANCH   4   7
TORSDOF 1
ENDMDL
MODEL 6
REMARK VINA RESULT:      -4.4      2.162      3.275
REMARK  Name = 
REMARK                            x       y       z     vdW  Elec       q    Type
REMARK                         _______ _______ _______ _____ _____    ______ ____
ROOT
ATOM      1  C   LIG    1       15.199  31.651   9.885  0.00  0.00    +0.000 A 
ATOM      2  C   LIG    1       15.657  30.739   8.933  0.00  0.00    +0.004 A 
ATOM      3  C   LIG    1       16.995  30.345   8.933  0.00  0.00    +0.045 A 
ATOM      4  C   LIG    1       17.865  30.864   9.886  0.00  0.00    +0.117 A 
ATOM      5  C   LIG    1       17.419  31.772  10.841  0.00  0.00    +0.045 A 
ATOM      6  C   LIG    1       16.079  32.167  10.839  0.00  0.00    +0.004 A 
ENDROOT
BRANCH   4   7
ATOM      7  O   LIG    1       19.164  30.453   9.850  0.00  0.00    -0.507 OA
ATOM      8  H   LIG    1       19.354  29.959  10.665  0.00  0.00    +0.292 HD
ENDBRANCH   4   7
TORSDOF 1
ENDMDL
MODEL 7
REMARK VINA RESULT:      -4.3      2.481      3.287
REMARK  Name = 
REMARK                            x       y       z     vdW  Elec       q    Type
REMARK                         _______ _______ _______ _____ _____    ______ ____
ROOT
ATOM      1  C   LIG    1       16.179  29.235   8.008  0.00  0.00    +0.000 A 
ATOM      2  C   LIG    1       16.345  30.538   8.479  0.00  0.00    +0.004 A 
ATOM      3  C   LIG    1       17.137  30.777   9.602  0.00  0.00    +0.045 A 
ATOM      4  C   LIG    1       17.758  29.711  10.245  0.00  0.00    +0.117 A 
ATOM      5  C   LIG    1       17.600  28.408   9.782  0.00  0.00    +0.045 A 
ATOM      6  C   LIG    1       16.806  28.171   8.659  0.00  0.00    +0.004 A 
ENDROOT
BRANCH   4   7
ATOM      7  O   LIG    1       18.522  29.988  11.339  0.00  0.00    -0.507 OA
ATOM      8  H   LIG    1       18.141  30.757  11.794  0.00  0.00    +0.292 HD
ENDBRANCH   4   7
TORSDOF 1
ENDMDL
MODEL 8
REMARK VINA RESULT:      -4.3      2.515      3.545
REMARK  Name = 
REMARK                            x       y       z     vdW  Elec       q    Type
REMARK                         _______ _______ _______ _____ _____    ______ ____
ROOT
ATOM      1  C   LIG    1       16.171  29.224   7.990  0.00  0.00    +0.000 A 
ATOM      2  C   LIG    1       16.771  28.148   8.644  0.00  0.00    +0.004 A 
ATOM      3  C   LIG    1       17.575  28.372   9.761  0.00  0.00    +0.045 A 
ATOM      4  C   LIG    1       17.773  29.671  10.216  0.00  0.00    +0.117 A 
ATOM      5  C   LIG    1       17.179  30.752   9.572  0.00  0.00    +0.045 A 
ATOM      6  C   LIG    1       16.375  30.526   8.453  0.00  0.00    +0.004 A 
ENDROOT
BRANCH   4   7
ATOM      7  O   LIG    1       18.568  29.846  11.311  0.00  0.00    -0.507 OA
ATOM      8  H   LIG    1       18.046  30.284  12.003  0.00  0.00    +0.292 HD
ENDBRANCH   4   7
TORSDOF 1
ENDMDL
MODEL 9
REMARK VINA RESULT:      -4.3     14.260     14.802
REMARK  Name = 
REMARK                            x       y       z     vdW  Elec       q    Type
REMARK                         _______ _______ _______ _____ _____    ______ ____
ROOT
ATOM      1  C   LIG    1       12.056  17.582  11.586  0.00  0.00    +0.000 A 
ATOM      2  C   LIG    1       13.106  18.444  11.906  0.00  0.00    +0.004 A 
ATOM      3  C   LIG    1       14.415  17.965  11.935  0.00  0.00    +0.045 A 
ATOM      4  C   LIG    1       14.665  16.628  11.643  0.00  0.00    +0.117 A 
ATOM      5  C   LIG    1       13.626  15.761  11.321  0.00  0.00    +0.045 A 
ATOM      6  C   LIG    1       12.315  16.242  11.293  0.00  0.00    +0.004 A 
ENDROOT
BRANCH   4   7
ATOM      7  O   LIG    1       15.960  16.201  11.684  0.00  0.00    -0.507 OA
ATOM      8  H   LIG    1       16.055  15.577  12.423  0.00  0.00    +0.292 HD
ENDBRANCH   4   7
TORSDOF 1
ENDMDL
