MODEL 1
REMARK VINA RESULT:      -4.9      0.000      0.000
REMARK  Name = 
REMARK                            x       y       z     vdW  Elec       q    Type
REMARK                         _______ _______ _______ _____ _____    ______ ____
ROOT
ATOM      1  C   LIG    1       28.858  -1.621  27.848  0.00  0.00    +0.000 A 
ATOM      2  C   LIG    1       27.673  -0.887  27.898  0.00  0.00    +0.004 A 
ATOM      3  C   LIG    1       26.451  -1.545  28.036  0.00  0.00    +0.045 A 
ATOM      4  C   LIG    1       26.424  -2.933  28.124  0.00  0.00    +0.117 A 
ATOM      5  C   LIG    1       27.600  -3.675  28.076  0.00  0.00    +0.045 A 
ATOM      6  C   LIG    1       28.823  -3.014  27.937  0.00  0.00    +0.004 A 
ENDROOT
BRANCH   4   7
ATOM      7  O   LIG    1       25.209  -3.537  28.257  0.00  0.00    -0.507 OA
ATOM      8  H   LIG    1       24.529  -2.847  28.330  0.00  0.00    +0.292 HD
ENDBRANCH   4   7
TORSDOF 1
ENDMDL
MODEL 2
REMARK VINA RESULT:      -4.7      2.037      2.190
REMARK  Name = 
REMARK                            x       y       z     vdW  Elec       q    Type
REMARK                         _______ _______ _______ _____ _____    ______ ____
ROOT
ATOM      1  C   LIG    1       28.774  -0.842  27.507  0.00  0.00    +0.000 A 
ATOM      2  C   LIG    1       27.956   0.223  27.884  0.00  0.00    +0.004 A 
ATOM      3  C   LIG    1       26.618   0.246  27.492  0.00  0.00    +0.045 A 
ATOM      4  C   LIG    1       26.108  -0.797  26.726  0.00  0.00    +0.117 A 
ATOM      5  C   LIG    1       26.914  -1.865  26.346  0.00  0.00    +0.045 A 
ATOM      6  C   LIG    1       28.254  -1.886  26.739  0.00  0.00    +0.004 A 
ENDROOT
BRANCH   4   7
ATOM      7  O   LIG    1       24.795  -0.734  26.363  0.00  0.00    -0.507 OA
ATOM      8  H   LIG    1       24.515   0.196  26.378  0.00  0.00    +0.292 HD
ENDBRANCH   4   7
TORSDOF 1
ENDMDL
MODEL 3
REMARK VINA RESULT:      -4.7      2.100      2.797
REMARK  Name = 
REMARK                            x       y       z     vdW  Elec       q    Type
REMARK                         _______ _______ _______ _____ _____    ______ ____
ROOT
ATOM      1  C   LIG    1       28.798  -0.709  27.369  0.00  0.00    +0.000 A 
ATOM      2  C   LIG    1       28.248  -1.769  26.648  0.00  0.00    +0.004 A 
ATOM      3  C   LIG    1       26.889  -1.769  26.336  0.00  0.00    +0.045 A 
ATOM      4  C   LIG    1       26.089  -0.708  26.748  0.00  0.00    +0.117 A 
ATOM      5  C   LIG    1       26.627   0.355  27.467  0.00  0.00    +0.045 A 
ATOM      6  C   LIG    1       27.988   0.353  27.779  0.00  0.00    +0.004 A 
ENDROOT
BRANCH   4   7
ATOM      7  O   LIG    1       24.765  -0.748  26.424  0.00  0.00    -0.507 OA
ATOM      8  H   LIG    1       24.579  -0.027  25.801  0.00  0.00    +0.292 HD
ENDBRANCH   4   7
TORSDOF 1
ENDMDL
MODEL 4
REMARK VINA RESULT:      -4.5      1.591      2.428
REMARK  Name = 
REMARK                            x       y       z     vdW  Elec       q    Type
REMARK                         _______ _______ _______ _____ _____    ______ ____
ROOT
ATOM      1  C   LIG    1       27.114   0.181  27.391  0.00  0.00    +0.000 A 
ATOM      2  C   LIG    1       28.179  -0.285  26.620  0.00  0.00    +0.004 A 
ATOM      3  C   LIG    1       28.414  -1.655  26.512  0.00  0.00    +0.045 A 
ATOM      4  C   LIG    1       27.582  -2.550  27.175  0.00  0.00    +0.117 A 
ATOM      5  C   LIG    1       26.515  -2.097  27.946  0.00  0.00    +0.045 A 
ATOM      6  C   LIG    1       26.282  -0.724  28.054  0.00  0.00    +0.004 A 
ENDROOT
BRANCH   4   7
ATOM      7  O   LIG    1       27.848  -3.881  27.044  0.00  0.00    -0.507 OA
ATOM      8  H   LIG    1       27.063  -4.317  26.673  0.00  0.00    +0.292 HD
ENDBRANCH   4   7
TORSDOF 1
ENDMDL
MODEL 5
REMARK VINA RESULT:      -4.3      1.670      2.457
REMARK  Name = 
REMARK                            x       y       z     vdW  Elec       q    Type
REMARK                         _______ _______ _______ _____ _____    ______ ____
ROOT
ATOM      1  C   LIG    1       27.986  -3.718  28.078  0.00  0.00    +0.000 A 
ATOM      2  C   LIG    1       26.664  -3.277  28.034  0.00  0.00    +0.004 A 
ATOM      3  C   LIG    1       26.387  -1.916  27.907  0.00  0.00    +0.045 A 
ATOM      4  C   LIG    1       27.436  -1.006  27.824  0.00  0.00    +0.117 A 
ATOM      5  C   LIG    1       28.759  -1.435  27.865  0.00  0.00    +0.045 A 
ATOM      6  C   LIG    1       29.034  -2.799  27.993  0.00  0.00    +0.004 A 
ENDROOT
BRANCH   4   7
ATOM      7  O   LIG    1       27.122   0.315  27.701  0.00  0.00    -0.507 OA
ATOM      8  H   LIG    1       27.583   0.671  26.924  0.00  0.00    +0.292 HD
ENDBRANCH   4   7
TORSDOF 1
ENDMDL
MODEL 6
REMARK VINA RESULT:      -4.2      6.953      7.970
REMARK  Name = 
REMARK                            x       y       z     vdW  Elec       q    Type
REMARK                         _______ _______ _______ _____ _____    ______ ____
ROOT
ATOM      1  C   LIG    1       32.830   0.889  26.161  0.00  0.00    +0.000 A 
ATOM      2  C   LIG    1       32.977  -0.180  27.045  0.00  0.00    +0.004 A 
ATOM      3  C   LIG    1       33.768  -0.038  28.184  0.00  0.00    +0.045 A 
ATOM      4  C   LIG    1       34.405   1.173  28.433  0.00  0.00    +0.117 A 
ATOM      5  C   LIG    1       34.264   2.246  27.559  0.00  0.00    +0.045 A 
ATOM      6  C   LIG    1       33.473   2.102  26.418  0.00  0.00    +0.004 A 
ENDROOT
BRANCH   4   7
ATOM      7  O   LIG    1       35.170   1.268  29.558  0.00  0.00    -0.507 OA
ATOM      8  H   LIG    1       36.016   0.820  29.394  0.00  0.00    +0.292 HD
ENDBRANCH   4   7
TORSDOF 1
ENDMDL
MODEL 7
REMARK VINA RESULT:      -4.2      7.280      8.144
REMARK  Name = 
REMARK                            x       y       z     vdW  Elec       q    Type
REMARK                         _______ _______ _______ _____ _____    ______ ____
ROOT
ATOM      1  C   LIG    1       32.279   1.147  29.719  0.00  0.00    +0.000 A 
ATOM      2  C   LIG    1       32.182   1.730  28.455  0.00  0.00    +0.004 A 
ATOM      3  C   LIG    1       33.338   2.087  27.763  0.00  0.00    +0.045 A 
ATOM      4  C   LIG    1       34.583   1.856  28.339  0.00  0.00    +0.117 A 
ATOM      5  C   LIG    1       34.692   1.274  29.597  0.00  0.00    +0.045 A 
ATOM      6  C   LIG    1       33.532   0.919  30.290  0.00  0.00    +0.004 A 
ENDROOT
BRANCH   4   7
ATOM      7  O   LIG    1       35.689   2.221  27.627  0.00  0.00    -0.507 OA
ATOM      8  H   LIG    1       35.401   2.559  26.764  0.00  0.00    +0.292 HD
ENDBRANCH   4   7
TORSDOF 1
ENDMDL
MODEL 8
REMARK VINA RESULT:      -4.2      2.377      3.144
REMARK  Name = 
REMARK                            x       y       z     vdW  Elec       q    Type
REMARK                         _______ _______ _______ _____ _____    ______ ____
ROOT
ATOM      1  C   LIG    1       28.308  -3.475  27.984  0.00  0.00    +0.000 A 
ATOM      2  C   LIG    1       29.409  -2.652  28.224  0.00  0.00    +0.004 A 
ATOM      3  C   LIG    1       29.512  -1.420  27.579  0.00  0.00    +0.045 A 
ATOM      4  C   LIG    1       28.512  -1.019  26.699  0.00  0.00    +0.117 A 
ATOM      5  C   LIG    1       27.409  -1.831  26.453  0.00  0.00    +0.045 A 
ATOM      6  C   LIG    1       27.308  -3.065  27.099  0.00  0.00    +0.004 A 
ENDROOT
BRANCH   4   7
ATOM      7  O   LIG    1       28.652   0.192  26.088  0.00  0.00    -0.507 OA
ATOM      8  H   LIG    1       29.593   0.432  26.094  0.00  0.00    +0.292 HD
ENDBRANCH   4   7
TORSDOF 1
ENDMDL
MODEL 9
REMARK VINA RESULT:      -4.0      9.719     10.123
REMARK  Name = 
REMARK                            x       y       z     vdW  Elec       q    Type
REMARK                         _______ _______ _______ _____ _____    ______ ____
ROOT
ATOM      1  C   LIG    1       32.553  -2.070  17.682  0.00  0.00    +0.000 A 
ATOM      2  C   LIG    1       31.191  -1.991  17.387  0.00  0.00    +0.004 A 
ATOM      3  C   LIG    1       30.254  -2.509  18.281  0.00  0.00    +0.045 A 
ATOM      4  C   LIG    1       30.686  -3.103  19.462  0.00  0.00    +0.117 A 
ATOM      5  C   LIG    1       32.041  -3.186  19.766  0.00  0.00    +0.045 A 
ATOM      6  C   LIG    1       32.978  -2.667  18.870  0.00  0.00    +0.004 A 
ENDROOT
BRANCH   4   7
ATOM      7  O   LIG    1       29.737  -3.598  20.307  0.00  0.00    -0.507 OA
ATOM      8  H   LIG    1       28.895  -3.655  19.825  0.00  0.00    +0.292 HD
ENDBRANCH   4   7
TORSDOF 1
ENDMDL
