MODEL 1
REMARK VINA RESULT:      -5.3      0.000      0.000
REMARK  Name = 
REMARK                            x       y       z     vdW  Elec       q    Type
REMARK                         _______ _______ _______ _____ _____    ______ ____
ROOT
ATOM      1  C   LIG    1       65.978  57.500  88.188  0.00  0.00    +0.000 A 
ATOM      2  C   LIG    1       67.103  57.038  87.505  0.00  0.00    +0.004 A 
ATOM      3  C   LIG    1       67.756  55.885  87.938  0.00  0.00    +0.045 A 
ATOM      4  C   LIG    1       67.278  55.201  89.051  0.00  0.00    +0.117 A 
ATOM      5  C   LIG    1       66.156  55.651  89.739  0.00  0.00    +0.045 A 
ATOM      6  C   LIG    1       65.504  56.807  89.304  0.00  0.00    +0.004 A 
ENDROOT
BRANCH   4   7
ATOM      7  O   LIG    1       67.948  54.078  89.441  0.00  0.00    -0.507 OA
ATOM      8  H   LIG    1       68.175  53.564  88.649  0.00  0.00    +0.292 HD
ENDBRANCH   4   7
TORSDOF 1
ENDMDL
MODEL 2
REMARK VINA RESULT:      -4.9      8.114      9.261
REMARK  Name = 
REMARK                            x       y       z     vdW  Elec       q    Type
REMARK                         _______ _______ _______ _____ _____    ______ ____
ROOT
ATOM      1  C   LIG    1       68.606  47.460  94.486  0.00  0.00    +0.000 A 
ATOM      2  C   LIG    1       69.801  48.024  94.039  0.00  0.00    +0.004 A 
ATOM      3  C   LIG    1       69.822  48.772  92.863  0.00  0.00    +0.045 A 
ATOM      4  C   LIG    1       68.646  48.951  92.141  0.00  0.00    +0.117 A 
ATOM      5  C   LIG    1       67.448  48.394  92.578  0.00  0.00    +0.045 A 
ATOM      6  C   LIG    1       67.430  47.645  93.756  0.00  0.00    +0.004 A 
ENDROOT
BRANCH   4   7
ATOM      7  O   LIG    1       68.710  49.688  90.996  0.00  0.00    -0.507 OA
ATOM      8  H   LIG    1       68.511  50.614  91.214  0.00  0.00    +0.292 HD
ENDBRANCH   4   7
TORSDOF 1
ENDMDL
MODEL 3
REMARK VINA RESULT:      -4.9      8.147      9.394
REMARK  Name = 
REMARK                            x       y       z     vdW  Elec       q    Type
REMARK                         _______ _______ _______ _____ _____    ______ ____
ROOT
ATOM      1  C   LIG    1       68.527  47.407  94.494  0.00  0.00    +0.000 A 
ATOM      2  C   LIG    1       67.375  47.656  93.747  0.00  0.00    +0.004 A 
ATOM      3  C   LIG    1       67.450  48.424  92.586  0.00  0.00    +0.045 A 
ATOM      4  C   LIG    1       68.677  48.937  92.179  0.00  0.00    +0.117 A 
ATOM      5  C   LIG    1       69.832  48.694  92.914  0.00  0.00    +0.045 A 
ATOM      6  C   LIG    1       69.755  47.925  94.078  0.00  0.00    +0.004 A 
ENDROOT
BRANCH   4   7
ATOM      7  O   LIG    1       68.705  49.684  91.038  0.00  0.00    -0.507 OA
ATOM      8  H   LIG    1       68.827  49.086  90.282  0.00  0.00    +0.292 HD
ENDBRANCH   4   7
TORSDOF 1
ENDMDL
MODEL 4
REMARK VINA RESULT:      -4.6      1.846      3.127
REMARK  Name = 
REMARK                            x       y       z     vdW  Elec       q    Type
REMARK                         _______ _______ _______ _____ _____    ______ ____
ROOT
ATOM      1  C   LIG    1       68.327  54.992  88.655  0.00  0.00    +0.000 A 
ATOM      2  C   LIG    1       67.309  54.842  89.598  0.00  0.00    +0.004 A 
ATOM      3  C   LIG    1       66.194  55.677  89.557  0.00  0.00    +0.045 A 
ATOM      4  C   LIG    1       66.104  56.658  88.574  0.00  0.00    +0.117 A 
ATOM      5  C   LIG    1       67.112  56.816  87.629  0.00  0.00    +0.045 A 
ATOM      6  C   LIG    1       68.229  55.979  87.671  0.00  0.00    +0.004 A 
ENDROOT
BRANCH   4   7
ATOM      7  O   LIG    1       64.997  57.454  88.572  0.00  0.00    -0.507 OA
ATOM      8  H   LIG    1       64.658  57.512  89.480  0.00  0.00    +0.292 HD
ENDBRANCH   4   7
TORSDOF 1
ENDMDL
MODEL 5
REMARK VINA RESULT:      -4.6      8.436      9.552
REMARK  Name = 
REMARK                            x       y       z     vdW  Elec       q    Type
REMARK                         _______ _______ _______ _____ _____    ______ ____
ROOT
ATOM      1  C   LIG    1       67.646  48.348  92.723  0.00  0.00    +0.000 A 
ATOM      2  C   LIG    1       67.703  47.687  93.950  0.00  0.00    +0.004 A 
ATOM      3  C   LIG    1       68.811  47.852  94.780  0.00  0.00    +0.045 A 
ATOM      4  C   LIG    1       69.856  48.678  94.376  0.00  0.00    +0.117 A 
ATOM      5  C   LIG    1       69.809  49.343  93.154  0.00  0.00    +0.045 A 
ATOM      6  C   LIG    1       68.699  49.175  92.324  0.00  0.00    +0.004 A 
ENDROOT
BRANCH   4   7
ATOM      7  O   LIG    1       70.921  48.810  95.216  0.00  0.00    -0.507 OA
ATOM      8  H   LIG    1       70.592  48.833  96.130  0.00  0.00    +0.292 HD
ENDBRANCH   4   7
TORSDOF 1
ENDMDL
MODEL 6
REMARK VINA RESULT:      -4.5      8.396      9.373
REMARK  Name = 
REMARK                            x       y       z     vdW  Elec       q    Type
REMARK                         _______ _______ _______ _____ _____    ______ ____
ROOT
ATOM      1  C   LIG    1       67.662  48.367  92.609  0.00  0.00    +0.000 A 
ATOM      2  C   LIG    1       68.726  49.205  92.273  0.00  0.00    +0.004 A 
ATOM      3  C   LIG    1       69.807  49.341  93.144  0.00  0.00    +0.045 A 
ATOM      4  C   LIG    1       69.815  48.639  94.345  0.00  0.00    +0.117 A 
ATOM      5  C   LIG    1       68.760  47.800  94.689  0.00  0.00    +0.045 A 
ATOM      6  C   LIG    1       67.678  47.665  93.816  0.00  0.00    +0.004 A 
ENDROOT
BRANCH   4   7
ATOM      7  O   LIG    1       70.890  48.802  95.168  0.00  0.00    -0.507 OA
ATOM      8  H   LIG    1       70.645  49.421  95.875  0.00  0.00    +0.292 HD
ENDBRANCH   4   7
TORSDOF 1
ENDMDL
MODEL 7
REMARK VINA RESULT:      -4.5      2.374      3.185
REMARK  Name = 
REMARK                            x       y       z     vdW  Elec       q    Type
REMARK                         _______ _______ _______ _____ _____    ______ ____
ROOT
ATOM      1  C   LIG    1       69.406  55.219  87.698  0.00  0.00    +0.000 A 
ATOM      2  C   LIG    1       68.596  55.208  86.562  0.00  0.00    +0.004 A 
ATOM      3  C   LIG    1       67.480  56.042  86.495  0.00  0.00    +0.045 A 
ATOM      4  C   LIG    1       67.182  56.881  87.564  0.00  0.00    +0.117 A 
ATOM      5  C   LIG    1       67.984  56.901  88.701  0.00  0.00    +0.045 A 
ATOM      6  C   LIG    1       69.100  56.065  88.767  0.00  0.00    +0.004 A 
ENDROOT
BRANCH   4   7
ATOM      7  O   LIG    1       66.081  57.678  87.457  0.00  0.00    -0.507 OA
ATOM      8  H   LIG    1       66.304  58.559  87.801  0.00  0.00    +0.292 HD
ENDBRANCH   4   7
TORSDOF 1
ENDMDL
MODEL 8
REMARK VINA RESULT:      -4.4      3.096      4.061
REMARK  Name = 
REMARK                            x       y       z     vdW  Elec       q    Type
REMARK                         _______ _______ _______ _____ _____    ______ ____
ROOT
ATOM      1  C   LIG    1       69.057  56.141  88.896  0.00  0.00    +0.000 A 
ATOM      2  C   LIG    1       70.335  55.995  89.435  0.00  0.00    +0.004 A 
ATOM      3  C   LIG    1       71.303  55.264  88.746  0.00  0.00    +0.045 A 
ATOM      4  C   LIG    1       70.984  54.686  87.521  0.00  0.00    +0.117 A 
ATOM      5  C   LIG    1       69.713  54.826  86.974  0.00  0.00    +0.045 A 
ATOM      6  C   LIG    1       68.745  55.557  87.666  0.00  0.00    +0.004 A 
ENDROOT
BRANCH   4   7
ATOM      7  O   LIG    1       71.959  53.979  86.881  0.00  0.00    -0.507 OA
ATOM      8  H   LIG    1       72.781  54.053  87.395  0.00  0.00    +0.292 HD
ENDBRANCH   4   7
TORSDOF 1
ENDMDL
MODEL 9
REMARK VINA RESULT:      -4.4      8.355      9.685
REMARK  Name = 
REMARK                            x       y       z     vdW  Elec       q    Type
REMARK                         _______ _______ _______ _____ _____    ______ ____
ROOT
ATOM      1  C   LIG    1       70.398  48.731  94.879  0.00  0.00    +0.000 A 
ATOM      2  C   LIG    1       69.526  47.654  95.032  0.00  0.00    +0.004 A 
ATOM      3  C   LIG    1       68.413  47.535  94.200  0.00  0.00    +0.045 A 
ATOM      4  C   LIG    1       68.182  48.494  93.220  0.00  0.00    +0.117 A 
ATOM      5  C   LIG    1       69.046  49.572  93.058  0.00  0.00    +0.045 A 
ATOM      6  C   LIG    1       70.159  49.690  93.893  0.00  0.00    +0.004 A 
ENDROOT
BRANCH   4   7
ATOM      7  O   LIG    1       67.081  48.341  92.429  0.00  0.00    -0.507 OA
ATOM      8  H   LIG    1       66.520  47.647  92.814  0.00  0.00    +0.292 HD
ENDBRANCH   4   7
TORSDOF 1
ENDMDL
