MODEL 1
REMARK VINA RESULT:      -5.1      0.000      0.000
REMARK  Name = 
REMARK                            x       y       z     vdW  Elec       q    Type
REMARK                         _______ _______ _______ _____ _____    ______ ____
ROOT
ATOM      1  C   LIG    1       37.550  34.314   5.270  0.00  0.00    +0.000 A 
ATOM      2  C   LIG    1       38.155  34.796   6.431  0.00  0.00    +0.004 A 
ATOM      3  C   LIG    1       38.397  36.161   6.575  0.00  0.00    +0.045 A 
ATOM      4  C   LIG    1       38.032  37.036   5.557  0.00  0.00    +0.117 A 
ATOM      5  C   LIG    1       37.427  36.566   4.395  0.00  0.00    +0.045 A 
ATOM      6  C   LIG    1       37.186  35.198   4.252  0.00  0.00    +0.004 A 
ENDROOT
BRANCH   4   7
ATOM      7  O   LIG    1       38.288  38.363   5.738  0.00  0.00    -0.507 OA
ATOM      8  H   LIG    1       37.524  38.870   5.417  0.00  0.00    +0.292 HD
ENDBRANCH   4   7
TORSDOF 1
ENDMDL
MODEL 2
REMARK VINA RESULT:      -5.1      0.069      1.830
REMARK  Name = 
REMARK                            x       y       z     vdW  Elec       q    Type
REMARK                         _______ _______ _______ _____ _____    ______ ____
ROOT
ATOM      1  C   LIG    1       37.551  34.363   5.280  0.00  0.00    +0.000 A 
ATOM      2  C   LIG    1       37.200  35.236   4.250  0.00  0.00    +0.004 A 
ATOM      3  C   LIG    1       37.444  36.602   4.382  0.00  0.00    +0.045 A 
ATOM      4  C   LIG    1       38.037  37.086   5.543  0.00  0.00    +0.117 A 
ATOM      5  C   LIG    1       38.393  36.225   6.576  0.00  0.00    +0.045 A 
ATOM      6  C   LIG    1       38.147  34.857   6.443  0.00  0.00    +0.004 A 
ENDROOT
BRANCH   4   7
ATOM      7  O   LIG    1       38.256  38.430   5.631  0.00  0.00    -0.507 OA
ATOM      8  H   LIG    1       38.733  38.717   4.835  0.00  0.00    +0.292 HD
ENDBRANCH   4   7
TORSDOF 1
ENDMDL
MODEL 3
REMARK VINA RESULT:      -4.6      2.459      3.436
REMARK  Name = 
REMARK                            x       y       z     vdW  Elec       q    Type
REMARK                         _______ _______ _______ _____ _____    ______ ____
ROOT
ATOM      1  C   LIG    1       38.590  32.348   7.791  0.00  0.00    +0.000 A 
ATOM      2  C   LIG    1       39.112  33.164   6.788  0.00  0.00    +0.004 A 
ATOM      3  C   LIG    1       38.678  34.483   6.666  0.00  0.00    +0.045 A 
ATOM      4  C   LIG    1       37.724  34.977   7.551  0.00  0.00    +0.117 A 
ATOM      5  C   LIG    1       37.197  34.172   8.556  0.00  0.00    +0.045 A 
ATOM      6  C   LIG    1       37.633  32.851   8.675  0.00  0.00    +0.004 A 
ENDROOT
BRANCH   4   7
ATOM      7  O   LIG    1       37.326  36.272   7.396  0.00  0.00    -0.507 OA
ATOM      8  H   LIG    1       36.368  36.320   7.548  0.00  0.00    +0.292 HD
ENDBRANCH   4   7
TORSDOF 1
ENDMDL
MODEL 4
REMARK VINA RESULT:      -4.5      3.292      4.061
REMARK  Name = 
REMARK                            x       y       z     vdW  Elec       q    Type
REMARK                         _______ _______ _______ _____ _____    ______ ____
ROOT
ATOM      1  C   LIG    1       39.329  32.826   6.918  0.00  0.00    +0.000 A 
ATOM      2  C   LIG    1       38.855  32.036   7.966  0.00  0.00    +0.004 A 
ATOM      3  C   LIG    1       37.775  32.470   8.733  0.00  0.00    +0.045 A 
ATOM      4  C   LIG    1       37.175  33.692   8.446  0.00  0.00    +0.117 A 
ATOM      5  C   LIG    1       37.638  34.488   7.402  0.00  0.00    +0.045 A 
ATOM      6  C   LIG    1       38.721  34.051   6.636  0.00  0.00    +0.004 A 
ENDROOT
BRANCH   4   7
ATOM      7  O   LIG    1       36.122  34.080   9.221  0.00  0.00    -0.507 OA
ATOM      8  H   LIG    1       36.159  33.588  10.058  0.00  0.00    +0.292 HD
ENDBRANCH   4   7
TORSDOF 1
ENDMDL
MODEL 5
REMARK VINA RESULT:      -4.4      3.924      4.978
REMARK  Name = 
REMARK                            x       y       z     vdW  Elec       q    Type
REMARK                         _______ _______ _______ _____ _____    ______ ____
ROOT
ATOM      1  C   LIG    1       38.239  34.178   6.988  0.00  0.00    +0.000 A 
ATOM      2  C   LIG    1       38.993  33.005   6.995  0.00  0.00    +0.004 A 
ATOM      3  C   LIG    1       38.885  32.113   8.061  0.00  0.00    +0.045 A 
ATOM      4  C   LIG    1       38.022  32.401   9.113  0.00  0.00    +0.117 A 
ATOM      5  C   LIG    1       37.264  33.567   9.117  0.00  0.00    +0.045 A 
ATOM      6  C   LIG    1       37.374  34.460   8.048  0.00  0.00    +0.004 A 
ENDROOT
BRANCH   4   7
ATOM      7  O   LIG    1       37.948  31.502  10.137  0.00  0.00    -0.507 OA
ATOM      8  H   LIG    1       37.202  30.903   9.967  0.00  0.00    +0.292 HD
ENDBRANCH   4   7
TORSDOF 1
ENDMDL
MODEL 6
REMARK VINA RESULT:      -4.3      1.865      2.602
REMARK  Name = 
REMARK                            x       y       z     vdW  Elec       q    Type
REMARK                         _______ _______ _______ _____ _____    ______ ____
ROOT
ATOM      1  C   LIG    1       37.452  36.720   4.550  0.00  0.00    +0.000 A 
ATOM      2  C   LIG    1       38.039  37.009   5.783  0.00  0.00    +0.004 A 
ATOM      3  C   LIG    1       38.347  35.976   6.667  0.00  0.00    +0.045 A 
ATOM      4  C   LIG    1       38.065  34.660   6.312  0.00  0.00    +0.117 A 
ATOM      5  C   LIG    1       37.481  34.361   5.085  0.00  0.00    +0.045 A 
ATOM      6  C   LIG    1       37.173  35.397   4.201  0.00  0.00    +0.004 A 
ENDROOT
BRANCH   4   7
ATOM      7  O   LIG    1       38.380  33.680   7.207  0.00  0.00    -0.507 OA
ATOM      8  H   LIG    1       37.583  33.154   7.381  0.00  0.00    +0.292 HD
ENDBRANCH   4   7
TORSDOF 1
ENDMDL
MODEL 7
REMARK VINA RESULT:      -4.3      2.198      3.077
REMARK  Name = 
REMARK                            x       y       z     vdW  Elec       q    Type
REMARK                         _______ _______ _______ _____ _____    ______ ____
ROOT
ATOM      1  C   LIG    1       37.556  32.950   8.625  0.00  0.00    +0.000 A 
ATOM      2  C   LIG    1       37.047  34.128   9.174  0.00  0.00    +0.004 A 
ATOM      3  C   LIG    1       37.230  35.341   8.512  0.00  0.00    +0.045 A 
ATOM      4  C   LIG    1       37.922  35.368   7.305  0.00  0.00    +0.117 A 
ATOM      5  C   LIG    1       38.433  34.200   6.748  0.00  0.00    +0.045 A 
ATOM      6  C   LIG    1       38.249  32.986   7.413  0.00  0.00    +0.004 A 
ENDROOT
BRANCH   4   7
ATOM      7  O   LIG    1       38.080  36.576   6.691  0.00  0.00    -0.507 OA
ATOM      8  H   LIG    1       38.873  36.535   6.132  0.00  0.00    +0.292 HD
ENDBRANCH   4   7
TORSDOF 1
ENDMDL
MODEL 8
REMARK VINA RESULT:      -4.2     12.583     13.528
REMARK  Name = 
REMARK                            x       y       z     vdW  Elec       q    Type
REMARK                         _______ _______ _______ _____ _____    ______ ____
ROOT
ATOM      1  C   LIG    1       40.926  25.748  10.657  0.00  0.00    +0.000 A 
ATOM      2  C   LIG    1       42.303  25.773  10.435  0.00  0.00    +0.004 A 
ATOM      3  C   LIG    1       43.179  25.362  11.439  0.00  0.00    +0.045 A 
ATOM      4  C   LIG    1       42.670  24.927  12.659  0.00  0.00    +0.117 A 
ATOM      5  C   LIG    1       41.299  24.897  12.891  0.00  0.00    +0.045 A 
ATOM      6  C   LIG    1       40.424  25.310  11.884  0.00  0.00    +0.004 A 
ENDROOT
BRANCH   4   7
ATOM      7  O   LIG    1       43.561  24.535  13.614  0.00  0.00    -0.507 OA
ATOM      8  H   LIG    1       44.425  24.399  13.192  0.00  0.00    +0.292 HD
ENDBRANCH   4   7
TORSDOF 1
ENDMDL
MODEL 9
REMARK VINA RESULT:      -4.2      3.814      4.720
REMARK  Name = 
REMARK                            x       y       z     vdW  Elec       q    Type
REMARK                         _______ _______ _______ _____ _____    ______ ____
ROOT
ATOM      1  C   LIG    1       37.657  34.715   7.432  0.00  0.00    +0.000 A 
ATOM      2  C   LIG    1       37.161  34.147   8.606  0.00  0.00    +0.004 A 
ATOM      3  C   LIG    1       37.635  32.908   9.035  0.00  0.00    +0.045 A 
ATOM      4  C   LIG    1       38.602  32.245   8.286  0.00  0.00    +0.117 A 
ATOM      5  C   LIG    1       39.104  32.802   7.114  0.00  0.00    +0.045 A 
ATOM      6  C   LIG    1       38.627  34.043   6.686  0.00  0.00    +0.004 A 
ENDROOT
BRANCH   4   7
ATOM      7  O   LIG    1       39.036  31.035   8.740  0.00  0.00    -0.507 OA
ATOM      8  H   LIG    1       39.458  30.563   8.003  0.00  0.00    +0.292 HD
ENDBRANCH   4   7
TORSDOF 1
ENDMDL
