MODEL 1
REMARK VINA RESULT:      -5.1      0.000      0.000
REMARK  Name = 
REMARK                            x       y       z     vdW  Elec       q    Type
REMARK                         _______ _______ _______ _____ _____    ______ ____
ROOT
ATOM      1  C   LIG    1        2.675   3.818  23.539  0.00  0.00    +0.000 A 
ATOM      2  C   LIG    1        3.325   2.734  22.948  0.00  0.00    +0.004 A 
ATOM      3  C   LIG    1        3.474   2.682  21.563  0.00  0.00    +0.045 A 
ATOM      4  C   LIG    1        2.973   3.715  20.778  0.00  0.00    +0.117 A 
ATOM      5  C   LIG    1        2.324   4.801  21.357  0.00  0.00    +0.045 A 
ATOM      6  C   LIG    1        2.174   4.851  22.744  0.00  0.00    +0.004 A 
ENDROOT
BRANCH   4   7
ATOM      7  O   LIG    1        3.139   3.624  19.428  0.00  0.00    -0.507 OA
ATOM      8  H   LIG    1        3.256   4.520  19.071  0.00  0.00    +0.292 HD
ENDBRANCH   4   7
TORSDOF 1
ENDMDL
MODEL 2
REMARK VINA RESULT:      -5.0      1.511      2.317
REMARK  Name = 
REMARK                            x       y       z     vdW  Elec       q    Type
REMARK                         _______ _______ _______ _____ _____    ______ ____
ROOT
ATOM      1  C   LIG    1        2.076   5.207  21.869  0.00  0.00    +0.000 A 
ATOM      2  C   LIG    1        2.751   4.660  20.778  0.00  0.00    +0.004 A 
ATOM      3  C   LIG    1        3.556   3.534  20.949  0.00  0.00    +0.045 A 
ATOM      4  C   LIG    1        3.681   2.964  22.212  0.00  0.00    +0.117 A 
ATOM      5  C   LIG    1        3.011   3.501  23.307  0.00  0.00    +0.045 A 
ATOM      6  C   LIG    1        2.206   4.628  23.134  0.00  0.00    +0.004 A 
ENDROOT
BRANCH   4   7
ATOM      7  O   LIG    1        4.479   1.865  22.336  0.00  0.00    -0.507 OA
ATOM      8  H   LIG    1        5.314   2.038  21.871  0.00  0.00    +0.292 HD
ENDBRANCH   4   7
TORSDOF 1
ENDMDL
MODEL 3
REMARK VINA RESULT:      -5.0      1.505      2.271
REMARK  Name = 
REMARK                            x       y       z     vdW  Elec       q    Type
REMARK                         _______ _______ _______ _____ _____    ______ ____
ROOT
ATOM      1  C   LIG    1        2.015   5.149  22.007  0.00  0.00    +0.000 A 
ATOM      2  C   LIG    1        2.217   4.521  23.236  0.00  0.00    +0.004 A 
ATOM      3  C   LIG    1        3.058   3.412  23.322  0.00  0.00    +0.045 A 
ATOM      4  C   LIG    1        3.691   2.939  22.177  0.00  0.00    +0.117 A 
ATOM      5  C   LIG    1        3.498   3.559  20.946  0.00  0.00    +0.045 A 
ATOM      6  C   LIG    1        2.654   4.669  20.862  0.00  0.00    +0.004 A 
ENDROOT
BRANCH   4   7
ATOM      7  O   LIG    1        4.504   1.852  22.305  0.00  0.00    -0.507 OA
ATOM      8  H   LIG    1        4.289   1.222  21.598  0.00  0.00    +0.292 HD
ENDBRANCH   4   7
TORSDOF 1
ENDMDL
MODEL 4
REMARK VINA RESULT:      -4.8      7.422      8.315
REMARK  Name = 
REMARK                            x       y       z     vdW  Elec       q    Type
REMARK                         _______ _______ _______ _____ _____    ______ ____
ROOT
ATOM      1  C   LIG    1        1.103  -3.255  23.421  0.00  0.00    +0.000 A 
ATOM      2  C   LIG    1        0.673  -4.331  24.197  0.00  0.00    +0.004 A 
ATOM      3  C   LIG    1        0.257  -4.121  25.511  0.00  0.00    +0.045 A 
ATOM      4  C   LIG    1        0.274  -2.834  26.040  0.00  0.00    +0.117 A 
ATOM      5  C   LIG    1        0.700  -1.753  25.275  0.00  0.00    +0.045 A 
ATOM      6  C   LIG    1        1.117  -1.966  23.959  0.00  0.00    +0.004 A 
ENDROOT
BRANCH   4   7
ATOM      7  O   LIG    1       -0.140  -2.673  27.329  0.00  0.00    -0.507 OA
ATOM      8  H   LIG    1       -0.682  -1.869  27.380  0.00  0.00    +0.292 HD
ENDBRANCH   4   7
TORSDOF 1
ENDMDL
MODEL 5
REMARK VINA RESULT:      -4.3     16.194     17.077
REMARK  Name = 
REMARK                            x       y       z     vdW  Elec       q    Type
REMARK                         _______ _______ _______ _____ _____    ______ ____
ROOT
ATOM      1  C   LIG    1       14.732  -3.996  15.035  0.00  0.00    +0.000 A 
ATOM      2  C   LIG    1       14.161  -5.267  15.111  0.00  0.00    +0.004 A 
ATOM      3  C   LIG    1       14.317  -6.165  14.055  0.00  0.00    +0.045 A 
ATOM      4  C   LIG    1       15.043  -5.785  12.931  0.00  0.00    +0.117 A 
ATOM      5  C   LIG    1       15.617  -4.520  12.845  0.00  0.00    +0.045 A 
ATOM      6  C   LIG    1       15.459  -3.622  13.903  0.00  0.00    +0.004 A 
ENDROOT
BRANCH   4   7
ATOM      7  O   LIG    1       15.170  -6.693  11.921  0.00  0.00    -0.507 OA
ATOM      8  H   LIG    1       16.028  -6.552  11.487  0.00  0.00    +0.292 HD
ENDBRANCH   4   7
TORSDOF 1
ENDMDL
MODEL 6
REMARK VINA RESULT:      -4.2      1.566      2.315
REMARK  Name = 
REMARK                            x       y       z     vdW  Elec       q    Type
REMARK                         _______ _______ _______ _____ _____    ______ ____
ROOT
ATOM      1  C   LIG    1        2.283   4.955  21.641  0.00  0.00    +0.000 A 
ATOM      2  C   LIG    1        1.805   4.111  22.644  0.00  0.00    +0.004 A 
ATOM      3  C   LIG    1        2.139   2.757  22.632  0.00  0.00    +0.045 A 
ATOM      4  C   LIG    1        2.950   2.258  21.618  0.00  0.00    +0.117 A 
ATOM      5  C   LIG    1        3.433   3.091  20.614  0.00  0.00    +0.045 A 
ATOM      6  C   LIG    1        3.096   4.446  20.627  0.00  0.00    +0.004 A 
ENDROOT
BRANCH   4   7
ATOM      7  O   LIG    1        3.251   0.928  21.643  0.00  0.00    -0.507 OA
ATOM      8  H   LIG    1        4.071   0.788  21.141  0.00  0.00    +0.292 HD
ENDBRANCH   4   7
TORSDOF 1
ENDMDL
MODEL 7
REMARK VINA RESULT:      -4.1      8.073      9.011
REMARK  Name = 
REMARK                            x       y       z     vdW  Elec       q    Type
REMARK                         _______ _______ _______ _____ _____    ______ ____
ROOT
ATOM      1  C   LIG    1       -2.635   8.337  23.549  0.00  0.00    +0.000 A 
ATOM      2  C   LIG    1       -2.635   9.732  23.542  0.00  0.00    +0.004 A 
ATOM      3  C   LIG    1       -2.641  10.435  24.746  0.00  0.00    +0.045 A 
ATOM      4  C   LIG    1       -2.645   9.737  25.949  0.00  0.00    +0.117 A 
ATOM      5  C   LIG    1       -2.644   8.345  25.968  0.00  0.00    +0.045 A 
ATOM      6  C   LIG    1       -2.640   7.644  24.761  0.00  0.00    +0.004 A 
ENDROOT
BRANCH   4   7
ATOM      7  O   LIG    1       -2.652  10.462  27.104  0.00  0.00    -0.507 OA
ATOM      8  H   LIG    1       -1.767  10.415  27.502  0.00  0.00    +0.292 HD
ENDBRANCH   4   7
TORSDOF 1
ENDMDL
MODEL 8
REMARK VINA RESULT:      -4.1      6.054      6.832
REMARK  Name = 
REMARK                            x       y       z     vdW  Elec       q    Type
REMARK                         _______ _______ _______ _____ _____    ______ ____
ROOT
ATOM      1  C   LIG    1        1.111  -0.409  23.184  0.00  0.00    +0.000 A 
ATOM      2  C   LIG    1        1.585  -1.387  22.308  0.00  0.00    +0.004 A 
ATOM      3  C   LIG    1        1.571  -2.729  22.689  0.00  0.00    +0.045 A 
ATOM      4  C   LIG    1        1.083  -3.082  23.943  0.00  0.00    +0.117 A 
ATOM      5  C   LIG    1        0.607  -2.116  24.823  0.00  0.00    +0.045 A 
ATOM      6  C   LIG    1        0.623  -0.773  24.440  0.00  0.00    +0.004 A 
ENDROOT
BRANCH   4   7
ATOM      7  O   LIG    1        1.089  -4.405  24.276  0.00  0.00    -0.507 OA
ATOM      8  H   LIG    1        1.115  -4.928  23.458  0.00  0.00    +0.292 HD
ENDBRANCH   4   7
TORSDOF 1
ENDMDL
MODEL 9
REMARK VINA RESULT:      -4.0     10.672     11.591
REMARK  Name = 
REMARK                            x       y       z     vdW  Elec       q    Type
REMARK                         _______ _______ _______ _____ _____    ______ ____
ROOT
ATOM      1  C   LIG    1        8.010  -4.224  26.254  0.00  0.00    +0.000 A 
ATOM      2  C   LIG    1        8.714  -3.769  25.139  0.00  0.00    +0.004 A 
ATOM      3  C   LIG    1       10.097  -3.602  25.209  0.00  0.00    +0.045 A 
ATOM      4  C   LIG    1       10.765  -3.892  26.395  0.00  0.00    +0.117 A 
ATOM      5  C   LIG    1       10.072  -4.347  27.512  0.00  0.00    +0.045 A 
ATOM      6  C   LIG    1        8.688  -4.513  27.440  0.00  0.00    +0.004 A 
ENDROOT
BRANCH   4   7
ATOM      7  O   LIG    1       12.117  -3.713  26.421  0.00  0.00    -0.507 OA
ATOM      8  H   LIG    1       12.486  -4.262  27.132  0.00  0.00    +0.292 HD
ENDBRANCH   4   7
TORSDOF 1
ENDMDL
