MODEL 1
REMARK VINA RESULT:      -5.0      0.000      0.000
REMARK  Name = 
REMARK                            x       y       z     vdW  Elec       q    Type
REMARK                         _______ _______ _______ _____ _____    ______ ____
ROOT
ATOM      1  C   LIG    1        2.649  18.101  33.760  0.00  0.00    +0.000 A 
ATOM      2  C   LIG    1        1.961  17.252  34.627  0.00  0.00    +0.004 A 
ATOM      3  C   LIG    1        1.555  15.991  34.191  0.00  0.00    +0.045 A 
ATOM      4  C   LIG    1        1.841  15.588  32.891  0.00  0.00    +0.117 A 
ATOM      5  C   LIG    1        2.527  16.426  32.018  0.00  0.00    +0.045 A 
ATOM      6  C   LIG    1        2.932  17.689  32.456  0.00  0.00    +0.004 A 
ENDROOT
BRANCH   4   7
ATOM      7  O   LIG    1        1.424  14.348  32.505  0.00  0.00    -0.507 OA
ATOM      8  H   LIG    1        1.466  13.756  33.274  0.00  0.00    +0.292 HD
ENDBRANCH   4   7
TORSDOF 1
ENDMDL
MODEL 2
REMARK VINA RESULT:      -4.6     10.698     11.854
REMARK  Name = 
REMARK                            x       y       z     vdW  Elec       q    Type
REMARK                         _______ _______ _______ _____ _____    ______ ____
ROOT
ATOM      1  C   LIG    1        7.322  21.325  26.351  0.00  0.00    +0.000 A 
ATOM      2  C   LIG    1        8.092  20.436  25.600  0.00  0.00    +0.004 A 
ATOM      3  C   LIG    1        9.186  20.905  24.873  0.00  0.00    +0.045 A 
ATOM      4  C   LIG    1        9.502  22.259  24.904  0.00  0.00    +0.117 A 
ATOM      5  C   LIG    1        8.742  23.154  25.650  0.00  0.00    +0.045 A 
ATOM      6  C   LIG    1        7.646  22.683  26.377  0.00  0.00    +0.004 A 
ENDROOT
BRANCH   4   7
ATOM      7  O   LIG    1       10.579  22.676  24.178  0.00  0.00    -0.507 OA
ATOM      8  H   LIG    1       10.259  23.206  23.429  0.00  0.00    +0.292 HD
ENDBRANCH   4   7
TORSDOF 1
ENDMDL
MODEL 3
REMARK VINA RESULT:      -4.6      0.874      2.004
REMARK  Name = 
REMARK                            x       y       z     vdW  Elec       q    Type
REMARK                         _______ _______ _______ _____ _____    ______ ____
ROOT
ATOM      1  C   LIG    1        3.304  18.093  32.556  0.00  0.00    +0.000 A 
ATOM      2  C   LIG    1        2.930  16.988  31.792  0.00  0.00    +0.004 A 
ATOM      3  C   LIG    1        2.163  15.973  32.363  0.00  0.00    +0.045 A 
ATOM      4  C   LIG    1        1.774  16.072  33.695  0.00  0.00    +0.117 A 
ATOM      5  C   LIG    1        2.140  17.171  34.466  0.00  0.00    +0.045 A 
ATOM      6  C   LIG    1        2.910  18.185  33.893  0.00  0.00    +0.004 A 
ENDROOT
BRANCH   4   7
ATOM      7  O   LIG    1        1.026  15.058  34.215  0.00  0.00    -0.507 OA
ATOM      8  H   LIG    1        1.567  14.575  34.860  0.00  0.00    +0.292 HD
ENDBRANCH   4   7
TORSDOF 1
ENDMDL
MODEL 4
REMARK VINA RESULT:      -4.5      2.103      2.756
REMARK  Name = 
REMARK                            x       y       z     vdW  Elec       q    Type
REMARK                         _______ _______ _______ _____ _____    ______ ____
ROOT
ATOM      1  C   LIG    1        2.065  15.750  32.509  0.00  0.00    +0.000 A 
ATOM      2  C   LIG    1        1.759  15.724  33.870  0.00  0.00    +0.004 A 
ATOM      3  C   LIG    1        2.067  16.821  34.674  0.00  0.00    +0.045 A 
ATOM      4  C   LIG    1        2.679  17.936  34.111  0.00  0.00    +0.117 A 
ATOM      5  C   LIG    1        2.987  17.973  32.755  0.00  0.00    +0.045 A 
ATOM      6  C   LIG    1        2.678  16.874  31.951  0.00  0.00    +0.004 A 
ENDROOT
BRANCH   4   7
ATOM      7  O   LIG    1        2.964  18.986  34.933  0.00  0.00    -0.507 OA
ATOM      8  H   LIG    1        2.153  19.506  35.061  0.00  0.00    +0.292 HD
ENDBRANCH   4   7
TORSDOF 1
ENDMDL
MODEL 5
REMARK VINA RESULT:      -4.5      1.767      2.817
REMARK  Name = 
REMARK                            x       y       z     vdW  Elec       q    Type
REMARK                         _______ _______ _______ _____ _____    ______ ____
ROOT
ATOM      1  C   LIG    1        1.566  16.027  34.220  0.00  0.00    +0.000 A 
ATOM      2  C   LIG    1        1.771  15.563  32.920  0.00  0.00    +0.004 A 
ATOM      3  C   LIG    1        2.477  16.343  32.005  0.00  0.00    +0.045 A 
ATOM      4  C   LIG    1        2.974  17.581  32.397  0.00  0.00    +0.117 A 
ATOM      5  C   LIG    1        2.778  18.053  33.691  0.00  0.00    +0.045 A 
ATOM      6  C   LIG    1        2.069  17.271  34.606  0.00  0.00    +0.004 A 
ENDROOT
BRANCH   4   7
ATOM      7  O   LIG    1        3.658  18.312  31.471  0.00  0.00    -0.507 OA
ATOM      8  H   LIG    1        4.429  18.715  31.904  0.00  0.00    +0.292 HD
ENDBRANCH   4   7
TORSDOF 1
ENDMDL
MODEL 6
REMARK VINA RESULT:      -4.5      6.658      7.819
REMARK  Name = 
REMARK                            x       y       z     vdW  Elec       q    Type
REMARK                         _______ _______ _______ _____ _____    ______ ____
ROOT
ATOM      1  C   LIG    1        5.864  19.551  30.244  0.00  0.00    +0.000 A 
ATOM      2  C   LIG    1        5.415  19.688  28.931  0.00  0.00    +0.004 A 
ATOM      3  C   LIG    1        6.294  20.110  27.934  0.00  0.00    +0.045 A 
ATOM      4  C   LIG    1        7.617  20.392  28.258  0.00  0.00    +0.117 A 
ATOM      5  C   LIG    1        8.076  20.258  29.565  0.00  0.00    +0.045 A 
ATOM      6  C   LIG    1        7.194  19.836  30.562  0.00  0.00    +0.004 A 
ENDROOT
BRANCH   4   7
ATOM      7  O   LIG    1        8.442  20.804  27.254  0.00  0.00    -0.507 OA
ATOM      8  H   LIG    1        8.638  20.041  26.685  0.00  0.00    +0.292 HD
ENDBRANCH   4   7
TORSDOF 1
ENDMDL
MODEL 7
REMARK VINA RESULT:      -4.5      6.538      7.629
REMARK  Name = 
REMARK                            x       y       z     vdW  Elec       q    Type
REMARK                         _______ _______ _______ _____ _____    ______ ____
ROOT
ATOM      1  C   LIG    1        5.830  19.043  30.144  0.00  0.00    +0.000 A 
ATOM      2  C   LIG    1        7.061  19.515  30.600  0.00  0.00    +0.004 A 
ATOM      3  C   LIG    1        7.929  20.161  29.720  0.00  0.00    +0.045 A 
ATOM      4  C   LIG    1        7.559  20.330  28.390  0.00  0.00    +0.117 A 
ATOM      5  C   LIG    1        6.334  19.865  27.924  0.00  0.00    +0.045 A 
ATOM      6  C   LIG    1        5.466  19.218  28.807  0.00  0.00    +0.004 A 
ENDROOT
BRANCH   4   7
ATOM      7  O   LIG    1        8.438  20.966  27.563  0.00  0.00    -0.507 OA
ATOM      8  H   LIG    1        9.288  20.497  27.598  0.00  0.00    +0.292 HD
ENDBRANCH   4   7
TORSDOF 1
ENDMDL
MODEL 8
REMARK VINA RESULT:      -4.4      2.263      3.243
REMARK  Name = 
REMARK                            x       y       z     vdW  Elec       q    Type
REMARK                         _______ _______ _______ _____ _____    ______ ____
ROOT
ATOM      1  C   LIG    1        3.157  16.904  31.151  0.00  0.00    +0.000 A 
ATOM      2  C   LIG    1        2.706  18.157  30.734  0.00  0.00    +0.004 A 
ATOM      3  C   LIG    1        1.608  18.745  31.360  0.00  0.00    +0.045 A 
ATOM      4  C   LIG    1        0.969  18.076  32.399  0.00  0.00    +0.117 A 
ATOM      5  C   LIG    1        1.411  16.827  32.823  0.00  0.00    +0.045 A 
ATOM      6  C   LIG    1        2.510  16.239  32.194  0.00  0.00    +0.004 A 
ENDROOT
BRANCH   4   7
ATOM      7  O   LIG    1       -0.102  18.687  32.982  0.00  0.00    -0.507 OA
ATOM      8  H   LIG    1       -0.904  18.191  32.749  0.00  0.00    +0.292 HD
ENDBRANCH   4   7
TORSDOF 1
ENDMDL
MODEL 9
REMARK VINA RESULT:      -4.4      5.362      6.252
REMARK  Name = 
REMARK                            x       y       z     vdW  Elec       q    Type
REMARK                         _______ _______ _______ _____ _____    ______ ____
ROOT
ATOM      1  C   LIG    1        4.969  17.738  29.704  0.00  0.00    +0.000 A 
ATOM      2  C   LIG    1        5.623  17.677  30.935  0.00  0.00    +0.004 A 
ATOM      3  C   LIG    1        6.575  18.641  31.266  0.00  0.00    +0.045 A 
ATOM      4  C   LIG    1        6.865  19.659  30.364  0.00  0.00    +0.117 A 
ATOM      5  C   LIG    1        6.218  19.730  29.134  0.00  0.00    +0.045 A 
ATOM      6  C   LIG    1        5.266  18.764  28.804  0.00  0.00    +0.004 A 
ENDROOT
BRANCH   4   7
ATOM      7  O   LIG    1        7.803  20.580  30.728  0.00  0.00    -0.507 OA
ATOM      8  H   LIG    1        7.366  21.441  30.827  0.00  0.00    +0.292 HD
ENDBRANCH   4   7
TORSDOF 1
ENDMDL
