MODEL 1
REMARK VINA RESULT:      -4.7      0.000      0.000
REMARK  Name = 
REMARK                            x       y       z     vdW  Elec       q    Type
REMARK                         _______ _______ _______ _____ _____    ______ ____
ROOT
ATOM      1  C   LIG    1       14.319  -0.008  -8.630  0.00  0.00    +0.000 A 
ATOM      2  C   LIG    1       15.512   0.681  -8.405  0.00  0.00    +0.004 A 
ATOM      3  C   LIG    1       16.332   1.023  -9.480  0.00  0.00    +0.045 A 
ATOM      4  C   LIG    1       15.953   0.674 -10.772  0.00  0.00    +0.117 A 
ATOM      5  C   LIG    1       14.765  -0.011 -11.008  0.00  0.00    +0.045 A 
ATOM      6  C   LIG    1       13.946  -0.354  -9.930  0.00  0.00    +0.004 A 
ENDROOT
BRANCH   4   7
ATOM      7  O   LIG    1       16.784   1.027 -11.794  0.00  0.00    -0.507 OA
ATOM      8  H   LIG    1       17.553   0.433 -11.785  0.00  0.00    +0.292 HD
ENDBRANCH   4   7
TORSDOF 1
ENDMDL
MODEL 2
REMARK VINA RESULT:      -4.7      1.571      2.117
REMARK  Name = 
REMARK                            x       y       z     vdW  Elec       q    Type
REMARK                         _______ _______ _______ _____ _____    ______ ____
ROOT
ATOM      1  C   LIG    1       15.767   0.576  -7.336  0.00  0.00    +0.000 A 
ATOM      2  C   LIG    1       16.675   0.108  -8.285  0.00  0.00    +0.004 A 
ATOM      3  C   LIG    1       16.220  -0.325  -9.530  0.00  0.00    +0.045 A 
ATOM      4  C   LIG    1       14.859  -0.286  -9.816  0.00  0.00    +0.117 A 
ATOM      5  C   LIG    1       13.945   0.180  -8.877  0.00  0.00    +0.045 A 
ATOM      6  C   LIG    1       14.403   0.613  -7.631  0.00  0.00    +0.004 A 
ENDROOT
BRANCH   4   7
ATOM      7  O   LIG    1       14.456  -0.720 -11.045  0.00  0.00    -0.507 OA
ATOM      8  H   LIG    1       13.507  -0.539 -11.139  0.00  0.00    +0.292 HD
ENDBRANCH   4   7
TORSDOF 1
ENDMDL
MODEL 3
REMARK VINA RESULT:      -4.5     16.766     17.646
REMARK  Name = 
REMARK                            x       y       z     vdW  Elec       q    Type
REMARK                         _______ _______ _______ _____ _____    ______ ____
ROOT
ATOM      1  C   LIG    1        3.624   6.286  -0.796  0.00  0.00    +0.000 A 
ATOM      2  C   LIG    1        2.731   6.331   0.275  0.00  0.00    +0.004 A 
ATOM      3  C   LIG    1        2.072   7.520   0.584  0.00  0.00    +0.045 A 
ATOM      4  C   LIG    1        2.310   8.657  -0.182  0.00  0.00    +0.117 A 
ATOM      5  C   LIG    1        3.197   8.623  -1.254  0.00  0.00    +0.045 A 
ATOM      6  C   LIG    1        3.857   7.432  -1.560  0.00  0.00    +0.004 A 
ENDROOT
BRANCH   4   7
ATOM      7  O   LIG    1        1.645   9.799   0.154  0.00  0.00    -0.507 OA
ATOM      8  H   LIG    1        2.289  10.523   0.219  0.00  0.00    +0.292 HD
ENDBRANCH   4   7
TORSDOF 1
ENDMDL
MODEL 4
REMARK VINA RESULT:      -4.5     16.743     17.622
REMARK  Name = 
REMARK                            x       y       z     vdW  Elec       q    Type
REMARK                         _______ _______ _______ _____ _____    ______ ____
ROOT
ATOM      1  C   LIG    1        3.650   6.324  -0.893  0.00  0.00    +0.000 A 
ATOM      2  C   LIG    1        3.844   7.494  -1.627  0.00  0.00    +0.004 A 
ATOM      3  C   LIG    1        3.168   8.661  -1.269  0.00  0.00    +0.045 A 
ATOM      4  C   LIG    1        2.304   8.648  -0.179  0.00  0.00    +0.117 A 
ATOM      5  C   LIG    1        2.105   7.487   0.561  0.00  0.00    +0.045 A 
ATOM      6  C   LIG    1        2.781   6.319   0.200  0.00  0.00    +0.004 A 
ENDROOT
BRANCH   4   7
ATOM      7  O   LIG    1        1.662   9.809   0.135  0.00  0.00    -0.507 OA
ATOM      8  H   LIG    1        1.714  10.406  -0.629  0.00  0.00    +0.292 HD
ENDBRANCH   4   7
TORSDOF 1
ENDMDL
MODEL 5
REMARK VINA RESULT:      -4.5      7.286      8.394
REMARK  Name = 
REMARK                            x       y       z     vdW  Elec       q    Type
REMARK                         _______ _______ _______ _____ _____    ______ ____
ROOT
ATOM      1  C   LIG    1       16.787   1.789  -2.104  0.00  0.00    +0.000 A 
ATOM      2  C   LIG    1       15.957   1.414  -3.162  0.00  0.00    +0.004 A 
ATOM      3  C   LIG    1       14.760   2.093  -3.382  0.00  0.00    +0.045 A 
ATOM      4  C   LIG    1       14.400   3.143  -2.543  0.00  0.00    +0.117 A 
ATOM      5  C   LIG    1       15.220   3.525  -1.486  0.00  0.00    +0.045 A 
ATOM      6  C   LIG    1       16.419   2.844  -1.266  0.00  0.00    +0.004 A 
ENDROOT
BRANCH   4   7
ATOM      7  O   LIG    1       13.220   3.779  -2.793  0.00  0.00    -0.507 OA
ATOM      8  H   LIG    1       12.586   3.537  -2.098  0.00  0.00    +0.292 HD
ENDBRANCH   4   7
TORSDOF 1
ENDMDL
MODEL 6
REMARK VINA RESULT:      -4.4     11.364     11.607
REMARK  Name = 
REMARK                            x       y       z     vdW  Elec       q    Type
REMARK                         _______ _______ _______ _____ _____    ______ ____
ROOT
ATOM      1  C   LIG    1       11.167   8.654 -12.688  0.00  0.00    +0.000 A 
ATOM      2  C   LIG    1        9.984   9.031 -12.052  0.00  0.00    +0.004 A 
ATOM      3  C   LIG    1        9.289  10.160 -12.486  0.00  0.00    +0.045 A 
ATOM      4  C   LIG    1        9.783  10.903 -13.554  0.00  0.00    +0.117 A 
ATOM      5  C   LIG    1       10.961  10.535 -14.196  0.00  0.00    +0.045 A 
ATOM      6  C   LIG    1       11.655   9.405 -13.760  0.00  0.00    +0.004 A 
ENDROOT
BRANCH   4   7
ATOM      7  O   LIG    1        9.073  12.000 -13.945  0.00  0.00    -0.507 OA
ATOM      8  H   LIG    1        8.534  12.301 -13.195  0.00  0.00    +0.292 HD
ENDBRANCH   4   7
TORSDOF 1
ENDMDL
MODEL 7
REMARK VINA RESULT:      -4.2     16.549     17.372
REMARK  Name = 
REMARK                            x       y       z     vdW  Elec       q    Type
REMARK                         _______ _______ _______ _____ _____    ______ ____
ROOT
ATOM      1  C   LIG    1        1.282   6.070  -0.902  0.00  0.00    +0.000 A 
ATOM      2  C   LIG    1        1.475   6.566   0.387  0.00  0.00    +0.004 A 
ATOM      3  C   LIG    1        2.490   7.490   0.633  0.00  0.00    +0.045 A 
ATOM      4  C   LIG    1        3.304   7.912  -0.413  0.00  0.00    +0.117 A 
ATOM      5  C   LIG    1        3.120   7.425  -1.703  0.00  0.00    +0.045 A 
ATOM      6  C   LIG    1        2.104   6.499  -1.947  0.00  0.00    +0.004 A 
ENDROOT
BRANCH   4   7
ATOM      7  O   LIG    1        4.285   8.816  -0.129  0.00  0.00    -0.507 OA
ATOM      8  H   LIG    1        4.243   9.028   0.819  0.00  0.00    +0.292 HD
ENDBRANCH   4   7
TORSDOF 1
ENDMDL
MODEL 8
REMARK VINA RESULT:      -4.2     10.657     10.935
REMARK  Name = 
REMARK                            x       y       z     vdW  Elec       q    Type
REMARK                         _______ _______ _______ _____ _____    ______ ____
ROOT
ATOM      1  C   LIG    1        9.802  10.980 -13.632  0.00  0.00    +0.000 A 
ATOM      2  C   LIG    1       11.010  10.640 -14.242  0.00  0.00    +0.004 A 
ATOM      3  C   LIG    1       11.696   9.495 -13.838  0.00  0.00    +0.045 A 
ATOM      4  C   LIG    1       11.169   8.698 -12.827  0.00  0.00    +0.117 A 
ATOM      5  C   LIG    1        9.964   9.027 -12.213  0.00  0.00    +0.045 A 
ATOM      6  C   LIG    1        9.279  10.174 -12.618  0.00  0.00    +0.004 A 
ENDROOT
BRANCH   4   7
ATOM      7  O   LIG    1       11.873   7.588 -12.462  0.00  0.00    -0.507 OA
ATOM      8  H   LIG    1       11.518   6.825 -12.947  0.00  0.00    +0.292 HD
ENDBRANCH   4   7
TORSDOF 1
ENDMDL
MODEL 9
REMARK VINA RESULT:      -4.2     16.291     17.282
REMARK  Name = 
REMARK                            x       y       z     vdW  Elec       q    Type
REMARK                         _______ _______ _______ _____ _____    ______ ____
ROOT
ATOM      1  C   LIG    1        3.084   5.147  -2.104  0.00  0.00    +0.000 A 
ATOM      2  C   LIG    1        1.761   5.539  -2.312  0.00  0.00    +0.004 A 
ATOM      3  C   LIG    1        1.057   6.181  -1.294  0.00  0.00    +0.045 A 
ATOM      4  C   LIG    1        1.681   6.427  -0.076  0.00  0.00    +0.117 A 
ATOM      5  C   LIG    1        3.000   6.042   0.142  0.00  0.00    +0.045 A 
ATOM      6  C   LIG    1        3.703   5.398  -0.878  0.00  0.00    +0.004 A 
ENDROOT
BRANCH   4   7
ATOM      7  O   LIG    1        0.955   7.057   0.893  0.00  0.00    -0.507 OA
ATOM      8  H   LIG    1        0.065   7.233   0.545  0.00  0.00    +0.292 HD
ENDBRANCH   4   7
TORSDOF 1
ENDMDL
