MODEL 1
REMARK VINA RESULT:      -5.1      0.000      0.000
REMARK  Name = 
REMARK                            x       y       z     vdW  Elec       q    Type
REMARK                         _______ _______ _______ _____ _____    ______ ____
ROOT
ATOM      1  C   LIG    1        2.669  29.793   4.568  0.00  0.00    +0.000 A 
ATOM      2  C   LIG    1        3.937  29.650   5.134  0.00  0.00    +0.004 A 
ATOM      3  C   LIG    1        4.387  28.389   5.524  0.00  0.00    +0.045 A 
ATOM      4  C   LIG    1        3.566  27.280   5.346  0.00  0.00    +0.117 A 
ATOM      5  C   LIG    1        2.301  27.411   4.782  0.00  0.00    +0.045 A 
ATOM      6  C   LIG    1        1.851  28.675   4.393  0.00  0.00    +0.004 A 
ENDROOT
BRANCH   4   7
ATOM      7  O   LIG    1        4.044  26.066   5.743  0.00  0.00    -0.507 OA
ATOM      8  H   LIG    1        4.894  26.203   6.194  0.00  0.00    +0.292 HD
ENDBRANCH   4   7
TORSDOF 1
ENDMDL
MODEL 2
REMARK VINA RESULT:      -5.1      0.052      1.830
REMARK  Name = 
REMARK                            x       y       z     vdW  Elec       q    Type
REMARK                         _______ _______ _______ _____ _____    ______ ____
ROOT
ATOM      1  C   LIG    1        2.711  29.793   4.552  0.00  0.00    +0.000 A 
ATOM      2  C   LIG    1        1.907  28.666   4.376  0.00  0.00    +0.004 A 
ATOM      3  C   LIG    1        2.366  27.413   4.780  0.00  0.00    +0.045 A 
ATOM      4  C   LIG    1        3.626  27.296   5.357  0.00  0.00    +0.117 A 
ATOM      5  C   LIG    1        4.436  28.412   5.538  0.00  0.00    +0.045 A 
ATOM      6  C   LIG    1        3.975  29.667   5.132  0.00  0.00    +0.004 A 
ENDROOT
BRANCH   4   7
ATOM      7  O   LIG    1        4.036  26.052   5.736  0.00  0.00    -0.507 OA
ATOM      8  H   LIG    1        4.692  25.734   5.093  0.00  0.00    +0.292 HD
ENDBRANCH   4   7
TORSDOF 1
ENDMDL
MODEL 3
REMARK VINA RESULT:      -5.0      8.111      9.179
REMARK  Name = 
REMARK                            x       y       z     vdW  Elec       q    Type
REMARK                         _______ _______ _______ _____ _____    ______ ____
ROOT
ATOM      1  C   LIG    1        4.438  21.903  13.387  0.00  0.00    +0.000 A 
ATOM      2  C   LIG    1        5.087  22.979  12.780  0.00  0.00    +0.004 A 
ATOM      3  C   LIG    1        4.769  23.334  11.469  0.00  0.00    +0.045 A 
ATOM      4  C   LIG    1        3.803  22.612  10.776  0.00  0.00    +0.117 A 
ATOM      5  C   LIG    1        3.149  21.539  11.372  0.00  0.00    +0.045 A 
ATOM      6  C   LIG    1        3.469  21.183  12.684  0.00  0.00    +0.004 A 
ENDROOT
BRANCH   4   7
ATOM      7  O   LIG    1        3.524  22.992   9.497  0.00  0.00    -0.507 OA
ATOM      8  H   LIG    1        4.353  23.256   9.065  0.00  0.00    +0.292 HD
ENDBRANCH   4   7
TORSDOF 1
ENDMDL
MODEL 4
REMARK VINA RESULT:      -4.7      7.691      8.521
REMARK  Name = 
REMARK                            x       y       z     vdW  Elec       q    Type
REMARK                         _______ _______ _______ _____ _____    ______ ____
ROOT
ATOM      1  C   LIG    1        3.362  23.154  10.117  0.00  0.00    +0.000 A 
ATOM      2  C   LIG    1        4.269  23.279  11.170  0.00  0.00    +0.004 A 
ATOM      3  C   LIG    1        5.110  22.215  11.495  0.00  0.00    +0.045 A 
ATOM      4  C   LIG    1        5.039  21.034  10.763  0.00  0.00    +0.117 A 
ATOM      5  C   LIG    1        4.139  20.900   9.710  0.00  0.00    +0.045 A 
ATOM      6  C   LIG    1        3.297  21.966   9.387  0.00  0.00    +0.004 A 
ENDROOT
BRANCH   4   7
ATOM      7  O   LIG    1        5.878  20.019  11.115  0.00  0.00    -0.507 OA
ATOM      8  H   LIG    1        5.733  19.275  10.507  0.00  0.00    +0.292 HD
ENDBRANCH   4   7
TORSDOF 1
ENDMDL
MODEL 5
REMARK VINA RESULT:      -4.7      8.104      9.179
REMARK  Name = 
REMARK                            x       y       z     vdW  Elec       q    Type
REMARK                         _______ _______ _______ _____ _____    ______ ____
ROOT
ATOM      1  C   LIG    1        3.992  22.275   9.900  0.00  0.00    +0.000 A 
ATOM      2  C   LIG    1        4.451  21.057  10.401  0.00  0.00    +0.004 A 
ATOM      3  C   LIG    1        4.954  20.983  11.699  0.00  0.00    +0.045 A 
ATOM      4  C   LIG    1        4.993  22.128  12.488  0.00  0.00    +0.117 A 
ATOM      5  C   LIG    1        4.536  23.348  11.999  0.00  0.00    +0.045 A 
ATOM      6  C   LIG    1        4.034  23.420  10.698  0.00  0.00    +0.004 A 
ENDROOT
BRANCH   4   7
ATOM      7  O   LIG    1        5.493  22.011  13.751  0.00  0.00    -0.507 OA
ATOM      8  H   LIG    1        5.445  21.078  14.017  0.00  0.00    +0.292 HD
ENDBRANCH   4   7
TORSDOF 1
ENDMDL
MODEL 6
REMARK VINA RESULT:      -4.6      8.417      8.629
REMARK  Name = 
REMARK                            x       y       z     vdW  Elec       q    Type
REMARK                         _______ _______ _______ _____ _____    ______ ____
ROOT
ATOM      1  C   LIG    1        1.724  21.420  10.084  0.00  0.00    +0.000 A 
ATOM      2  C   LIG    1        1.561  20.839   8.826  0.00  0.00    +0.004 A 
ATOM      3  C   LIG    1        2.678  20.457   8.085  0.00  0.00    +0.045 A 
ATOM      4  C   LIG    1        3.952  20.659   8.607  0.00  0.00    +0.117 A 
ATOM      5  C   LIG    1        4.127  21.236   9.860  0.00  0.00    +0.045 A 
ATOM      6  C   LIG    1        3.006  21.619  10.601  0.00  0.00    +0.004 A 
ENDROOT
BRANCH   4   7
ATOM      7  O   LIG    1        5.017  20.272   7.848  0.00  0.00    -0.507 OA
ATOM      8  H   LIG    1        4.870  20.572   6.936  0.00  0.00    +0.292 HD
ENDBRANCH   4   7
TORSDOF 1
ENDMDL
MODEL 7
REMARK VINA RESULT:      -4.6      8.370      9.420
REMARK  Name = 
REMARK                            x       y       z     vdW  Elec       q    Type
REMARK                         _______ _______ _______ _____ _____    ______ ____
ROOT
ATOM      1  C   LIG    1        4.515  23.137  13.143  0.00  0.00    +0.000 A 
ATOM      2  C   LIG    1        4.752  21.781  13.371  0.00  0.00    +0.004 A 
ATOM      3  C   LIG    1        4.812  20.894  12.296  0.00  0.00    +0.045 A 
ATOM      4  C   LIG    1        4.637  21.370  11.001  0.00  0.00    +0.117 A 
ATOM      5  C   LIG    1        4.402  22.721  10.762  0.00  0.00    +0.045 A 
ATOM      6  C   LIG    1        4.340  23.607  11.839  0.00  0.00    +0.004 A 
ENDROOT
BRANCH   4   7
ATOM      7  O   LIG    1        4.703  20.469   9.980  0.00  0.00    -0.507 OA
ATOM      8  H   LIG    1        3.903  20.561   9.436  0.00  0.00    +0.292 HD
ENDBRANCH   4   7
TORSDOF 1
ENDMDL
MODEL 8
REMARK VINA RESULT:      -4.6      1.920      2.854
REMARK  Name = 
REMARK                            x       y       z     vdW  Elec       q    Type
REMARK                         _______ _______ _______ _____ _____    ______ ____
ROOT
ATOM      1  C   LIG    1        4.040  28.600   5.349  0.00  0.00    +0.000 A 
ATOM      2  C   LIG    1        3.309  27.419   5.483  0.00  0.00    +0.004 A 
ATOM      3  C   LIG    1        1.945  27.407   5.190  0.00  0.00    +0.045 A 
ATOM      4  C   LIG    1        1.323  28.576   4.766  0.00  0.00    +0.117 A 
ATOM      5  C   LIG    1        2.042  29.759   4.628  0.00  0.00    +0.045 A 
ATOM      6  C   LIG    1        3.407  29.770   4.922  0.00  0.00    +0.004 A 
ENDROOT
BRANCH   4   7
ATOM      7  O   LIG    1       -0.012  28.521   4.492  0.00  0.00    -0.507 OA
ATOM      8  H   LIG    1       -0.133  28.066   3.642  0.00  0.00    +0.292 HD
ENDBRANCH   4   7
TORSDOF 1
ENDMDL
MODEL 9
REMARK VINA RESULT:      -4.6      1.930      2.643
REMARK  Name = 
REMARK                            x       y       z     vdW  Elec       q    Type
REMARK                         _______ _______ _______ _____ _____    ______ ____
ROOT
ATOM      1  C   LIG    1        4.043  28.612   5.338  0.00  0.00    +0.000 A 
ATOM      2  C   LIG    1        3.396  29.769   4.905  0.00  0.00    +0.004 A 
ATOM      3  C   LIG    1        2.031  29.739   4.618  0.00  0.00    +0.045 A 
ATOM      4  C   LIG    1        1.324  28.551   4.768  0.00  0.00    +0.117 A 
ATOM      5  C   LIG    1        1.959  27.391   5.201  0.00  0.00    +0.045 A 
ATOM      6  C   LIG    1        3.325  27.423   5.486  0.00  0.00    +0.004 A 
ENDROOT
BRANCH   4   7
ATOM      7  O   LIG    1       -0.008  28.565   4.476  0.00  0.00    -0.507 OA
ATOM      8  H   LIG    1       -0.396  29.374   4.846  0.00  0.00    +0.292 HD
ENDBRANCH   4   7
TORSDOF 1
ENDMDL
