MODEL 1
REMARK VINA RESULT:      -4.6      0.000      0.000
REMARK  Name = 
REMARK                            x       y       z     vdW  Elec       q    Type
REMARK                         _______ _______ _______ _____ _____    ______ ____
ROOT
ATOM      1  C   LIG    1      -44.994  15.980 -30.759  0.00  0.00    +0.000 A 
ATOM      2  C   LIG    1      -45.581  17.106 -31.339  0.00  0.00    +0.004 A 
ATOM      3  C   LIG    1      -45.989  17.070 -32.672  0.00  0.00    +0.045 A 
ATOM      4  C   LIG    1      -45.809  15.908 -33.415  0.00  0.00    +0.117 A 
ATOM      5  C   LIG    1      -45.227  14.780 -32.847  0.00  0.00    +0.045 A 
ATOM      6  C   LIG    1      -44.818  14.818 -31.512  0.00  0.00    +0.004 A 
ENDROOT
BRANCH   4   7
ATOM      7  O   LIG    1      -46.222  15.917 -34.715  0.00  0.00    -0.507 OA
ATOM      8  H   LIG    1      -46.480  16.823 -34.950  0.00  0.00    +0.292 HD
ENDBRANCH   4   7
TORSDOF 1
ENDMDL
MODEL 2
REMARK VINA RESULT:      -4.6     10.018     10.733
REMARK  Name = 
REMARK                            x       y       z     vdW  Elec       q    Type
REMARK                         _______ _______ _______ _____ _____    ______ ____
ROOT
ATOM      1  C   LIG    1      -48.103  10.418 -41.999  0.00  0.00    +0.000 A 
ATOM      2  C   LIG    1      -48.542   9.810 -40.823  0.00  0.00    +0.004 A 
ATOM      3  C   LIG    1      -49.443  10.473 -39.991  0.00  0.00    +0.045 A 
ATOM      4  C   LIG    1      -49.898  11.740 -40.340  0.00  0.00    +0.117 A 
ATOM      5  C   LIG    1      -49.467  12.356 -41.511  0.00  0.00    +0.045 A 
ATOM      6  C   LIG    1      -48.564  11.690 -42.344  0.00  0.00    +0.004 A 
ENDROOT
BRANCH   4   7
ATOM      7  O   LIG    1      -50.777  12.354 -39.497  0.00  0.00    -0.507 OA
ATOM      8  H   LIG    1      -50.645  11.998 -38.603  0.00  0.00    +0.292 HD
ENDBRANCH   4   7
TORSDOF 1
ENDMDL
MODEL 3
REMARK VINA RESULT:      -4.5     10.281     10.789
REMARK  Name = 
REMARK                            x       y       z     vdW  Elec       q    Type
REMARK                         _______ _______ _______ _____ _____    ______ ____
ROOT
ATOM      1  C   LIG    1      -49.644  10.912 -40.251  0.00  0.00    +0.000 A 
ATOM      2  C   LIG    1      -48.659  10.630 -41.198  0.00  0.00    +0.004 A 
ATOM      3  C   LIG    1      -48.397  11.539 -42.222  0.00  0.00    +0.045 A 
ATOM      4  C   LIG    1      -49.122  12.725 -42.291  0.00  0.00    +0.117 A 
ATOM      5  C   LIG    1      -50.106  13.016 -41.352  0.00  0.00    +0.045 A 
ATOM      6  C   LIG    1      -50.367  12.104 -40.327  0.00  0.00    +0.004 A 
ENDROOT
BRANCH   4   7
ATOM      7  O   LIG    1      -48.835  13.585 -43.310  0.00  0.00    -0.507 OA
ATOM      8  H   LIG    1      -48.158  14.210 -43.003  0.00  0.00    +0.292 HD
ENDBRANCH   4   7
TORSDOF 1
ENDMDL
MODEL 4
REMARK VINA RESULT:      -4.5      1.954      2.638
REMARK  Name = 
REMARK                            x       y       z     vdW  Elec       q    Type
REMARK                         _______ _______ _______ _____ _____    ______ ____
ROOT
ATOM      1  C   LIG    1      -46.058  16.927 -33.116  0.00  0.00    +0.000 A 
ATOM      2  C   LIG    1      -45.876  17.359 -31.801  0.00  0.00    +0.004 A 
ATOM      3  C   LIG    1      -45.311  16.502 -30.858  0.00  0.00    +0.045 A 
ATOM      4  C   LIG    1      -44.932  15.218 -31.236  0.00  0.00    +0.117 A 
ATOM      5  C   LIG    1      -45.107  14.777 -32.544  0.00  0.00    +0.045 A 
ATOM      6  C   LIG    1      -45.674  15.637 -33.487  0.00  0.00    +0.004 A 
ENDROOT
BRANCH   4   7
ATOM      7  O   LIG    1      -44.385  14.412 -30.282  0.00  0.00    -0.507 OA
ATOM      8  H   LIG    1      -43.852  13.730 -30.724  0.00  0.00    +0.292 HD
ENDBRANCH   4   7
TORSDOF 1
ENDMDL
MODEL 5
REMARK VINA RESULT:      -4.5      9.085     10.094
REMARK  Name = 
REMARK                            x       y       z     vdW  Elec       q    Type
REMARK                         _______ _______ _______ _____ _____    ______ ____
ROOT
ATOM      1  C   LIG    1      -47.619   9.108 -40.531  0.00  0.00    +0.000 A 
ATOM      2  C   LIG    1      -48.400   9.912 -41.363  0.00  0.00    +0.004 A 
ATOM      3  C   LIG    1      -49.284  10.836 -40.808  0.00  0.00    +0.045 A 
ATOM      4  C   LIG    1      -49.381  10.951 -39.425  0.00  0.00    +0.117 A 
ATOM      5  C   LIG    1      -48.606  10.156 -38.586  0.00  0.00    +0.045 A 
ATOM      6  C   LIG    1      -47.722   9.230 -39.144  0.00  0.00    +0.004 A 
ENDROOT
BRANCH   4   7
ATOM      7  O   LIG    1      -50.259  11.867 -38.924  0.00  0.00    -0.507 OA
ATOM      8  H   LIG    1      -50.152  12.697 -39.417  0.00  0.00    +0.292 HD
ENDBRANCH   4   7
TORSDOF 1
ENDMDL
MODEL 6
REMARK VINA RESULT:      -4.4      1.610      2.397
REMARK  Name = 
REMARK                            x       y       z     vdW  Elec       q    Type
REMARK                         _______ _______ _______ _____ _____    ______ ____
ROOT
ATOM      1  C   LIG    1      -45.184  14.514 -32.472  0.00  0.00    +0.000 A 
ATOM      2  C   LIG    1      -45.746  15.378 -33.413  0.00  0.00    +0.004 A 
ATOM      3  C   LIG    1      -45.976  16.713 -33.083  0.00  0.00    +0.045 A 
ATOM      4  C   LIG    1      -45.642  17.175 -31.814  0.00  0.00    +0.117 A 
ATOM      5  C   LIG    1      -45.080  16.323 -30.869  0.00  0.00    +0.045 A 
ATOM      6  C   LIG    1      -44.851  14.986 -31.200  0.00  0.00    +0.004 A 
ENDROOT
BRANCH   4   7
ATOM      7  O   LIG    1      -45.885  18.487 -31.533  0.00  0.00    -0.507 OA
ATOM      8  H   LIG    1      -45.034  18.933 -31.384  0.00  0.00    +0.292 HD
ENDBRANCH   4   7
TORSDOF 1
ENDMDL
MODEL 7
REMARK VINA RESULT:      -4.2      1.834      2.778
REMARK  Name = 
REMARK                            x       y       z     vdW  Elec       q    Type
REMARK                         _______ _______ _______ _____ _____    ______ ____
ROOT
ATOM      1  C   LIG    1      -45.196  14.731 -33.046  0.00  0.00    +0.000 A 
ATOM      2  C   LIG    1      -45.462  14.455 -34.388  0.00  0.00    +0.004 A 
ATOM      3  C   LIG    1      -46.714  14.751 -34.925  0.00  0.00    +0.045 A 
ATOM      4  C   LIG    1      -47.692  15.321 -34.116  0.00  0.00    +0.117 A 
ATOM      5  C   LIG    1      -47.437  15.601 -32.777  0.00  0.00    +0.045 A 
ATOM      6  C   LIG    1      -46.182  15.303 -32.241  0.00  0.00    +0.004 A 
ENDROOT
BRANCH   4   7
ATOM      7  O   LIG    1      -48.903  15.594 -34.681  0.00  0.00    -0.507 OA
ATOM      8  H   LIG    1      -49.338  16.286 -34.157  0.00  0.00    +0.292 HD
ENDBRANCH   4   7
TORSDOF 1
ENDMDL
MODEL 8
REMARK VINA RESULT:      -4.2     15.027     15.720
REMARK  Name = 
REMARK                            x       y       z     vdW  Elec       q    Type
REMARK                         _______ _______ _______ _____ _____    ______ ____
ROOT
ATOM      1  C   LIG    1      -34.393   5.938 -39.174  0.00  0.00    +0.000 A 
ATOM      2  C   LIG    1      -34.143   7.042 -38.359  0.00  0.00    +0.004 A 
ATOM      3  C   LIG    1      -34.283   8.332 -38.872  0.00  0.00    +0.045 A 
ATOM      4  C   LIG    1      -34.672   8.507 -40.196  0.00  0.00    +0.117 A 
ATOM      5  C   LIG    1      -34.924   7.413 -41.017  0.00  0.00    +0.045 A 
ATOM      6  C   LIG    1      -34.783   6.122 -40.503  0.00  0.00    +0.004 A 
ENDROOT
BRANCH   4   7
ATOM      7  O   LIG    1      -34.795   9.785 -40.657  0.00  0.00    -0.507 OA
ATOM      8  H   LIG    1      -34.193   9.900 -41.410  0.00  0.00    +0.292 HD
ENDBRANCH   4   7
TORSDOF 1
ENDMDL
MODEL 9
REMARK VINA RESULT:      -4.2     10.250     10.626
REMARK  Name = 
REMARK                            x       y       z     vdW  Elec       q    Type
REMARK                         _______ _______ _______ _____ _____    ______ ____
ROOT
ATOM      1  C   LIG    1      -50.416  11.978 -40.121  0.00  0.00    +0.000 A 
ATOM      2  C   LIG    1      -50.283  12.978 -41.084  0.00  0.00    +0.004 A 
ATOM      3  C   LIG    1      -49.340  12.843 -42.103  0.00  0.00    +0.045 A 
ATOM      4  C   LIG    1      -48.537  11.708 -42.151  0.00  0.00    +0.117 A 
ATOM      5  C   LIG    1      -48.662  10.704 -41.196  0.00  0.00    +0.045 A 
ATOM      6  C   LIG    1      -49.606  10.841 -40.176  0.00  0.00    +0.004 A 
ENDROOT
BRANCH   4   7
ATOM      7  O   LIG    1      -47.628  11.617 -43.163  0.00  0.00    -0.507 OA
ATOM      8  H   LIG    1      -46.894  12.224 -42.973  0.00  0.00    +0.292 HD
ENDBRANCH   4   7
TORSDOF 1
ENDMDL
