MODEL 1
REMARK VINA RESULT:      -5.1      0.000      0.000
REMARK  Name = 
REMARK                            x       y       z     vdW  Elec       q    Type
REMARK                         _______ _______ _______ _____ _____    ______ ____
ROOT
ATOM      1  C   LIG    1       16.612  43.880  28.998  0.00  0.00    +0.000 A 
ATOM      2  C   LIG    1       16.626  43.902  27.603  0.00  0.00    +0.004 A 
ATOM      3  C   LIG    1       16.076  44.985  26.918  0.00  0.00    +0.045 A 
ATOM      4  C   LIG    1       15.517  46.039  27.634  0.00  0.00    +0.117 A 
ATOM      5  C   LIG    1       15.499  46.028  29.025  0.00  0.00    +0.045 A 
ATOM      6  C   LIG    1       16.049  44.942  29.709  0.00  0.00    +0.004 A 
ENDROOT
BRANCH   4   7
ATOM      7  O   LIG    1       14.989  47.078  26.925  0.00  0.00    -0.507 OA
ATOM      8  H   LIG    1       14.123  46.806  26.579  0.00  0.00    +0.292 HD
ENDBRANCH   4   7
TORSDOF 1
ENDMDL
MODEL 2
REMARK VINA RESULT:      -4.9      9.139     10.322
REMARK  Name = 
REMARK                            x       y       z     vdW  Elec       q    Type
REMARK                         _______ _______ _______ _____ _____    ______ ____
ROOT
ATOM      1  C   LIG    1       17.405  49.508  17.553  0.00  0.00    +0.000 A 
ATOM      2  C   LIG    1       17.028  50.398  18.560  0.00  0.00    +0.004 A 
ATOM      3  C   LIG    1       16.219  49.960  19.608  0.00  0.00    +0.045 A 
ATOM      4  C   LIG    1       15.794  48.637  19.643  0.00  0.00    +0.117 A 
ATOM      5  C   LIG    1       16.165  47.741  18.645  0.00  0.00    +0.045 A 
ATOM      6  C   LIG    1       16.974  48.181  17.595  0.00  0.00    +0.004 A 
ENDROOT
BRANCH   4   7
ATOM      7  O   LIG    1       15.003  48.251  20.685  0.00  0.00    -0.507 OA
ATOM      8  H   LIG    1       15.568  48.096  21.459  0.00  0.00    +0.292 HD
ENDBRANCH   4   7
TORSDOF 1
ENDMDL
MODEL 3
REMARK VINA RESULT:      -4.8      9.643     10.679
REMARK  Name = 
REMARK                            x       y       z     vdW  Elec       q    Type
REMARK                         _______ _______ _______ _____ _____    ______ ____
ROOT
ATOM      1  C   LIG    1       16.677  47.764  17.522  0.00  0.00    +0.000 A 
ATOM      2  C   LIG    1       17.342  48.828  16.912  0.00  0.00    +0.004 A 
ATOM      3  C   LIG    1       17.567  50.007  17.621  0.00  0.00    +0.045 A 
ATOM      4  C   LIG    1       17.125  50.114  18.936  0.00  0.00    +0.117 A 
ATOM      5  C   LIG    1       16.462  49.060  19.554  0.00  0.00    +0.045 A 
ATOM      6  C   LIG    1       16.236  47.879  18.843  0.00  0.00    +0.004 A 
ENDROOT
BRANCH   4   7
ATOM      7  O   LIG    1       17.365  51.286  19.592  0.00  0.00    -0.507 OA
ATOM      8  H   LIG    1       17.833  51.886  18.989  0.00  0.00    +0.292 HD
ENDBRANCH   4   7
TORSDOF 1
ENDMDL
MODEL 4
REMARK VINA RESULT:      -4.7      2.489      3.589
REMARK  Name = 
REMARK                            x       y       z     vdW  Elec       q    Type
REMARK                         _______ _______ _______ _____ _____    ______ ____
ROOT
ATOM      1  C   LIG    1       15.361  47.763  28.049  0.00  0.00    +0.000 A 
ATOM      2  C   LIG    1       14.103  48.365  28.061  0.00  0.00    +0.004 A 
ATOM      3  C   LIG    1       12.963  47.591  28.277  0.00  0.00    +0.045 A 
ATOM      4  C   LIG    1       13.090  46.221  28.480  0.00  0.00    +0.117 A 
ATOM      5  C   LIG    1       14.341  45.610  28.471  0.00  0.00    +0.045 A 
ATOM      6  C   LIG    1       15.481  46.387  28.254  0.00  0.00    +0.004 A 
ENDROOT
BRANCH   4   7
ATOM      7  O   LIG    1       11.950  45.501  28.686  0.00  0.00    -0.507 OA
ATOM      8  H   LIG    1       11.747  45.512  29.636  0.00  0.00    +0.292 HD
ENDBRANCH   4   7
TORSDOF 1
ENDMDL
MODEL 5
REMARK VINA RESULT:      -4.7      3.165      4.146
REMARK  Name = 
REMARK                            x       y       z     vdW  Elec       q    Type
REMARK                         _______ _______ _______ _____ _____    ______ ____
ROOT
ATOM      1  C   LIG    1       15.515  47.402  27.995  0.00  0.00    +0.000 A 
ATOM      2  C   LIG    1       15.909  48.723  28.214  0.00  0.00    +0.004 A 
ATOM      3  C   LIG    1       14.951  49.735  28.270  0.00  0.00    +0.045 A 
ATOM      4  C   LIG    1       13.606  49.419  28.107  0.00  0.00    +0.117 A 
ATOM      5  C   LIG    1       13.202  48.105  27.890  0.00  0.00    +0.045 A 
ATOM      6  C   LIG    1       14.163  47.093  27.833  0.00  0.00    +0.004 A 
ENDROOT
BRANCH   4   7
ATOM      7  O   LIG    1       12.703  50.439  28.168  0.00  0.00    -0.507 OA
ATOM      8  H   LIG    1       13.030  51.172  27.622  0.00  0.00    +0.292 HD
ENDBRANCH   4   7
TORSDOF 1
ENDMDL
MODEL 6
REMARK VINA RESULT:      -4.7      3.073      4.002
REMARK  Name = 
REMARK                            x       y       z     vdW  Elec       q    Type
REMARK                         _______ _______ _______ _____ _____    ______ ____
ROOT
ATOM      1  C   LIG    1       15.966  48.575  28.330  0.00  0.00    +0.000 A 
ATOM      2  C   LIG    1       15.367  47.360  27.996  0.00  0.00    +0.004 A 
ATOM      3  C   LIG    1       14.007  47.314  27.690  0.00  0.00    +0.045 A 
ATOM      4  C   LIG    1       13.257  48.485  27.720  0.00  0.00    +0.117 A 
ATOM      5  C   LIG    1       13.844  49.702  28.049  0.00  0.00    +0.045 A 
ATOM      6  C   LIG    1       15.205  49.746  28.357  0.00  0.00    +0.004 A 
ENDROOT
BRANCH   4   7
ATOM      7  O   LIG    1       11.930  48.395  27.415  0.00  0.00    -0.507 OA
ATOM      8  H   LIG    1       11.482  49.187  27.755  0.00  0.00    +0.292 HD
ENDBRANCH   4   7
TORSDOF 1
ENDMDL
MODEL 7
REMARK VINA RESULT:      -4.6      2.859      4.225
REMARK  Name = 
REMARK                            x       y       z     vdW  Elec       q    Type
REMARK                         _______ _______ _______ _____ _____    ______ ____
ROOT
ATOM      1  C   LIG    1       14.063  49.797  28.205  0.00  0.00    +0.000 A 
ATOM      2  C   LIG    1       15.437  49.578  28.316  0.00  0.00    +0.004 A 
ATOM      3  C   LIG    1       15.947  48.286  28.193  0.00  0.00    +0.045 A 
ATOM      4  C   LIG    1       15.081  47.223  27.960  0.00  0.00    +0.117 A 
ATOM      5  C   LIG    1       13.710  47.431  27.847  0.00  0.00    +0.045 A 
ATOM      6  C   LIG    1       13.200  48.725  27.971  0.00  0.00    +0.004 A 
ENDROOT
BRANCH   4   7
ATOM      7  O   LIG    1       15.622  45.976  27.848  0.00  0.00    -0.507 OA
ATOM      8  H   LIG    1       16.477  46.052  27.393  0.00  0.00    +0.292 HD
ENDBRANCH   4   7
TORSDOF 1
ENDMDL
MODEL 8
REMARK VINA RESULT:      -4.6      9.830     10.902
REMARK  Name = 
REMARK                            x       y       z     vdW  Elec       q    Type
REMARK                         _______ _______ _______ _____ _____    ______ ____
ROOT
ATOM      1  C   LIG    1       16.590  47.693  17.632  0.00  0.00    +0.000 A 
ATOM      2  C   LIG    1       16.151  48.018  18.916  0.00  0.00    +0.004 A 
ATOM      3  C   LIG    1       16.370  49.298  19.424  0.00  0.00    +0.045 A 
ATOM      4  C   LIG    1       17.026  50.244  18.644  0.00  0.00    +0.117 A 
ATOM      5  C   LIG    1       17.467  49.932  17.362  0.00  0.00    +0.045 A 
ATOM      6  C   LIG    1       17.248  48.649  16.855  0.00  0.00    +0.004 A 
ENDROOT
BRANCH   4   7
ATOM      7  O   LIG    1       17.221  51.483  19.180  0.00  0.00    -0.507 OA
ATOM      8  H   LIG    1       18.176  51.652  19.226  0.00  0.00    +0.292 HD
ENDBRANCH   4   7
TORSDOF 1
ENDMDL
MODEL 9
REMARK VINA RESULT:      -4.5      2.151      3.008
REMARK  Name = 
REMARK                            x       y       z     vdW  Elec       q    Type
REMARK                         _______ _______ _______ _____ _____    ______ ____
ROOT
ATOM      1  C   LIG    1       13.159  46.014  28.510  0.00  0.00    +0.000 A 
ATOM      2  C   LIG    1       14.462  45.519  28.566  0.00  0.00    +0.004 A 
ATOM      3  C   LIG    1       15.543  46.381  28.387  0.00  0.00    +0.045 A 
ATOM      4  C   LIG    1       15.313  47.733  28.153  0.00  0.00    +0.117 A 
ATOM      5  C   LIG    1       14.018  48.237  28.096  0.00  0.00    +0.045 A 
ATOM      6  C   LIG    1       12.936  47.372  28.275  0.00  0.00    +0.004 A 
ENDROOT
BRANCH   4   7
ATOM      7  O   LIG    1       16.398  48.541  27.982  0.00  0.00    -0.507 OA
ATOM      8  H   LIG    1       16.089  49.411  27.682  0.00  0.00    +0.292 HD
ENDBRANCH   4   7
TORSDOF 1
ENDMDL
