MODEL 1
REMARK VINA RESULT:      -8.3      0.000      0.000
REMARK  Name = 
REMARK                            x       y       z     vdW  Elec       q    Type
REMARK                         _______ _______ _______ _____ _____    ______ ____
ROOT
ATOM      1  C   LIG    1       -7.138  -4.973  12.621  0.00  0.00    +0.015 C 
ATOM      2  C   LIG    1       -6.228  -5.048  11.362  0.00  0.00    +0.021 C 
ATOM      3  C   LIG    1       -7.952  -6.296  12.586  0.00  0.00    +0.021 C 
ENDROOT
BRANCH   1   7
ATOM      4  C   LIG    1      -10.022  -1.697  12.680  0.00  0.00    +0.117 A 
ATOM      5  C   LIG    1       -8.692  -1.424  12.407  0.00  0.00    +0.046 A 
ATOM      6  C   LIG    1       -7.754  -2.462  12.364  0.00  0.00    +0.008 A 
ATOM      7  C   LIG    1       -8.142  -3.794  12.595  0.00  0.00    -0.037 A 
ATOM      8  C   LIG    1       -9.507  -4.037  12.860  0.00  0.00    +0.008 A 
ATOM      9  C   LIG    1      -10.444  -3.001  12.902  0.00  0.00    +0.046 A 
BRANCH   4  10
ATOM     10  O   LIG    1      -10.896  -0.653  12.731  0.00  0.00    -0.507 OA
ATOM     11  H   LIG    1      -10.622  -0.058  13.448  0.00  0.00    +0.292 HD
ENDBRANCH   4  10
ENDBRANCH   1   7
BRANCH   1  12
ATOM     12  C   LIG    1       -6.239  -4.836  13.877  0.00  0.00    -0.037 A 
ATOM     13  C   LIG    1       -4.835  -4.840  13.740  0.00  0.00    +0.008 A 
ATOM     14  C   LIG    1       -3.995  -4.639  14.838  0.00  0.00    +0.046 A 
ATOM     15  C   LIG    1       -4.545  -4.407  16.088  0.00  0.00    +0.117 A 
ATOM     16  C   LIG    1       -5.922  -4.394  16.263  0.00  0.00    +0.046 A 
ATOM     17  C   LIG    1       -6.762  -4.614  15.164  0.00  0.00    +0.008 A 
BRANCH  15  18
ATOM     18  O   LIG    1       -3.692  -4.177  17.127  0.00  0.00    -0.507 OA
ATOM     19  H   LIG    1       -2.894  -4.714  16.995  0.00  0.00    +0.292 HD
ENDBRANCH  15  18
ENDBRANCH   1  12
TORSDOF 4
ENDMDL
MODEL 2
REMARK VINA RESULT:      -8.3      0.035      5.540
REMARK  Name = 
REMARK                            x       y       z     vdW  Elec       q    Type
REMARK                         _______ _______ _______ _____ _____    ______ ____
ROOT
ATOM      1  C   LIG    1       -7.160  -4.984  12.621  0.00  0.00    +0.015 C 
ATOM      2  C   LIG    1       -7.955  -6.321  12.593  0.00  0.00    +0.021 C 
ATOM      3  C   LIG    1       -6.236  -5.062  11.373  0.00  0.00    +0.021 C 
ENDROOT
BRANCH   1   7
ATOM      4  C   LIG    1       -4.545  -4.416  16.069  0.00  0.00    +0.117 A 
ATOM      5  C   LIG    1       -5.919  -4.392  16.249  0.00  0.00    +0.046 A 
ATOM      6  C   LIG    1       -6.775  -4.591  15.160  0.00  0.00    +0.008 A 
ATOM      7  C   LIG    1       -6.261  -4.820  13.871  0.00  0.00    -0.037 A 
ATOM      8  C   LIG    1       -4.857  -4.847  13.726  0.00  0.00    +0.008 A 
ATOM      9  C   LIG    1       -4.002  -4.649  14.814  0.00  0.00    +0.046 A 
BRANCH   4  10
ATOM     10  O   LIG    1       -3.752  -4.197  17.155  0.00  0.00    -0.507 OA
ATOM     11  H   LIG    1       -3.738  -5.005  17.693  0.00  0.00    +0.292 HD
ENDBRANCH   4  10
ENDBRANCH   1   7
BRANCH   1  12
ATOM     12  C   LIG    1       -8.166  -3.806  12.569  0.00  0.00    -0.037 A 
ATOM     13  C   LIG    1       -9.525  -4.029  12.875  0.00  0.00    +0.008 A 
ATOM     14  C   LIG    1      -10.445  -2.978  12.918  0.00  0.00    +0.046 A 
ATOM     15  C   LIG    1      -10.017  -1.683  12.678  0.00  0.00    +0.117 A 
ATOM     16  C   LIG    1       -8.687  -1.423  12.375  0.00  0.00    +0.046 A 
ATOM     17  C   LIG    1       -7.770  -2.480  12.315  0.00  0.00    +0.008 A 
BRANCH  15  18
ATOM     18  O   LIG    1      -10.937  -0.681  12.767  0.00  0.00    -0.507 OA
ATOM     19  H   LIG    1      -11.344  -0.557  11.894  0.00  0.00    +0.292 HD
ENDBRANCH  15  18
ENDBRANCH   1  12
TORSDOF 4
ENDMDL
MODEL 3
REMARK VINA RESULT:      -8.1      2.540      5.237
REMARK  Name = 
REMARK                            x       y       z     vdW  Elec       q    Type
REMARK                         _______ _______ _______ _____ _____    ______ ____
ROOT
ATOM      1  C   LIG    1       -7.543  -4.204  13.065  0.00  0.00    +0.015 C 
ATOM      2  C   LIG    1       -7.168  -2.903  12.298  0.00  0.00    +0.021 C 
ATOM      3  C   LIG    1       -9.044  -4.020  13.422  0.00  0.00    +0.021 C 
ENDROOT
BRANCH   1   7
ATOM      4  C   LIG    1       -5.426  -4.861  16.824  0.00  0.00    +0.117 A 
ATOM      5  C   LIG    1       -4.702  -4.769  15.646  0.00  0.00    +0.046 A 
ATOM      6  C   LIG    1       -5.360  -4.539  14.432  0.00  0.00    +0.008 A 
ATOM      7  C   LIG    1       -6.758  -4.397  14.385  0.00  0.00    -0.037 A 
ATOM      8  C   LIG    1       -7.462  -4.486  15.606  0.00  0.00    +0.008 A 
ATOM      9  C   LIG    1       -6.806  -4.715  16.818  0.00  0.00    +0.046 A 
BRANCH   4  10
ATOM     10  O   LIG    1       -4.745  -5.105  17.979  0.00  0.00    -0.507 OA
ATOM     11  H   LIG    1       -5.334  -4.922  18.728  0.00  0.00    +0.292 HD
ENDBRANCH   4  10
ENDBRANCH   1   7
BRANCH   1  12
ATOM     12  C   LIG    1       -7.275  -5.420  12.141  0.00  0.00    -0.037 A 
ATOM     13  C   LIG    1       -6.280  -5.339  11.144  0.00  0.00    +0.008 A 
ATOM     14  C   LIG    1       -5.956  -6.439  10.346  0.00  0.00    +0.046 A 
ATOM     15  C   LIG    1       -6.604  -7.647  10.549  0.00  0.00    +0.117 A 
ATOM     16  C   LIG    1       -7.588  -7.766  11.521  0.00  0.00    +0.046 A 
ATOM     17  C   LIG    1       -7.924  -6.657  12.307  0.00  0.00    +0.008 A 
BRANCH  15  18
ATOM     18  O   LIG    1       -6.231  -8.707   9.777  0.00  0.00    -0.507 OA
ATOM     19  H   LIG    1       -5.517  -8.421   9.185  0.00  0.00    +0.292 HD
ENDBRANCH  15  18
ENDBRANCH   1  12
TORSDOF 4
ENDMDL
MODEL 4
REMARK VINA RESULT:      -8.1      2.531      4.341
REMARK  Name = 
REMARK                            x       y       z     vdW  Elec       q    Type
REMARK                         _______ _______ _______ _____ _____    ______ ____
ROOT
ATOM      1  C   LIG    1       -7.552  -4.185  13.070  0.00  0.00    +0.015 C 
ATOM      2  C   LIG    1       -9.058  -4.010  13.419  0.00  0.00    +0.021 C 
ATOM      3  C   LIG    1       -7.192  -2.901  12.272  0.00  0.00    +0.021 C 
ENDROOT
BRANCH   1   7
ATOM      4  C   LIG    1       -6.584  -7.614  10.549  0.00  0.00    +0.117 A 
ATOM      5  C   LIG    1       -7.601  -7.726  11.483  0.00  0.00    +0.046 A 
ATOM      6  C   LIG    1       -7.940  -6.632  12.287  0.00  0.00    +0.008 A 
ATOM      7  C   LIG    1       -7.261  -5.407  12.164  0.00  0.00    -0.037 A 
ATOM      8  C   LIG    1       -6.237  -5.326  11.195  0.00  0.00    +0.008 A 
ATOM      9  C   LIG    1       -5.898  -6.418  10.391  0.00  0.00    +0.046 A 
BRANCH   4  10
ATOM     10  O   LIG    1       -6.275  -8.711   9.801  0.00  0.00    -0.507 OA
ATOM     11  H   LIG    1       -5.374  -8.993  10.027  0.00  0.00    +0.292 HD
ENDBRANCH   4  10
ENDBRANCH   1   7
BRANCH   1  12
ATOM     12  C   LIG    1       -6.750  -4.337  14.387  0.00  0.00    -0.037 A 
ATOM     13  C   LIG    1       -7.432  -4.515  15.609  0.00  0.00    +0.008 A 
ATOM     14  C   LIG    1       -6.743  -4.735  16.804  0.00  0.00    +0.046 A 
ATOM     15  C   LIG    1       -5.360  -4.804  16.794  0.00  0.00    +0.117 A 
ATOM     16  C   LIG    1       -4.652  -4.634  15.612  0.00  0.00    +0.046 A 
ATOM     17  C   LIG    1       -5.345  -4.396  14.418  0.00  0.00    +0.008 A 
BRANCH  15  18
ATOM     18  O   LIG    1       -4.726  -5.059  17.974  0.00  0.00    -0.507 OA
ATOM     19  H   LIG    1       -5.390  -5.332  18.628  0.00  0.00    +0.292 HD
ENDBRANCH  15  18
ENDBRANCH   1  12
TORSDOF 4
ENDMDL
MODEL 5
REMARK VINA RESULT:      -7.9      2.774      3.727
REMARK  Name = 
REMARK                            x       y       z     vdW  Elec       q    Type
REMARK                         _______ _______ _______ _____ _____    ______ ____
ROOT
ATOM      1  C   LIG    1       -5.866  -6.160  11.534  0.00  0.00    +0.015 C 
ATOM      2  C   LIG    1       -4.341  -5.909  11.358  0.00  0.00    +0.021 C 
ATOM      3  C   LIG    1       -6.004  -7.708  11.519  0.00  0.00    +0.021 C 
ENDROOT
BRANCH   1   7
ATOM      4  C   LIG    1       -8.412  -4.647   8.329  0.00  0.00    +0.117 A 
ATOM      5  C   LIG    1       -7.695  -3.750   9.105  0.00  0.00    +0.046 A 
ATOM      6  C   LIG    1       -6.858  -4.216  10.125  0.00  0.00    +0.008 A 
ATOM      7  C   LIG    1       -6.728  -5.593  10.380  0.00  0.00    -0.037 A 
ATOM      8  C   LIG    1       -7.465  -6.478   9.563  0.00  0.00    +0.008 A 
ATOM      9  C   LIG    1       -8.301  -6.013   8.544  0.00  0.00    +0.046 A 
BRANCH   4  10
ATOM     10  O   LIG    1       -9.230  -4.147   7.360  0.00  0.00    -0.507 OA
ATOM     11  H   LIG    1       -9.029  -3.203   7.246  0.00  0.00    +0.292 HD
ENDBRANCH   4  10
ENDBRANCH   1   7
BRANCH   1  12
ATOM     12  C   LIG    1       -6.325  -5.514  12.867  0.00  0.00    -0.037 A 
ATOM     13  C   LIG    1       -7.680  -5.585  13.252  0.00  0.00    +0.008 A 
ATOM     14  C   LIG    1       -8.116  -5.085  14.482  0.00  0.00    +0.046 A 
ATOM     15  C   LIG    1       -7.200  -4.526  15.358  0.00  0.00    +0.117 A 
ATOM     16  C   LIG    1       -5.857  -4.439  15.015  0.00  0.00    +0.046 A 
ATOM     17  C   LIG    1       -5.425  -4.925  13.774  0.00  0.00    +0.008 A 
BRANCH  15  18
ATOM     18  O   LIG    1       -7.657  -4.085  16.563  0.00  0.00    -0.507 OA
ATOM     19  H   LIG    1       -6.934  -4.145  17.208  0.00  0.00    +0.292 HD
ENDBRANCH  15  18
ENDBRANCH   1  12
TORSDOF 4
ENDMDL
MODEL 6
REMARK VINA RESULT:      -7.9      2.401      5.545
REMARK  Name = 
REMARK                            x       y       z     vdW  Elec       q    Type
REMARK                         _______ _______ _______ _____ _____    ______ ____
ROOT
ATOM      1  C   LIG    1       -7.688  -3.717  13.138  0.00  0.00    +0.015 C 
ATOM      2  C   LIG    1       -7.326  -2.306  12.591  0.00  0.00    +0.021 C 
ATOM      3  C   LIG    1       -9.180  -3.594  13.558  0.00  0.00    +0.021 C 
ENDROOT
BRANCH   1   7
ATOM      4  C   LIG    1       -5.301  -4.755  16.641  0.00  0.00    +0.117 A 
ATOM      5  C   LIG    1       -6.683  -4.742  16.742  0.00  0.00    +0.046 A 
ATOM      6  C   LIG    1       -7.467  -4.430  15.626  0.00  0.00    +0.008 A 
ATOM      7  C   LIG    1       -6.873  -4.129  14.388  0.00  0.00    -0.037 A 
ATOM      8  C   LIG    1       -5.463  -4.162  14.318  0.00  0.00    +0.008 A 
ATOM      9  C   LIG    1       -4.679  -4.473  15.433  0.00  0.00    +0.046 A 
BRANCH   4  10
ATOM     10  O   LIG    1       -4.578  -5.044  17.759  0.00  0.00    -0.507 OA
ATOM     11  H   LIG    1       -3.797  -4.468  17.777  0.00  0.00    +0.292 HD
ENDBRANCH   4  10
ENDBRANCH   1   7
BRANCH   1  12
ATOM     12  C   LIG    1       -7.448  -4.761  12.017  0.00  0.00    -0.037 A 
ATOM     13  C   LIG    1       -7.883  -6.091  12.190  0.00  0.00    +0.008 A 
ATOM     14  C   LIG    1       -7.757  -7.039  11.172  0.00  0.00    +0.046 A 
ATOM     15  C   LIG    1       -7.214  -6.666   9.953  0.00  0.00    +0.117 A 
ATOM     16  C   LIG    1       -6.775  -5.365   9.743  0.00  0.00    +0.046 A 
ATOM     17  C   LIG    1       -6.887  -4.422  10.772  0.00  0.00    +0.008 A 
BRANCH  15  18
ATOM     18  O   LIG    1       -7.143  -7.609   8.971  0.00  0.00    -0.507 OA
ATOM     19  H   LIG    1       -7.502  -8.442   9.318  0.00  0.00    +0.292 HD
ENDBRANCH  15  18
ENDBRANCH   1  12
TORSDOF 4
ENDMDL
MODEL 7
REMARK VINA RESULT:      -7.9      2.679      5.948
REMARK  Name = 
REMARK                            x       y       z     vdW  Elec       q    Type
REMARK                         _______ _______ _______ _____ _____    ______ ____
ROOT
ATOM      1  C   LIG    1       -8.895  -2.727  12.548  0.00  0.00    +0.015 C 
ATOM      2  C   LIG    1       -8.876  -1.172  12.534  0.00  0.00    +0.021 C 
ATOM      3  C   LIG    1      -10.235  -3.088  13.247  0.00  0.00    +0.021 C 
ENDROOT
BRANCH   1   7
ATOM      4  C   LIG    1       -5.720  -4.636  14.856  0.00  0.00    +0.117 A 
ATOM      5  C   LIG    1       -5.384  -3.823  13.786  0.00  0.00    +0.046 A 
ATOM      6  C   LIG    1       -6.387  -3.186  13.045  0.00  0.00    +0.008 A 
ATOM      7  C   LIG    1       -7.744  -3.357  13.370  0.00  0.00    -0.037 A 
ATOM      8  C   LIG    1       -8.048  -4.184  14.473  0.00  0.00    +0.008 A 
ATOM      9  C   LIG    1       -7.048  -4.820  15.214  0.00  0.00    +0.046 A 
BRANCH   4  10
ATOM     10  O   LIG    1       -4.712  -5.251  15.536  0.00  0.00    -0.507 OA
ATOM     11  H   LIG    1       -5.060  -5.561  16.388  0.00  0.00    +0.292 HD
ENDBRANCH   4  10
ENDBRANCH   1   7
BRANCH   1  12
ATOM     12  C   LIG    1       -8.804  -3.239  11.087  0.00  0.00    -0.037 A 
ATOM     13  C   LIG    1       -9.412  -4.461  10.731  0.00  0.00    +0.008 A 
ATOM     14  C   LIG    1       -9.420  -4.914   9.410  0.00  0.00    +0.046 A 
ATOM     15  C   LIG    1       -8.841  -4.140   8.417  0.00  0.00    +0.117 A 
ATOM     16  C   LIG    1       -8.234  -2.931   8.727  0.00  0.00    +0.046 A 
ATOM     17  C   LIG    1       -8.211  -2.487  10.056  0.00  0.00    +0.008 A 
BRANCH  15  18
ATOM     18  O   LIG    1       -8.904  -4.598   7.135  0.00  0.00    -0.507 OA
ATOM     19  H   LIG    1       -8.277  -4.090   6.595  0.00  0.00    +0.292 HD
ENDBRANCH  15  18
ENDBRANCH   1  12
TORSDOF 4
ENDMDL
MODEL 8
REMARK VINA RESULT:      -7.8      2.401      3.656
REMARK  Name = 
REMARK                            x       y       z     vdW  Elec       q    Type
REMARK                         _______ _______ _______ _____ _____    ______ ____
ROOT
ATOM      1  C   LIG    1       -7.708  -3.714  13.119  0.00  0.00    +0.015 C 
ATOM      2  C   LIG    1       -9.196  -3.542  13.537  0.00  0.00    +0.021 C 
ATOM      3  C   LIG    1       -7.302  -2.320  12.564  0.00  0.00    +0.021 C 
ENDROOT
BRANCH   1   7
ATOM      4  C   LIG    1       -7.248  -6.692   9.963  0.00  0.00    +0.117 A 
ATOM      5  C   LIG    1       -6.781  -5.405   9.753  0.00  0.00    +0.046 A 
ATOM      6  C   LIG    1       -6.901  -4.440  10.760  0.00  0.00    +0.008 A 
ATOM      7  C   LIG    1       -7.492  -4.756  11.995  0.00  0.00    -0.037 A 
ATOM      8  C   LIG    1       -7.948  -6.080  12.178  0.00  0.00    +0.008 A 
ATOM      9  C   LIG    1       -7.828  -7.044  11.173  0.00  0.00    +0.046 A 
BRANCH   4  10
ATOM     10  O   LIG    1       -7.127  -7.593   8.947  0.00  0.00    -0.507 OA
ATOM     11  H   LIG    1       -7.336  -8.476   9.293  0.00  0.00    +0.292 HD
ENDBRANCH   4  10
ENDBRANCH   1   7
BRANCH   1  12
ATOM     12  C   LIG    1       -6.888  -4.143  14.364  0.00  0.00    -0.037 A 
ATOM     13  C   LIG    1       -5.480  -4.177  14.300  0.00  0.00    +0.008 A 
ATOM     14  C   LIG    1       -4.706  -4.481  15.423  0.00  0.00    +0.046 A 
ATOM     15  C   LIG    1       -5.328  -4.732  16.636  0.00  0.00    +0.117 A 
ATOM     16  C   LIG    1       -6.712  -4.707  16.738  0.00  0.00    +0.046 A 
ATOM     17  C   LIG    1       -7.486  -4.420  15.607  0.00  0.00    +0.008 A 
BRANCH  15  18
ATOM     18  O   LIG    1       -4.537  -4.986  17.717  0.00  0.00    -0.507 OA
ATOM     19  H   LIG    1       -3.856  -5.627  17.456  0.00  0.00    +0.292 HD
ENDBRANCH  15  18
ENDBRANCH   1  12
TORSDOF 4
ENDMDL
MODEL 9
REMARK VINA RESULT:      -7.2      2.675      5.571
REMARK  Name = 
REMARK                            x       y       z     vdW  Elec       q    Type
REMARK                         _______ _______ _______ _____ _____    ______ ____
ROOT
ATOM      1  C   LIG    1       -5.775  -5.658  11.855  0.00  0.00    +0.015 C 
ATOM      2  C   LIG    1       -5.434  -7.169  11.716  0.00  0.00    +0.021 C 
ATOM      3  C   LIG    1       -4.428  -4.933  11.578  0.00  0.00    +0.021 C 
ENDROOT
BRANCH   1   7
ATOM      4  C   LIG    1       -7.020  -4.404  15.845  0.00  0.00    +0.117 A 
ATOM      5  C   LIG    1       -7.985  -4.662  14.885  0.00  0.00    +0.046 A 
ATOM      6  C   LIG    1       -7.607  -5.084  13.605  0.00  0.00    +0.008 A 
ATOM      7  C   LIG    1       -6.252  -5.254  13.271  0.00  0.00    -0.037 A 
ATOM      8  C   LIG    1       -5.297  -4.992  14.278  0.00  0.00    +0.008 A 
ATOM      9  C   LIG    1       -5.673  -4.570  15.556  0.00  0.00    +0.046 A 
BRANCH   4  10
ATOM     10  O   LIG    1       -7.433  -3.976  17.071  0.00  0.00    -0.507 OA
ATOM     11  H   LIG    1       -6.822  -4.325  17.740  0.00  0.00    +0.292 HD
ENDBRANCH   4  10
ENDBRANCH   1   7
BRANCH   1  12
ATOM     12  C   LIG    1       -6.886  -5.304  10.833  0.00  0.00    -0.037 A 
ATOM     13  C   LIG    1       -7.035  -3.973  10.390  0.00  0.00    +0.008 A 
ATOM     14  C   LIG    1       -7.971  -3.630   9.411  0.00  0.00    +0.046 A 
ATOM     15  C   LIG    1       -8.758  -4.618   8.840  0.00  0.00    +0.117 A 
ATOM     16  C   LIG    1       -8.640  -5.939   9.249  0.00  0.00    +0.046 A 
ATOM     17  C   LIG    1       -7.713  -6.277  10.243  0.00  0.00    +0.008 A 
BRANCH  15  18
ATOM     18  O   LIG    1       -9.632  -4.250   7.861  0.00  0.00    -0.507 OA
ATOM     19  H   LIG    1       -9.133  -4.115   7.038  0.00  0.00    +0.292 HD
ENDBRANCH  15  18
ENDBRANCH   1  12
TORSDOF 4
ENDMDL
