MODEL 1
REMARK VINA RESULT:      -8.0      0.000      0.000
REMARK  Name = 
REMARK                            x       y       z     vdW  Elec       q    Type
REMARK                         _______ _______ _______ _____ _____    ______ ____
ROOT
ATOM      1  C   LIG    1       64.870  44.909  33.540  0.00  0.00    +0.015 C 
ATOM      2  C   LIG    1       64.762  43.465  34.108  0.00  0.00    +0.021 C 
ATOM      3  C   LIG    1       66.309  45.362  33.916  0.00  0.00    +0.021 C 
ENDROOT
BRANCH   1   7
ATOM      4  C   LIG    1       61.966  47.605  35.370  0.00  0.00    +0.117 A 
ATOM      5  C   LIG    1       63.291  47.662  35.772  0.00  0.00    +0.046 A 
ATOM      6  C   LIG    1       64.241  46.819  35.184  0.00  0.00    +0.008 A 
ATOM      7  C   LIG    1       63.874  45.907  34.180  0.00  0.00    -0.037 A 
ATOM      8  C   LIG    1       62.518  45.884  33.787  0.00  0.00    +0.008 A 
ATOM      9  C   LIG    1       61.568  46.725  34.373  0.00  0.00    +0.046 A 
BRANCH   4  10
ATOM     10  O   LIG    1       61.072  48.430  35.984  0.00  0.00    -0.507 OA
ATOM     11  H   LIG    1       60.412  48.710  35.329  0.00  0.00    +0.292 HD
ENDBRANCH   4  10
ENDBRANCH   1   7
BRANCH   1  12
ATOM     12  C   LIG    1       64.619  44.862  32.011  0.00  0.00    -0.037 A 
ATOM     13  C   LIG    1       64.169  43.668  31.409  0.00  0.00    +0.008 A 
ATOM     14  C   LIG    1       63.855  43.610  30.049  0.00  0.00    +0.046 A 
ATOM     15  C   LIG    1       63.964  44.751  29.272  0.00  0.00    +0.117 A 
ATOM     16  C   LIG    1       64.402  45.945  29.828  0.00  0.00    +0.046 A 
ATOM     17  C   LIG    1       64.733  45.997  31.188  0.00  0.00    +0.008 A 
BRANCH  15  18
ATOM     18  O   LIG    1       63.611  44.663  27.958  0.00  0.00    -0.507 OA
ATOM     19  H   LIG    1       62.834  44.085  27.885  0.00  0.00    +0.292 HD
ENDBRANCH  15  18
ENDBRANCH   1  12
TORSDOF 4
ENDMDL
MODEL 2
REMARK VINA RESULT:      -7.9      0.153      5.453
REMARK  Name = 
REMARK                            x       y       z     vdW  Elec       q    Type
REMARK                         _______ _______ _______ _____ _____    ______ ____
ROOT
ATOM      1  C   LIG    1       64.777  44.916  33.397  0.00  0.00    +0.015 C 
ATOM      2  C   LIG    1       66.238  45.302  33.768  0.00  0.00    +0.021 C 
ATOM      3  C   LIG    1       64.617  43.464  33.929  0.00  0.00    +0.021 C 
ENDROOT
BRANCH   1   7
ATOM      4  C   LIG    1       63.879  44.796  29.127  0.00  0.00    +0.117 A 
ATOM      5  C   LIG    1       64.295  45.987  29.699  0.00  0.00    +0.046 A 
ATOM      6  C   LIG    1       64.607  46.042  31.062  0.00  0.00    +0.008 A 
ATOM      7  C   LIG    1       64.506  44.898  31.873  0.00  0.00    -0.037 A 
ATOM      8  C   LIG    1       64.089  43.699  31.255  0.00  0.00    +0.008 A 
ATOM      9  C   LIG    1       63.778  43.643  29.893  0.00  0.00    +0.046 A 
BRANCH   4  10
ATOM     10  O   LIG    1       63.568  44.794  27.801  0.00  0.00    -0.507 OA
ATOM     11  H   LIG    1       64.019  44.044  27.380  0.00  0.00    +0.292 HD
ENDBRANCH   4  10
ENDBRANCH   1   7
BRANCH   1  12
ATOM     12  C   LIG    1       63.811  45.927  34.065  0.00  0.00    -0.037 A 
ATOM     13  C   LIG    1       62.447  45.939  33.707  0.00  0.00    +0.008 A 
ATOM     14  C   LIG    1       61.532  46.780  34.345  0.00  0.00    +0.046 A 
ATOM     15  C   LIG    1       61.961  47.607  35.369  0.00  0.00    +0.117 A 
ATOM     16  C   LIG    1       63.296  47.623  35.752  0.00  0.00    +0.046 A 
ATOM     17  C   LIG    1       64.214  46.792  35.099  0.00  0.00    +0.008 A 
BRANCH  15  18
ATOM     18  O   LIG    1       61.031  48.384  35.993  0.00  0.00    -0.507 OA
ATOM     19  H   LIG    1       61.035  49.262  35.579  0.00  0.00    +0.292 HD
ENDBRANCH  15  18
ENDBRANCH   1  12
TORSDOF 4
ENDMDL
MODEL 3
REMARK VINA RESULT:      -7.7      5.090      6.544
REMARK  Name = 
REMARK                            x       y       z     vdW  Elec       q    Type
REMARK                         _______ _______ _______ _____ _____    ______ ____
ROOT
ATOM      1  C   LIG    1       60.193  46.837  28.962  0.00  0.00    +0.015 C 
ATOM      2  C   LIG    1       60.139  48.378  28.755  0.00  0.00    +0.021 C 
ATOM      3  C   LIG    1       60.606  46.278  27.571  0.00  0.00    +0.021 C 
ENDROOT
BRANCH   1   7
ATOM      4  C   LIG    1       56.303  45.088  29.887  0.00  0.00    +0.117 A 
ATOM      5  C   LIG    1       57.453  44.449  30.320  0.00  0.00    +0.046 A 
ATOM      6  C   LIG    1       58.710  45.003  30.051  0.00  0.00    +0.008 A 
ATOM      7  C   LIG    1       58.829  46.211  29.341  0.00  0.00    -0.037 A 
ATOM      8  C   LIG    1       57.635  46.840  28.924  0.00  0.00    +0.008 A 
ATOM      9  C   LIG    1       56.380  46.287  29.193  0.00  0.00    +0.046 A 
BRANCH   4  10
ATOM     10  O   LIG    1       55.103  44.501  30.154  0.00  0.00    -0.507 OA
ATOM     11  H   LIG    1       55.196  43.542  30.036  0.00  0.00    +0.292 HD
ENDBRANCH   4  10
ENDBRANCH   1   7
BRANCH   1  12
ATOM     12  C   LIG    1       61.218  46.521  30.082  0.00  0.00    -0.037 A 
ATOM     13  C   LIG    1       62.321  45.686  29.809  0.00  0.00    +0.008 A 
ATOM     14  C   LIG    1       63.307  45.444  30.769  0.00  0.00    +0.046 A 
ATOM     15  C   LIG    1       63.219  46.052  32.011  0.00  0.00    +0.117 A 
ATOM     16  C   LIG    1       62.148  46.882  32.316  0.00  0.00    +0.046 A 
ATOM     17  C   LIG    1       61.152  47.109  31.358  0.00  0.00    +0.008 A 
BRANCH  15  18
ATOM     18  O   LIG    1       64.220  45.822  32.906  0.00  0.00    -0.507 OA
ATOM     19  H   LIG    1       64.220  46.540  33.559  0.00  0.00    +0.292 HD
ENDBRANCH  15  18
ENDBRANCH   1  12
TORSDOF 4
ENDMDL
MODEL 4
REMARK VINA RESULT:      -7.7      5.081      6.486
REMARK  Name = 
REMARK                            x       y       z     vdW  Elec       q    Type
REMARK                         _______ _______ _______ _____ _____    ______ ____
ROOT
ATOM      1  C   LIG    1       60.197  46.820  28.934  0.00  0.00    +0.015 C 
ATOM      2  C   LIG    1       60.613  46.235  27.554  0.00  0.00    +0.021 C 
ATOM      3  C   LIG    1       60.142  48.355  28.698  0.00  0.00    +0.021 C 
ENDROOT
BRANCH   1   7
ATOM      4  C   LIG    1       63.203  46.084  32.013  0.00  0.00    +0.117 A 
ATOM      5  C   LIG    1       62.123  46.902  32.302  0.00  0.00    +0.046 A 
ATOM      6  C   LIG    1       61.138  47.135  31.335  0.00  0.00    +0.008 A 
ATOM      7  C   LIG    1       61.224  46.547  30.061  0.00  0.00    -0.037 A 
ATOM      8  C   LIG    1       62.332  45.711  29.804  0.00  0.00    +0.008 A 
ATOM      9  C   LIG    1       63.316  45.477  30.770  0.00  0.00    +0.046 A 
BRANCH   4  10
ATOM     10  O   LIG    1       64.147  45.901  32.978  0.00  0.00    -0.507 OA
ATOM     11  H   LIG    1       63.696  45.717  33.818  0.00  0.00    +0.292 HD
ENDBRANCH   4  10
ENDBRANCH   1   7
BRANCH   1  12
ATOM     12  C   LIG    1       58.832  46.210  29.342  0.00  0.00    -0.037 A 
ATOM     13  C   LIG    1       57.634  46.818  28.913  0.00  0.00    +0.008 A 
ATOM     14  C   LIG    1       56.387  46.253  29.193  0.00  0.00    +0.046 A 
ATOM     15  C   LIG    1       56.319  45.056  29.888  0.00  0.00    +0.117 A 
ATOM     16  C   LIG    1       57.476  44.427  30.326  0.00  0.00    +0.046 A 
ATOM     17  C   LIG    1       58.723  45.004  30.060  0.00  0.00    +0.008 A 
BRANCH  15  18
ATOM     18  O   LIG    1       55.086  44.517  30.107  0.00  0.00    -0.507 OA
ATOM     19  H   LIG    1       54.419  45.105  29.719  0.00  0.00    +0.292 HD
ENDBRANCH  15  18
ENDBRANCH   1  12
TORSDOF 4
ENDMDL
MODEL 5
REMARK VINA RESULT:      -7.6      5.057      6.523
REMARK  Name = 
REMARK                            x       y       z     vdW  Elec       q    Type
REMARK                         _______ _______ _______ _____ _____    ______ ____
ROOT
ATOM      1  C   LIG    1       60.173  46.837  28.932  0.00  0.00    +0.015 C 
ATOM      2  C   LIG    1       60.110  48.378  28.726  0.00  0.00    +0.021 C 
ATOM      3  C   LIG    1       60.591  46.282  27.542  0.00  0.00    +0.021 C 
ENDROOT
BRANCH   1   7
ATOM      4  C   LIG    1       56.383  45.042  30.142  0.00  0.00    +0.117 A 
ATOM      5  C   LIG    1       56.372  46.187  29.361  0.00  0.00    +0.046 A 
ATOM      6  C   LIG    1       57.577  46.767  28.946  0.00  0.00    +0.008 A 
ATOM      7  C   LIG    1       58.812  46.203  29.310  0.00  0.00    -0.037 A 
ATOM      8  C   LIG    1       58.785  45.032  30.097  0.00  0.00    +0.008 A 
ATOM      9  C   LIG    1       57.583  44.452  30.512  0.00  0.00    +0.046 A 
BRANCH   4  10
ATOM     10  O   LIG    1       55.187  44.524  30.539  0.00  0.00    -0.507 OA
ATOM     11  H   LIG    1       54.652  45.241  30.917  0.00  0.00    +0.292 HD
ENDBRANCH   4  10
ENDBRANCH   1   7
BRANCH   1  12
ATOM     12  C   LIG    1       61.198  46.526  30.053  0.00  0.00    -0.037 A 
ATOM     13  C   LIG    1       62.302  45.691  29.783  0.00  0.00    +0.008 A 
ATOM     14  C   LIG    1       63.289  45.453  30.744  0.00  0.00    +0.046 A 
ATOM     15  C   LIG    1       63.201  46.067  31.983  0.00  0.00    +0.117 A 
ATOM     16  C   LIG    1       62.130  46.897  32.285  0.00  0.00    +0.046 A 
ATOM     17  C   LIG    1       61.133  47.120  31.327  0.00  0.00    +0.008 A 
BRANCH  15  18
ATOM     18  O   LIG    1       64.203  45.841  32.878  0.00  0.00    -0.507 OA
ATOM     19  H   LIG    1       64.396  46.673  33.341  0.00  0.00    +0.292 HD
ENDBRANCH  15  18
ENDBRANCH   1  12
TORSDOF 4
ENDMDL
MODEL 6
REMARK VINA RESULT:      -7.5      4.379      6.775
REMARK  Name = 
REMARK                            x       y       z     vdW  Elec       q    Type
REMARK                         _______ _______ _______ _____ _____    ______ ____
ROOT
ATOM      1  C   LIG    1       60.825  46.940  29.166  0.00  0.00    +0.015 C 
ATOM      2  C   LIG    1       60.708  47.491  27.716  0.00  0.00    +0.021 C 
ATOM      3  C   LIG    1       61.166  48.190  30.025  0.00  0.00    +0.021 C 
ENDROOT
BRANCH   1   7
ATOM      4  C   LIG    1       64.086  44.063  29.543  0.00  0.00    +0.117 A 
ATOM      5  C   LIG    1       63.903  45.013  30.535  0.00  0.00    +0.046 A 
ATOM      6  C   LIG    1       62.851  45.933  30.442  0.00  0.00    +0.008 A 
ATOM      7  C   LIG    1       61.966  45.909  29.351  0.00  0.00    -0.037 A 
ATOM      8  C   LIG    1       62.176  44.921  28.365  0.00  0.00    +0.008 A 
ATOM      9  C   LIG    1       63.225  44.002  28.456  0.00  0.00    +0.046 A 
BRANCH   4  10
ATOM     10  O   LIG    1       65.134  43.201  29.665  0.00  0.00    -0.507 OA
ATOM     11  H   LIG    1       65.158  42.633  28.878  0.00  0.00    +0.292 HD
ENDBRANCH   4  10
ENDBRANCH   1   7
BRANCH   1  12
ATOM     12  C   LIG    1       59.480  46.274  29.555  0.00  0.00    -0.037 A 
ATOM     13  C   LIG    1       59.272  45.829  30.877  0.00  0.00    +0.008 A 
ATOM     14  C   LIG    1       58.046  45.298  31.283  0.00  0.00    +0.046 A 
ATOM     15  C   LIG    1       56.998  45.223  30.380  0.00  0.00    +0.117 A 
ATOM     16  C   LIG    1       57.164  45.652  29.070  0.00  0.00    +0.046 A 
ATOM     17  C   LIG    1       58.400  46.168  28.660  0.00  0.00    +0.008 A 
BRANCH  15  18
ATOM     18  O   LIG    1       55.806  44.735  30.825  0.00  0.00    -0.507 OA
ATOM     19  H   LIG    1       55.206  44.647  30.066  0.00  0.00    +0.292 HD
ENDBRANCH  15  18
ENDBRANCH   1  12
TORSDOF 4
ENDMDL
MODEL 7
REMARK VINA RESULT:      -7.3      2.412      3.744
REMARK  Name = 
REMARK                            x       y       z     vdW  Elec       q    Type
REMARK                         _______ _______ _______ _____ _____    ______ ____
ROOT
ATOM      1  C   LIG    1       63.976  44.725  30.251  0.00  0.00    +0.015 C 
ATOM      2  C   LIG    1       63.455  43.328  29.808  0.00  0.00    +0.021 C 
ATOM      3  C   LIG    1       65.452  44.755  29.763  0.00  0.00    +0.021 C 
ENDROOT
BRANCH   1   7
ATOM      4  C   LIG    1       64.121  45.253  34.581  0.00  0.00    +0.117 A 
ATOM      5  C   LIG    1       63.678  46.297  33.786  0.00  0.00    +0.046 A 
ATOM      6  C   LIG    1       63.605  46.141  32.397  0.00  0.00    +0.008 A 
ATOM      7  C   LIG    1       63.977  44.931  31.786  0.00  0.00    -0.037 A 
ATOM      8  C   LIG    1       64.415  43.885  32.628  0.00  0.00    +0.008 A 
ATOM      9  C   LIG    1       64.487  44.040  34.015  0.00  0.00    +0.046 A 
BRANCH   4  10
ATOM     10  O   LIG    1       64.194  45.457  35.927  0.00  0.00    -0.507 OA
ATOM     11  H   LIG    1       64.813  46.186  36.094  0.00  0.00    +0.292 HD
ENDBRANCH   4  10
ENDBRANCH   1   7
BRANCH   1  12
ATOM     12  C   LIG    1       63.089  45.816  29.600  0.00  0.00    -0.037 A 
ATOM     13  C   LIG    1       63.675  46.796  28.771  0.00  0.00    +0.008 A 
ATOM     14  C   LIG    1       62.898  47.746  28.103  0.00  0.00    +0.046 A 
ATOM     15  C   LIG    1       61.519  47.718  28.234  0.00  0.00    +0.117 A 
ATOM     16  C   LIG    1       60.906  46.768  29.040  0.00  0.00    +0.046 A 
ATOM     17  C   LIG    1       61.687  45.828  29.723  0.00  0.00    +0.008 A 
BRANCH  15  18
ATOM     18  O   LIG    1       60.794  48.637  27.536  0.00  0.00    -0.507 OA
ATOM     19  H   LIG    1       61.313  48.918  26.765  0.00  0.00    +0.292 HD
ENDBRANCH  15  18
ENDBRANCH   1  12
TORSDOF 4
ENDMDL
MODEL 8
REMARK VINA RESULT:      -7.3      2.398      5.406
REMARK  Name = 
REMARK                            x       y       z     vdW  Elec       q    Type
REMARK                         _______ _______ _______ _____ _____    ______ ____
ROOT
ATOM      1  C   LIG    1       63.993  44.705  30.244  0.00  0.00    +0.015 C 
ATOM      2  C   LIG    1       65.475  44.718  29.771  0.00  0.00    +0.021 C 
ATOM      3  C   LIG    1       63.463  43.311  29.806  0.00  0.00    +0.021 C 
ENDROOT
BRANCH   1   7
ATOM      4  C   LIG    1       61.584  47.717  28.200  0.00  0.00    +0.117 A 
ATOM      5  C   LIG    1       60.956  46.772  28.996  0.00  0.00    +0.046 A 
ATOM      6  C   LIG    1       61.712  45.810  29.675  0.00  0.00    +0.008 A 
ATOM      7  C   LIG    1       63.113  45.784  29.566  0.00  0.00    -0.037 A 
ATOM      8  C   LIG    1       63.720  46.767  28.755  0.00  0.00    +0.008 A 
ATOM      9  C   LIG    1       62.966  47.729  28.077  0.00  0.00    +0.046 A 
BRANCH   4  10
ATOM     10  O   LIG    1       60.807  48.623  27.543  0.00  0.00    -0.507 OA
ATOM     11  H   LIG    1       61.145  49.513  27.732  0.00  0.00    +0.292 HD
ENDBRANCH   4  10
ENDBRANCH   1   7
BRANCH   1  12
ATOM     12  C   LIG    1       63.958  44.922  31.778  0.00  0.00    -0.037 A 
ATOM     13  C   LIG    1       64.416  43.907  32.643  0.00  0.00    +0.008 A 
ATOM     14  C   LIG    1       64.476  44.097  34.025  0.00  0.00    +0.046 A 
ATOM     15  C   LIG    1       64.099  45.316  34.566  0.00  0.00    +0.117 A 
ATOM     16  C   LIG    1       63.644  46.341  33.747  0.00  0.00    +0.046 A 
ATOM     17  C   LIG    1       63.569  46.142  32.363  0.00  0.00    +0.008 A 
BRANCH  15  18
ATOM     18  O   LIG    1       64.209  45.476  35.915  0.00  0.00    -0.507 OA
ATOM     19  H   LIG    1       63.882  44.671  36.348  0.00  0.00    +0.292 HD
ENDBRANCH  15  18
ENDBRANCH   1  12
TORSDOF 4
ENDMDL
MODEL 9
REMARK VINA RESULT:      -7.3      3.343      5.250
REMARK  Name = 
REMARK                            x       y       z     vdW  Elec       q    Type
REMARK                         _______ _______ _______ _____ _____    ______ ____
ROOT
ATOM      1  C   LIG    1       63.242  45.192  28.726  0.00  0.00    +0.015 C 
ATOM      2  C   LIG    1       63.147  43.921  27.834  0.00  0.00    +0.021 C 
ATOM      3  C   LIG    1       64.211  46.130  27.954  0.00  0.00    +0.021 C 
ENDROOT
BRANCH   1   7
ATOM      4  C   LIG    1       64.859  44.545  32.729  0.00  0.00    +0.117 A 
ATOM      5  C   LIG    1       64.509  43.450  31.954  0.00  0.00    +0.046 A 
ATOM      6  C   LIG    1       64.007  43.636  30.660  0.00  0.00    +0.008 A 
ATOM      7  C   LIG    1       63.850  44.926  30.125  0.00  0.00    -0.037 A 
ATOM      8  C   LIG    1       64.226  46.018  30.939  0.00  0.00    +0.008 A 
ATOM      9  C   LIG    1       64.728  45.833  32.230  0.00  0.00    +0.046 A 
BRANCH   4  10
ATOM     10  O   LIG    1       65.324  44.317  33.989  0.00  0.00    -0.507 OA
ATOM     11  H   LIG    1       65.445  45.173  34.431  0.00  0.00    +0.292 HD
ENDBRANCH   4  10
ENDBRANCH   1   7
BRANCH   1  12
ATOM     12  C   LIG    1       61.820  45.784  28.902  0.00  0.00    -0.037 A 
ATOM     13  C   LIG    1       61.440  46.929  28.172  0.00  0.00    +0.008 A 
ATOM     14  C   LIG    1       60.143  47.443  28.244  0.00  0.00    +0.046 A 
ATOM     15  C   LIG    1       59.197  46.806  29.030  0.00  0.00    +0.117 A 
ATOM     16  C   LIG    1       59.532  45.675  29.762  0.00  0.00    +0.046 A 
ATOM     17  C   LIG    1       60.838  45.172  29.703  0.00  0.00    +0.008 A 
BRANCH  15  18
ATOM     18  O   LIG    1       57.933  47.315  29.043  0.00  0.00    -0.507 OA
ATOM     19  H   LIG    1       57.304  46.583  28.936  0.00  0.00    +0.292 HD
ENDBRANCH  15  18
ENDBRANCH   1  12
TORSDOF 4
ENDMDL
