MODEL 1
REMARK VINA RESULT:      -8.0      0.000      0.000
REMARK  Name = 
REMARK                            x       y       z     vdW  Elec       q    Type
REMARK                         _______ _______ _______ _____ _____    ______ ____
ROOT
ATOM      1  C   LIG    1       39.890  -1.387  16.320  0.00  0.00    +0.015 C 
ATOM      2  C   LIG    1       39.775  -2.104  14.945  0.00  0.00    +0.021 C 
ATOM      3  C   LIG    1       38.761  -2.022  17.179  0.00  0.00    +0.021 C 
ENDROOT
BRANCH   1   7
ATOM      4  C   LIG    1       39.133   2.897  15.979  0.00  0.00    +0.117 A 
ATOM      5  C   LIG    1       38.596   2.197  17.048  0.00  0.00    +0.046 A 
ATOM      6  C   LIG    1       38.844   0.827  17.186  0.00  0.00    +0.008 A 
ATOM      7  C   LIG    1       39.636   0.138  16.251  0.00  0.00    -0.037 A 
ATOM      8  C   LIG    1       40.175   0.885  15.181  0.00  0.00    +0.008 A 
ATOM      9  C   LIG    1       39.929   2.254  15.042  0.00  0.00    +0.046 A 
BRANCH   4  10
ATOM     10  O   LIG    1       38.849   4.226  15.874  0.00  0.00    -0.507 OA
ATOM     11  H   LIG    1       39.147   4.536  15.003  0.00  0.00    +0.292 HD
ENDBRANCH   4  10
ENDBRANCH   1   7
BRANCH   1  12
ATOM     12  C   LIG    1       41.310  -1.633  16.892  0.00  0.00    -0.037 A 
ATOM     13  C   LIG    1       41.776  -0.859  17.975  0.00  0.00    +0.008 A 
ATOM     14  C   LIG    1       43.017  -1.106  18.568  0.00  0.00    +0.046 A 
ATOM     15  C   LIG    1       43.804  -2.146  18.102  0.00  0.00    +0.117 A 
ATOM     16  C   LIG    1       43.380  -2.931  17.038  0.00  0.00    +0.046 A 
ATOM     17  C   LIG    1       42.143  -2.671  16.434  0.00  0.00    +0.008 A 
BRANCH  15  18
ATOM     18  O   LIG    1       44.990  -2.379  18.731  0.00  0.00    -0.507 OA
ATOM     19  H   LIG    1       44.900  -3.182  19.270  0.00  0.00    +0.292 HD
ENDBRANCH  15  18
ENDBRANCH   1  12
TORSDOF 4
ENDMDL
MODEL 2
REMARK VINA RESULT:      -7.9      0.047      5.674
REMARK  Name = 
REMARK                            x       y       z     vdW  Elec       q    Type
REMARK                         _______ _______ _______ _____ _____    ______ ____
ROOT
ATOM      1  C   LIG    1       39.915  -1.397  16.341  0.00  0.00    +0.015 C 
ATOM      2  C   LIG    1       38.769  -2.044  17.170  0.00  0.00    +0.021 C 
ATOM      3  C   LIG    1       39.834  -2.104  14.959  0.00  0.00    +0.021 C 
ENDROOT
BRANCH   1   7
ATOM      4  C   LIG    1       43.832  -2.115  18.127  0.00  0.00    +0.117 A 
ATOM      5  C   LIG    1       43.417  -2.903  17.066  0.00  0.00    +0.046 A 
ATOM      6  C   LIG    1       42.172  -2.677  16.466  0.00  0.00    +0.008 A 
ATOM      7  C   LIG    1       41.326  -1.652  16.925  0.00  0.00    -0.037 A 
ATOM      8  C   LIG    1       41.786  -0.862  18.001  0.00  0.00    +0.008 A 
ATOM      9  C   LIG    1       43.029  -1.088  18.600  0.00  0.00    +0.046 A 
BRANCH   4  10
ATOM     10  O   LIG    1       45.042  -2.385  18.692  0.00  0.00    -0.507 OA
ATOM     11  H   LIG    1       45.165  -3.348  18.709  0.00  0.00    +0.292 HD
ENDBRANCH   4  10
ENDBRANCH   1   7
BRANCH   1  12
ATOM     12  C   LIG    1       39.672   0.132  16.266  0.00  0.00    -0.037 A 
ATOM     13  C   LIG    1       40.202   0.876  15.192  0.00  0.00    +0.008 A 
ATOM     14  C   LIG    1       39.937   2.240  15.048  0.00  0.00    +0.046 A 
ATOM     15  C   LIG    1       39.117   2.879  15.965  0.00  0.00    +0.117 A 
ATOM     16  C   LIG    1       38.576   2.180  17.035  0.00  0.00    +0.046 A 
ATOM     17  C   LIG    1       38.857   0.817  17.187  0.00  0.00    +0.008 A 
BRANCH  15  18
ATOM     18  O   LIG    1       38.851   4.201  15.768  0.00  0.00    -0.507 OA
ATOM     19  H   LIG    1       37.894   4.340  15.863  0.00  0.00    +0.292 HD
ENDBRANCH  15  18
ENDBRANCH   1  12
TORSDOF 4
ENDMDL
MODEL 3
REMARK VINA RESULT:      -7.8      2.227      5.998
REMARK  Name = 
REMARK                            x       y       z     vdW  Elec       q    Type
REMARK                         _______ _______ _______ _____ _____    ______ ____
ROOT
ATOM      1  C   LIG    1       38.420  -0.792  13.662  0.00  0.00    +0.015 C 
ATOM      2  C   LIG    1       37.207  -1.727  13.392  0.00  0.00    +0.021 C 
ATOM      3  C   LIG    1       38.929  -0.405  12.245  0.00  0.00    +0.021 C 
ENDROOT
BRANCH   1   7
ATOM      4  C   LIG    1       41.718  -2.612  15.867  0.00  0.00    +0.117 A 
ATOM      5  C   LIG    1       40.533  -3.315  15.717  0.00  0.00    +0.046 A 
ATOM      6  C   LIG    1       39.470  -2.757  14.997  0.00  0.00    +0.008 A 
ATOM      7  C   LIG    1       39.584  -1.482  14.415  0.00  0.00    -0.037 A 
ATOM      8  C   LIG    1       40.808  -0.799  14.579  0.00  0.00    +0.008 A 
ATOM      9  C   LIG    1       41.870  -1.356  15.297  0.00  0.00    +0.046 A 
BRANCH   4  10
ATOM     10  O   LIG    1       42.718  -3.187  16.593  0.00  0.00    -0.507 OA
ATOM     11  H   LIG    1       43.042  -2.536  17.237  0.00  0.00    +0.292 HD
ENDBRANCH   4  10
ENDBRANCH   1   7
BRANCH   1  12
ATOM     12  C   LIG    1       37.936   0.423  14.495  0.00  0.00    -0.037 A 
ATOM     13  C   LIG    1       37.550   0.244  15.840  0.00  0.00    +0.008 A 
ATOM     14  C   LIG    1       37.185   1.326  16.644  0.00  0.00    +0.046 A 
ATOM     15  C   LIG    1       37.223   2.610  16.124  0.00  0.00    +0.117 A 
ATOM     16  C   LIG    1       37.598   2.826  14.805  0.00  0.00    +0.046 A 
ATOM     17  C   LIG    1       37.947   1.738  13.995  0.00  0.00    +0.008 A 
BRANCH  15  18
ATOM     18  O   LIG    1       36.897   3.642  16.952  0.00  0.00    -0.507 OA
ATOM     19  H   LIG    1       37.657   4.244  17.007  0.00  0.00    +0.292 HD
ENDBRANCH  15  18
ENDBRANCH   1  12
TORSDOF 4
ENDMDL
MODEL 4
REMARK VINA RESULT:      -7.7      1.847      6.088
REMARK  Name = 
REMARK                            x       y       z     vdW  Elec       q    Type
REMARK                         _______ _______ _______ _____ _____    ______ ____
ROOT
ATOM      1  C   LIG    1       38.681   0.173  15.732  0.00  0.00    +0.015 C 
ATOM      2  C   LIG    1       37.618  -0.906  16.085  0.00  0.00    +0.021 C 
ATOM      3  C   LIG    1       38.949  -0.035  14.215  0.00  0.00    +0.021 C 
ENDROOT
BRANCH   1   7
ATOM      4  C   LIG    1       42.411  -0.463  17.908  0.00  0.00    +0.117 A 
ATOM      5  C   LIG    1       42.457  -0.177  16.553  0.00  0.00    +0.046 A 
ATOM      6  C   LIG    1       41.274   0.050  15.841  0.00  0.00    +0.008 A 
ATOM      7  C   LIG    1       40.024  -0.007  16.482  0.00  0.00    -0.037 A 
ATOM      8  C   LIG    1       40.014  -0.291  17.865  0.00  0.00    +0.008 A 
ATOM      9  C   LIG    1       41.196  -0.517  18.577  0.00  0.00    +0.046 A 
BRANCH   4  10
ATOM     10  O   LIG    1       43.586  -0.696  18.556  0.00  0.00    -0.507 OA
ATOM     11  H   LIG    1       43.979  -1.509  18.199  0.00  0.00    +0.292 HD
ENDBRANCH   4  10
ENDBRANCH   1   7
BRANCH   1  12
ATOM     12  C   LIG    1       38.102   1.570  16.070  0.00  0.00    -0.037 A 
ATOM     13  C   LIG    1       38.476   2.691  15.299  0.00  0.00    +0.008 A 
ATOM     14  C   LIG    1       37.914   3.950  15.522  0.00  0.00    +0.046 A 
ATOM     15  C   LIG    1       36.950   4.106  16.506  0.00  0.00    +0.117 A 
ATOM     16  C   LIG    1       36.555   3.026  17.285  0.00  0.00    +0.046 A 
ATOM     17  C   LIG    1       37.133   1.769  17.071  0.00  0.00    +0.008 A 
BRANCH  15  18
ATOM     18  O   LIG    1       36.398   5.341  16.667  0.00  0.00    -0.507 OA
ATOM     19  H   LIG    1       36.761   5.739  17.475  0.00  0.00    +0.292 HD
ENDBRANCH  15  18
ENDBRANCH   1  12
TORSDOF 4
ENDMDL
MODEL 5
REMARK VINA RESULT:      -7.7      2.236      3.174
REMARK  Name = 
REMARK                            x       y       z     vdW  Elec       q    Type
REMARK                         _______ _______ _______ _____ _____    ______ ____
ROOT
ATOM      1  C   LIG    1       38.416  -0.711  13.753  0.00  0.00    +0.015 C 
ATOM      2  C   LIG    1       38.906  -0.411  12.307  0.00  0.00    +0.021 C 
ATOM      3  C   LIG    1       37.197  -1.654  13.557  0.00  0.00    +0.021 C 
ENDROOT
BRANCH   1   7
ATOM      4  C   LIG    1       37.139   2.790  16.025  0.00  0.00    +0.117 A 
ATOM      5  C   LIG    1       37.522   2.943  14.702  0.00  0.00    +0.046 A 
ATOM      6  C   LIG    1       37.916   1.830  13.950  0.00  0.00    +0.008 A 
ATOM      7  C   LIG    1       37.930   0.544  14.518  0.00  0.00    -0.037 A 
ATOM      8  C   LIG    1       37.524   0.424  15.865  0.00  0.00    +0.008 A 
ATOM      9  C   LIG    1       37.130   1.534  16.616  0.00  0.00    +0.046 A 
BRANCH   4  10
ATOM     10  O   LIG    1       36.782   3.904  16.724  0.00  0.00    -0.507 OA
ATOM     11  H   LIG    1       35.876   3.783  17.052  0.00  0.00    +0.292 HD
ENDBRANCH   4  10
ENDBRANCH   1   7
BRANCH   1  12
ATOM     12  C   LIG    1       39.578  -1.362  14.546  0.00  0.00    -0.037 A 
ATOM     13  C   LIG    1       39.440  -2.674  15.046  0.00  0.00    +0.008 A 
ATOM     14  C   LIG    1       40.493  -3.322  15.694  0.00  0.00    +0.046 A 
ATOM     15  C   LIG    1       41.712  -2.679  15.834  0.00  0.00    +0.117 A 
ATOM     16  C   LIG    1       41.888  -1.388  15.354  0.00  0.00    +0.046 A 
ATOM     17  C   LIG    1       40.825  -0.733  14.719  0.00  0.00    +0.008 A 
BRANCH  15  18
ATOM     18  O   LIG    1       42.727  -3.359  16.438  0.00  0.00    -0.507 OA
ATOM     19  H   LIG    1       43.398  -2.720  16.727  0.00  0.00    +0.292 HD
ENDBRANCH  15  18
ENDBRANCH   1  12
TORSDOF 4
ENDMDL
MODEL 6
REMARK VINA RESULT:      -7.6      1.549      1.916
REMARK  Name = 
REMARK                            x       y       z     vdW  Elec       q    Type
REMARK                         _______ _______ _______ _____ _____    ______ ____
ROOT
ATOM      1  C   LIG    1       38.995  -0.061  15.947  0.00  0.00    +0.015 C 
ATOM      2  C   LIG    1       39.224  -0.370  14.440  0.00  0.00    +0.021 C 
ATOM      3  C   LIG    1       37.908  -1.081  16.387  0.00  0.00    +0.021 C 
ENDROOT
BRANCH   1   7
ATOM      4  C   LIG    1       37.477   3.986  16.554  0.00  0.00    +0.117 A 
ATOM      5  C   LIG    1       36.754   2.910  17.045  0.00  0.00    +0.046 A 
ATOM      6  C   LIG    1       37.233   1.606  16.878  0.00  0.00    +0.008 A 
ATOM      7  C   LIG    1       38.449   1.363  16.215  0.00  0.00    -0.037 A 
ATOM      8  C   LIG    1       39.164   2.483  15.737  0.00  0.00    +0.008 A 
ATOM      9  C   LIG    1       38.686   3.786  15.904  0.00  0.00    +0.046 A 
BRANCH   4  10
ATOM     10  O   LIG    1       36.962   5.236  16.723  0.00  0.00    -0.507 OA
ATOM     11  H   LIG    1       37.007   5.462  17.666  0.00  0.00    +0.292 HD
ENDBRANCH   4  10
ENDBRANCH   1   7
BRANCH   1  12
ATOM     12  C   LIG    1       40.340  -0.231  16.699  0.00  0.00    -0.037 A 
ATOM     13  C   LIG    1       40.351  -0.336  18.106  0.00  0.00    +0.008 A 
ATOM     14  C   LIG    1       41.534  -0.570  18.811  0.00  0.00    +0.046 A 
ATOM     15  C   LIG    1       42.724  -0.728  18.119  0.00  0.00    +0.117 A 
ATOM     16  C   LIG    1       42.754  -0.633  16.735  0.00  0.00    +0.046 A 
ATOM     17  C   LIG    1       41.569  -0.380  16.031  0.00  0.00    +0.008 A 
BRANCH  15  18
ATOM     18  O   LIG    1       43.849  -0.994  18.840  0.00  0.00    -0.507 OA
ATOM     19  H   LIG    1       43.614  -1.590  19.570  0.00  0.00    +0.292 HD
ENDBRANCH  15  18
ENDBRANCH   1  12
TORSDOF 4
ENDMDL
MODEL 7
REMARK VINA RESULT:      -7.6      2.103      6.073
REMARK  Name = 
REMARK                            x       y       z     vdW  Elec       q    Type
REMARK                         _______ _______ _______ _____ _____    ______ ____
ROOT
ATOM      1  C   LIG    1       38.292  -0.573  13.954  0.00  0.00    +0.015 C 
ATOM      2  C   LIG    1       37.089  -1.527  13.701  0.00  0.00    +0.021 C 
ATOM      3  C   LIG    1       38.812  -0.226  12.531  0.00  0.00    +0.021 C 
ENDROOT
BRANCH   1   7
ATOM      4  C   LIG    1       41.571  -2.534  16.064  0.00  0.00    +0.117 A 
ATOM      5  C   LIG    1       41.645  -1.174  15.812  0.00  0.00    +0.046 A 
ATOM      6  C   LIG    1       40.595  -0.522  15.154  0.00  0.00    +0.008 A 
ATOM      7  C   LIG    1       39.453  -1.230  14.740  0.00  0.00    -0.037 A 
ATOM      8  C   LIG    1       39.407  -2.612  15.022  0.00  0.00    +0.008 A 
ATOM      9  C   LIG    1       40.454  -3.264  15.679  0.00  0.00    +0.046 A 
BRANCH   4  10
ATOM     10  O   LIG    1       42.624  -3.130  16.689  0.00  0.00    -0.507 OA
ATOM     11  H   LIG    1       42.351  -3.373  17.589  0.00  0.00    +0.292 HD
ENDBRANCH   4  10
ENDBRANCH   1   7
BRANCH   1  12
ATOM     12  C   LIG    1       37.788   0.663  14.744  0.00  0.00    -0.037 A 
ATOM     13  C   LIG    1       37.454   0.536  16.108  0.00  0.00    +0.008 A 
ATOM     14  C   LIG    1       37.074   1.643  16.872  0.00  0.00    +0.046 A 
ATOM     15  C   LIG    1       37.045   2.900  16.290  0.00  0.00    +0.117 A 
ATOM     16  C   LIG    1       37.368   3.065  14.949  0.00  0.00    +0.046 A 
ATOM     17  C   LIG    1       37.732   1.951  14.181  0.00  0.00    +0.008 A 
BRANCH  15  18
ATOM     18  O   LIG    1       36.707   3.959  17.077  0.00  0.00    -0.507 OA
ATOM     19  H   LIG    1       36.476   4.708  16.504  0.00  0.00    +0.292 HD
ENDBRANCH  15  18
ENDBRANCH   1  12
TORSDOF 4
ENDMDL
MODEL 8
REMARK VINA RESULT:      -7.6      3.265      6.592
REMARK  Name = 
REMARK                            x       y       z     vdW  Elec       q    Type
REMARK                         _______ _______ _______ _____ _____    ______ ____
ROOT
ATOM      1  C   LIG    1       42.946  -1.349  17.200  0.00  0.00    +0.015 C 
ATOM      2  C   LIG    1       43.605   0.007  16.817  0.00  0.00    +0.021 C 
ATOM      3  C   LIG    1       42.305  -1.085  18.591  0.00  0.00    +0.021 C 
ENDROOT
BRANCH   1   7
ATOM      4  C   LIG    1       45.813  -4.628  17.483  0.00  0.00    +0.117 A 
ATOM      5  C   LIG    1       45.977  -3.513  18.288  0.00  0.00    +0.046 A 
ATOM      6  C   LIG    1       45.058  -2.459  18.227  0.00  0.00    +0.008 A 
ATOM      7  C   LIG    1       43.957  -2.512  17.354  0.00  0.00    -0.037 A 
ATOM      8  C   LIG    1       43.815  -3.667  16.556  0.00  0.00    +0.008 A 
ATOM      9  C   LIG    1       44.732  -4.720  16.617  0.00  0.00    +0.046 A 
BRANCH   4  10
ATOM     10  O   LIG    1       46.743  -5.621  17.562  0.00  0.00    -0.507 OA
ATOM     11  H   LIG    1       46.285  -6.457  17.747  0.00  0.00    +0.292 HD
ENDBRANCH   4  10
ENDBRANCH   1   7
BRANCH   1  12
ATOM     12  C   LIG    1       41.913  -1.726  16.107  0.00  0.00    -0.037 A 
ATOM     13  C   LIG    1       40.791  -2.512  16.442  0.00  0.00    +0.008 A 
ATOM     14  C   LIG    1       39.798  -2.804  15.503  0.00  0.00    +0.046 A 
ATOM     15  C   LIG    1       39.899  -2.295  14.219  0.00  0.00    +0.117 A 
ATOM     16  C   LIG    1       40.988  -1.515  13.852  0.00  0.00    +0.046 A 
ATOM     17  C   LIG    1       41.990  -1.239  14.789  0.00  0.00    +0.008 A 
BRANCH  15  18
ATOM     18  O   LIG    1       38.891  -2.569  13.344  0.00  0.00    -0.507 OA
ATOM     19  H   LIG    1       38.946  -3.506  13.094  0.00  0.00    +0.292 HD
ENDBRANCH  15  18
ENDBRANCH   1  12
TORSDOF 4
ENDMDL
MODEL 9
REMARK VINA RESULT:      -7.5      2.053      5.819
REMARK  Name = 
REMARK                            x       y       z     vdW  Elec       q    Type
REMARK                         _______ _______ _______ _____ _____    ______ ____
ROOT
ATOM      1  C   LIG    1       40.114  -0.883  17.007  0.00  0.00    +0.015 C 
ATOM      2  C   LIG    1       39.960   0.555  17.580  0.00  0.00    +0.021 C 
ATOM      3  C   LIG    1       39.088  -1.728  17.812  0.00  0.00    +0.021 C 
ENDROOT
BRANCH   1   7
ATOM      4  C   LIG    1       44.045  -2.611  17.789  0.00  0.00    +0.117 A 
ATOM      5  C   LIG    1       43.236  -3.179  16.818  0.00  0.00    +0.046 A 
ATOM      6  C   LIG    1       41.980  -2.628  16.538  0.00  0.00    +0.008 A 
ATOM      7  C   LIG    1       41.518  -1.495  17.231  0.00  0.00    -0.037 A 
ATOM      8  C   LIG    1       42.373  -0.937  18.206  0.00  0.00    +0.008 A 
ATOM      9  C   LIG    1       43.627  -1.486  18.486  0.00  0.00    +0.046 A 
BRANCH   4  10
ATOM     10  O   LIG    1       45.250  -3.193  18.041  0.00  0.00    -0.507 OA
ATOM     11  H   LIG    1       45.501  -2.996  18.958  0.00  0.00    +0.292 HD
ENDBRANCH   4  10
ENDBRANCH   1   7
BRANCH   1  12
ATOM     12  C   LIG    1       39.821  -0.845  15.485  0.00  0.00    -0.037 A 
ATOM     13  C   LIG    1       38.799  -1.653  14.946  0.00  0.00    +0.008 A 
ATOM     14  C   LIG    1       38.453  -1.587  13.594  0.00  0.00    +0.046 A 
ATOM     15  C   LIG    1       39.108  -0.694  12.762  0.00  0.00    +0.117 A 
ATOM     16  C   LIG    1       40.120   0.119  13.256  0.00  0.00    +0.046 A 
ATOM     17  C   LIG    1       40.477   0.039  14.608  0.00  0.00    +0.008 A 
BRANCH  15  18
ATOM     18  O   LIG    1       38.716  -0.631  11.458  0.00  0.00    -0.507 OA
ATOM     19  H   LIG    1       37.775  -0.867  11.408  0.00  0.00    +0.292 HD
ENDBRANCH  15  18
ENDBRANCH   1  12
TORSDOF 4
ENDMDL
