MODEL 1
REMARK VINA RESULT:      -8.1      0.000      0.000
REMARK  Name = 
REMARK                            x       y       z     vdW  Elec       q    Type
REMARK                         _______ _______ _______ _____ _____    ______ ____
ROOT
ATOM      1  C   LIG    1       18.613  29.209  10.729  0.00  0.00    +0.015 C 
ATOM      2  C   LIG    1       18.262  27.804  11.298  0.00  0.00    +0.021 C 
ATOM      3  C   LIG    1       19.121  30.006  11.963  0.00  0.00    +0.021 C 
ENDROOT
BRANCH   1   7
ATOM      4  C   LIG    1       15.260  31.471   9.086  0.00  0.00    +0.117 A 
ATOM      5  C   LIG    1       15.694  30.329   8.431  0.00  0.00    +0.046 A 
ATOM      6  C   LIG    1       16.755  29.579   8.952  0.00  0.00    +0.008 A 
ATOM      7  C   LIG    1       17.396  29.965  10.142  0.00  0.00    -0.037 A 
ATOM      8  C   LIG    1       16.921  31.127  10.788  0.00  0.00    +0.008 A 
ATOM      9  C   LIG    1       15.862  31.877  10.269  0.00  0.00    +0.046 A 
BRANCH   4  10
ATOM     10  O   LIG    1       14.238  32.180   8.532  0.00  0.00    -0.507 OA
ATOM     11  H   LIG    1       14.569  32.625   7.735  0.00  0.00    +0.292 HD
ENDBRANCH   4  10
ENDBRANCH   1   7
BRANCH   1  12
ATOM     12  C   LIG    1       19.682  29.044   9.619  0.00  0.00    -0.037 A 
ATOM     13  C   LIG    1       20.369  30.174   9.130  0.00  0.00    +0.008 A 
ATOM     14  C   LIG    1       21.394  30.054   8.189  0.00  0.00    +0.046 A 
ATOM     15  C   LIG    1       21.767  28.799   7.738  0.00  0.00    +0.117 A 
ATOM     16  C   LIG    1       21.116  27.661   8.197  0.00  0.00    +0.046 A 
ATOM     17  C   LIG    1       20.076  27.785   9.127  0.00  0.00    +0.008 A 
BRANCH  15  18
ATOM     18  O   LIG    1       22.798  28.721   6.850  0.00  0.00    -0.507 OA
ATOM     19  H   LIG    1       23.440  28.072   7.180  0.00  0.00    +0.292 HD
ENDBRANCH  15  18
ENDBRANCH   1  12
TORSDOF 4
ENDMDL
MODEL 2
REMARK VINA RESULT:      -8.0      0.103      5.588
REMARK  Name = 
REMARK                            x       y       z     vdW  Elec       q    Type
REMARK                         _______ _______ _______ _____ _____    ______ ____
ROOT
ATOM      1  C   LIG    1       18.657  29.247  10.735  0.00  0.00    +0.015 C 
ATOM      2  C   LIG    1       19.200  29.969  12.002  0.00  0.00    +0.021 C 
ATOM      3  C   LIG    1       18.204  27.853  11.253  0.00  0.00    +0.021 C 
ENDROOT
BRANCH   1   7
ATOM      4  C   LIG    1       21.770  28.708   7.724  0.00  0.00    +0.117 A 
ATOM      5  C   LIG    1       21.103  27.597   8.216  0.00  0.00    +0.046 A 
ATOM      6  C   LIG    1       20.088  27.750   9.168  0.00  0.00    +0.008 A 
ATOM      7  C   LIG    1       19.727  29.025   9.639  0.00  0.00    -0.037 A 
ATOM      8  C   LIG    1       20.420  30.135   9.108  0.00  0.00    +0.008 A 
ATOM      9  C   LIG    1       21.433  29.983   8.157  0.00  0.00    +0.046 A 
BRANCH   4  10
ATOM     10  O   LIG    1       22.764  28.510   6.813  0.00  0.00    -0.507 OA
ATOM     11  H   LIG    1       23.459  29.169   6.970  0.00  0.00    +0.292 HD
ENDBRANCH   4  10
ENDBRANCH   1   7
BRANCH   1  12
ATOM     12  C   LIG    1       17.499  30.089  10.142  0.00  0.00    -0.037 A 
ATOM     13  C   LIG    1       16.847  29.659   8.967  0.00  0.00    +0.008 A 
ATOM     14  C   LIG    1       15.748  30.348   8.449  0.00  0.00    +0.046 A 
ATOM     15  C   LIG    1       15.267  31.467   9.108  0.00  0.00    +0.117 A 
ATOM     16  C   LIG    1       15.882  31.922  10.268  0.00  0.00    +0.046 A 
ATOM     17  C   LIG    1       16.994  31.239  10.776  0.00  0.00    +0.008 A 
BRANCH  15  18
ATOM     18  O   LIG    1       14.170  32.089   8.592  0.00  0.00    -0.507 OA
ATOM     19  H   LIG    1       13.623  31.425   8.142  0.00  0.00    +0.292 HD
ENDBRANCH  15  18
ENDBRANCH   1  12
TORSDOF 4
ENDMDL
MODEL 3
REMARK VINA RESULT:      -7.9      2.614      5.583
REMARK  Name = 
REMARK                            x       y       z     vdW  Elec       q    Type
REMARK                         _______ _______ _______ _____ _____    ______ ____
ROOT
ATOM      1  C   LIG    1       18.753  29.376  10.095  0.00  0.00    +0.015 C 
ATOM      2  C   LIG    1       18.817  27.997   9.377  0.00  0.00    +0.021 C 
ATOM      3  C   LIG    1       19.984  30.150   9.548  0.00  0.00    +0.021 C 
ENDROOT
BRANCH   1   7
ATOM      4  C   LIG    1       19.188  28.973  14.419  0.00  0.00    +0.117 A 
ATOM      5  C   LIG    1       19.768  30.055  13.777  0.00  0.00    +0.046 A 
ATOM      6  C   LIG    1       19.624  30.213  12.394  0.00  0.00    +0.008 A 
ATOM      7  C   LIG    1       18.892  29.284  11.634  0.00  0.00    -0.037 A 
ATOM      8  C   LIG    1       18.306  28.200  12.322  0.00  0.00    +0.008 A 
ATOM      9  C   LIG    1       18.449  28.041  13.703  0.00  0.00    +0.046 A 
BRANCH   4  10
ATOM     10  O   LIG    1       19.371  28.849  15.763  0.00  0.00    -0.507 OA
ATOM     11  H   LIG    1       19.780  27.986  15.939  0.00  0.00    +0.292 HD
ENDBRANCH   4  10
ENDBRANCH   1   7
BRANCH   1  12
ATOM     12  C   LIG    1       17.399  30.051   9.753  0.00  0.00    -0.037 A 
ATOM     13  C   LIG    1       16.977  31.185  10.477  0.00  0.00    +0.008 A 
ATOM     14  C   LIG    1       15.804  31.868  10.145  0.00  0.00    +0.046 A 
ATOM     15  C   LIG    1       15.045  31.440   9.068  0.00  0.00    +0.117 A 
ATOM     16  C   LIG    1       15.428  30.328   8.330  0.00  0.00    +0.046 A 
ATOM     17  C   LIG    1       16.595  29.636   8.676  0.00  0.00    +0.008 A 
BRANCH  15  18
ATOM     18  O   LIG    1       13.928  32.155   8.752  0.00  0.00    -0.507 OA
ATOM     19  H   LIG    1       13.181  31.541   8.671  0.00  0.00    +0.292 HD
ENDBRANCH  15  18
ENDBRANCH   1  12
TORSDOF 4
ENDMDL
MODEL 4
REMARK VINA RESULT:      -7.9      2.609      4.108
REMARK  Name = 
REMARK                            x       y       z     vdW  Elec       q    Type
REMARK                         _______ _______ _______ _____ _____    ______ ____
ROOT
ATOM      1  C   LIG    1       18.755  29.389  10.082  0.00  0.00    +0.015 C 
ATOM      2  C   LIG    1       20.016  30.105   9.519  0.00  0.00    +0.021 C 
ATOM      3  C   LIG    1       18.766  27.995   9.393  0.00  0.00    +0.021 C 
ENDROOT
BRANCH   1   7
ATOM      4  C   LIG    1       15.075  31.502   9.062  0.00  0.00    +0.117 A 
ATOM      5  C   LIG    1       15.492  30.446   8.268  0.00  0.00    +0.046 A 
ATOM      6  C   LIG    1       16.659  29.743   8.589  0.00  0.00    +0.008 A 
ATOM      7  C   LIG    1       17.424  30.091   9.716  0.00  0.00    -0.037 A 
ATOM      8  C   LIG    1       16.964  31.165  10.508  0.00  0.00    +0.008 A 
ATOM      9  C   LIG    1       15.799  31.867  10.188  0.00  0.00    +0.046 A 
BRANCH   4  10
ATOM     10  O   LIG    1       13.944  32.170   8.700  0.00  0.00    -0.507 OA
ATOM     11  H   LIG    1       13.346  32.198   9.465  0.00  0.00    +0.292 HD
ENDBRANCH   4  10
ENDBRANCH   1   7
BRANCH   1  12
ATOM     12  C   LIG    1       18.874  29.314  11.626  0.00  0.00    -0.037 A 
ATOM     13  C   LIG    1       18.310  28.224  12.322  0.00  0.00    +0.008 A 
ATOM     14  C   LIG    1       18.467  28.082  13.703  0.00  0.00    +0.046 A 
ATOM     15  C   LIG    1       19.209  29.015  14.408  0.00  0.00    +0.117 A 
ATOM     16  C   LIG    1       19.780  30.101  13.758  0.00  0.00    +0.046 A 
ATOM     17  C   LIG    1       19.607  30.251  12.376  0.00  0.00    +0.008 A 
BRANCH  15  18
ATOM     18  O   LIG    1       19.371  28.820  15.747  0.00  0.00    -0.507 OA
ATOM     19  H   LIG    1       20.168  29.294  16.034  0.00  0.00    +0.292 HD
ENDBRANCH  15  18
ENDBRANCH   1  12
TORSDOF 4
ENDMDL
MODEL 5
REMARK VINA RESULT:      -7.4      3.028      4.999
REMARK  Name = 
REMARK                            x       y       z     vdW  Elec       q    Type
REMARK                         _______ _______ _______ _____ _____    ______ ____
ROOT
ATOM      1  C   LIG    1       19.267  28.998  11.082  0.00  0.00    +0.015 C 
ATOM      2  C   LIG    1       18.494  30.270  10.627  0.00  0.00    +0.021 C 
ATOM      3  C   LIG    1       18.160  27.924  11.268  0.00  0.00    +0.021 C 
ENDROOT
BRANCH   1   7
ATOM      4  C   LIG    1       21.317  29.323  14.921  0.00  0.00    +0.117 A 
ATOM      5  C   LIG    1       21.913  29.853  13.787  0.00  0.00    +0.046 A 
ATOM      6  C   LIG    1       21.263  29.777  12.550  0.00  0.00    +0.008 A 
ATOM      7  C   LIG    1       20.002  29.166  12.434  0.00  0.00    -0.037 A 
ATOM      8  C   LIG    1       19.420  28.646  13.611  0.00  0.00    +0.008 A 
ATOM      9  C   LIG    1       20.068  28.723  14.847  0.00  0.00    +0.046 A 
BRANCH   4  10
ATOM     10  O   LIG    1       21.995  29.403  16.100  0.00  0.00    -0.507 OA
ATOM     11  H   LIG    1       22.776  29.965  15.968  0.00  0.00    +0.292 HD
ENDBRANCH   4  10
ENDBRANCH   1   7
BRANCH   1  12
ATOM     12  C   LIG    1       20.304  28.631   9.990  0.00  0.00    -0.037 A 
ATOM     13  C   LIG    1       20.754  27.300   9.867  0.00  0.00    +0.008 A 
ATOM     14  C   LIG    1       21.626  26.916   8.845  0.00  0.00    +0.046 A 
ATOM     15  C   LIG    1       22.045  27.852   7.915  0.00  0.00    +0.117 A 
ATOM     16  C   LIG    1       21.624  29.172   8.001  0.00  0.00    +0.046 A 
ATOM     17  C   LIG    1       20.763  29.559   9.037  0.00  0.00    +0.008 A 
BRANCH  15  18
ATOM     18  O   LIG    1       22.865  27.430   6.911  0.00  0.00    -0.507 OA
ATOM     19  H   LIG    1       23.702  27.918   6.970  0.00  0.00    +0.292 HD
ENDBRANCH  15  18
ENDBRANCH   1  12
TORSDOF 4
ENDMDL
MODEL 6
REMARK VINA RESULT:      -7.4      3.017      5.863
REMARK  Name = 
REMARK                            x       y       z     vdW  Elec       q    Type
REMARK                         _______ _______ _______ _____ _____    ______ ____
ROOT
ATOM      1  C   LIG    1       19.227  29.027  11.115  0.00  0.00    +0.015 C 
ATOM      2  C   LIG    1       18.099  27.976  11.322  0.00  0.00    +0.021 C 
ATOM      3  C   LIG    1       18.478  30.304  10.641  0.00  0.00    +0.021 C 
ENDROOT
BRANCH   1   7
ATOM      4  C   LIG    1       22.017  27.810   7.988  0.00  0.00    +0.117 A 
ATOM      5  C   LIG    1       21.590  29.127   8.039  0.00  0.00    +0.046 A 
ATOM      6  C   LIG    1       20.711  29.542   9.046  0.00  0.00    +0.008 A 
ATOM      7  C   LIG    1       20.248  28.638  10.018  0.00  0.00    -0.037 A 
ATOM      8  C   LIG    1       20.711  27.307   9.941  0.00  0.00    +0.008 A 
ATOM      9  C   LIG    1       21.590  26.891   8.936  0.00  0.00    +0.046 A 
BRANCH   4  10
ATOM     10  O   LIG    1       22.857  27.446   6.978  0.00  0.00    -0.507 OA
ATOM     11  H   LIG    1       22.437  26.733   6.471  0.00  0.00    +0.292 HD
ENDBRANCH   4  10
ENDBRANCH   1   7
BRANCH   1  12
ATOM     12  C   LIG    1       19.981  29.217  12.456  0.00  0.00    -0.037 A 
ATOM     13  C   LIG    1       19.450  28.673  13.644  0.00  0.00    +0.008 A 
ATOM     14  C   LIG    1       20.141  28.754  14.856  0.00  0.00    +0.046 A 
ATOM     15  C   LIG    1       21.385  29.362  14.896  0.00  0.00    +0.117 A 
ATOM     16  C   LIG    1       21.941  29.909  13.747  0.00  0.00    +0.046 A 
ATOM     17  C   LIG    1       21.239  29.842  12.537  0.00  0.00    +0.008 A 
BRANCH  15  18
ATOM     18  O   LIG    1       22.044  29.387  16.089  0.00  0.00    -0.507 OA
ATOM     19  H   LIG    1       22.483  30.249  16.180  0.00  0.00    +0.292 HD
ENDBRANCH  15  18
ENDBRANCH   1  12
TORSDOF 4
ENDMDL
MODEL 7
REMARK VINA RESULT:      -7.3      2.567      5.584
REMARK  Name = 
REMARK                            x       y       z     vdW  Elec       q    Type
REMARK                         _______ _______ _______ _____ _____    ______ ____
ROOT
ATOM      1  C   LIG    1       18.402  29.242   9.865  0.00  0.00    +0.015 C 
ATOM      2  C   LIG    1       17.342  28.198   9.409  0.00  0.00    +0.021 C 
ATOM      3  C   LIG    1       17.751  30.616   9.539  0.00  0.00    +0.021 C 
ENDROOT
BRANCH   1   7
ATOM      4  C   LIG    1       22.104  28.895   7.578  0.00  0.00    +0.117 A 
ATOM      5  C   LIG    1       21.646  30.152   7.941  0.00  0.00    +0.046 A 
ATOM      6  C   LIG    1       20.472  30.284   8.690  0.00  0.00    +0.008 A 
ATOM      7  C   LIG    1       19.739  29.152   9.089  0.00  0.00    -0.037 A 
ATOM      8  C   LIG    1       20.240  27.887   8.712  0.00  0.00    +0.008 A 
ATOM      9  C   LIG    1       21.413  27.754   7.963  0.00  0.00    +0.046 A 
BRANCH   4  10
ATOM     10  O   LIG    1       23.240  28.816   6.832  0.00  0.00    -0.507 OA
ATOM     11  H   LIG    1       23.821  28.144   7.225  0.00  0.00    +0.292 HD
ENDBRANCH   4  10
ENDBRANCH   1   7
BRANCH   1  12
ATOM     12  C   LIG    1       18.684  29.037  11.375  0.00  0.00    -0.037 A 
ATOM     13  C   LIG    1       19.105  30.126  12.166  0.00  0.00    +0.008 A 
ATOM     14  C   LIG    1       19.292  29.997  13.545  0.00  0.00    +0.046 A 
ATOM     15  C   LIG    1       19.037  28.783  14.160  0.00  0.00    +0.117 A 
ATOM     16  C   LIG    1       18.619  27.688  13.416  0.00  0.00    +0.046 A 
ATOM     17  C   LIG    1       18.451  27.814  12.031  0.00  0.00    +0.008 A 
BRANCH  15  18
ATOM     18  O   LIG    1       19.193  28.708  15.512  0.00  0.00    -0.507 OA
ATOM     19  H   LIG    1       20.084  28.373  15.702  0.00  0.00    +0.292 HD
ENDBRANCH  15  18
ENDBRANCH   1  12
TORSDOF 4
ENDMDL
MODEL 8
REMARK VINA RESULT:      -7.3      1.121      1.790
REMARK  Name = 
REMARK                            x       y       z     vdW  Elec       q    Type
REMARK                         _______ _______ _______ _____ _____    ______ ____
ROOT
ATOM      1  C   LIG    1       19.641  28.668  11.439  0.00  0.00    +0.015 C 
ATOM      2  C   LIG    1       19.229  27.287  12.027  0.00  0.00    +0.021 C 
ATOM      3  C   LIG    1       20.410  29.363  12.597  0.00  0.00    +0.021 C 
ENDROOT
BRANCH   1   7
ATOM      4  C   LIG    1       16.340  31.322  10.385  0.00  0.00    +0.117 A 
ATOM      5  C   LIG    1       16.629  30.242   9.566  0.00  0.00    +0.046 A 
ATOM      6  C   LIG    1       17.671  29.368   9.897  0.00  0.00    +0.008 A 
ATOM      7  C   LIG    1       18.438  29.566  11.058  0.00  0.00    -0.037 A 
ATOM      8  C   LIG    1       18.108  30.670  11.875  0.00  0.00    +0.008 A 
ATOM      9  C   LIG    1       17.068  31.543  11.545  0.00  0.00    +0.046 A 
BRANCH   4  10
ATOM     10  O   LIG    1       15.330  32.157  10.013  0.00  0.00    -0.507 OA
ATOM     11  H   LIG    1       15.613  33.072  10.173  0.00  0.00    +0.292 HD
ENDBRANCH   4  10
ENDBRANCH   1   7
BRANCH   1  12
ATOM     12  C   LIG    1       20.509  28.432  10.177  0.00  0.00    -0.037 A 
ATOM     13  C   LIG    1       20.909  27.124   9.833  0.00  0.00    +0.008 A 
ATOM     14  C   LIG    1       21.624  26.864   8.661  0.00  0.00    +0.046 A 
ATOM     15  C   LIG    1       21.930  27.905   7.800  0.00  0.00    +0.117 A 
ATOM     16  C   LIG    1       21.552  29.207   8.103  0.00  0.00    +0.046 A 
ATOM     17  C   LIG    1       20.852  29.467   9.287  0.00  0.00    +0.008 A 
BRANCH  15  18
ATOM     18  O   LIG    1       22.593  27.605   6.648  0.00  0.00    -0.507 OA
ATOM     19  H   LIG    1       21.986  27.130   6.058  0.00  0.00    +0.292 HD
ENDBRANCH  15  18
ENDBRANCH   1  12
TORSDOF 4
ENDMDL
MODEL 9
REMARK VINA RESULT:      -7.2      2.777      4.168
REMARK  Name = 
REMARK                            x       y       z     vdW  Elec       q    Type
REMARK                         _______ _______ _______ _____ _____    ______ ____
ROOT
ATOM      1  C   LIG    1       18.697  29.152  10.032  0.00  0.00    +0.015 C 
ATOM      2  C   LIG    1       18.326  30.595   9.583  0.00  0.00    +0.021 C 
ATOM      3  C   LIG    1       17.459  28.299   9.640  0.00  0.00    +0.021 C 
ENDROOT
BRANCH   1   7
ATOM      4  C   LIG    1       19.248  28.896  14.354  0.00  0.00    +0.117 A 
ATOM      5  C   LIG    1       18.560  27.888  13.698  0.00  0.00    +0.046 A 
ATOM      6  C   LIG    1       18.389  27.941  12.309  0.00  0.00    +0.008 A 
ATOM      7  C   LIG    1       18.910  29.011  11.559  0.00  0.00    -0.037 A 
ATOM      8  C   LIG    1       19.613  30.014  12.259  0.00  0.00    +0.008 A 
ATOM      9  C   LIG    1       19.784  29.961  13.646  0.00  0.00    +0.046 A 
BRANCH   4  10
ATOM     10  O   LIG    1       19.372  28.812  15.708  0.00  0.00    -0.507 OA
ATOM     11  H   LIG    1       20.070  28.169  15.914  0.00  0.00    +0.292 HD
ENDBRANCH   4  10
ENDBRANCH   1   7
BRANCH   1  12
ATOM     12  C   LIG    1       19.997  28.724   9.304  0.00  0.00    -0.037 A 
ATOM     13  C   LIG    1       20.375  27.366   9.282  0.00  0.00    +0.008 A 
ATOM     14  C   LIG    1       21.495  26.932   8.569  0.00  0.00    +0.046 A 
ATOM     15  C   LIG    1       22.243  27.846   7.845  0.00  0.00    +0.117 A 
ATOM     16  C   LIG    1       21.901  29.192   7.840  0.00  0.00    +0.046 A 
ATOM     17  C   LIG    1       20.788  29.627   8.570  0.00  0.00    +0.008 A 
BRANCH  15  18
ATOM     18  O   LIG    1       23.305  27.378   7.130  0.00  0.00    -0.507 OA
ATOM     19  H   LIG    1       24.037  28.010   7.215  0.00  0.00    +0.292 HD
ENDBRANCH  15  18
ENDBRANCH   1  12
TORSDOF 4
ENDMDL
