MODEL 1
REMARK VINA RESULT:      -8.5      0.000      0.000
REMARK  Name = 
REMARK                            x       y       z     vdW  Elec       q    Type
REMARK                         _______ _______ _______ _____ _____    ______ ____
ROOT
ATOM      1  C   LIG    1       30.306  -0.997  27.833  0.00  0.00    +0.015 C 
ATOM      2  C   LIG    1       30.144   0.535  28.050  0.00  0.00    +0.021 C 
ATOM      3  C   LIG    1       31.225  -1.455  28.999  0.00  0.00    +0.021 C 
ENDROOT
BRANCH   1   7
ATOM      4  C   LIG    1       32.232  -2.185  24.101  0.00  0.00    +0.117 A 
ATOM      5  C   LIG    1       31.373  -1.098  24.104  0.00  0.00    +0.046 A 
ATOM      6  C   LIG    1       30.760  -0.689  25.294  0.00  0.00    +0.008 A 
ATOM      7  C   LIG    1       31.004  -1.367  26.501  0.00  0.00    -0.037 A 
ATOM      8  C   LIG    1       31.893  -2.463  26.463  0.00  0.00    +0.008 A 
ATOM      9  C   LIG    1       32.505  -2.872  25.276  0.00  0.00    +0.046 A 
BRANCH   4  10
ATOM     10  O   LIG    1       32.790  -2.560  22.916  0.00  0.00    -0.507 OA
ATOM     11  H   LIG    1       33.666  -2.939  23.095  0.00  0.00    +0.292 HD
ENDBRANCH   4  10
ENDBRANCH   1   7
BRANCH   1  12
ATOM     12  C   LIG    1       28.901  -1.654  27.862  0.00  0.00    -0.037 A 
ATOM     13  C   LIG    1       28.782  -3.052  28.000  0.00  0.00    +0.008 A 
ATOM     14  C   LIG    1       27.534  -3.671  28.110  0.00  0.00    +0.046 A 
ATOM     15  C   LIG    1       26.384  -2.898  28.108  0.00  0.00    +0.117 A 
ATOM     16  C   LIG    1       26.461  -1.518  27.975  0.00  0.00    +0.046 A 
ATOM     17  C   LIG    1       27.712  -0.902  27.846  0.00  0.00    +0.008 A 
BRANCH  15  18
ATOM     18  O   LIG    1       25.189  -3.535  28.257  0.00  0.00    -0.507 OA
ATOM     19  H   LIG    1       24.749  -3.184  29.049  0.00  0.00    +0.292 HD
ENDBRANCH  15  18
ENDBRANCH   1  12
TORSDOF 4
ENDMDL
MODEL 2
REMARK VINA RESULT:      -8.5      0.079      5.409
REMARK  Name = 
REMARK                            x       y       z     vdW  Elec       q    Type
REMARK                         _______ _______ _______ _____ _____    ______ ____
ROOT
ATOM      1  C   LIG    1       30.341  -0.948  27.869  0.00  0.00    +0.015 C 
ATOM      2  C   LIG    1       31.269  -1.374  29.043  0.00  0.00    +0.021 C 
ATOM      3  C   LIG    1       30.140   0.580  28.074  0.00  0.00    +0.021 C 
ENDROOT
BRANCH   1   7
ATOM      4  C   LIG    1       26.455  -2.924  28.085  0.00  0.00    +0.117 A 
ATOM      5  C   LIG    1       26.508  -1.544  27.969  0.00  0.00    +0.046 A 
ATOM      6  C   LIG    1       27.744  -0.893  27.879  0.00  0.00    +0.008 A 
ATOM      7  C   LIG    1       28.947  -1.621  27.903  0.00  0.00    -0.037 A 
ATOM      8  C   LIG    1       28.855  -3.025  28.011  0.00  0.00    +0.008 A 
ATOM      9  C   LIG    1       27.621  -3.677  28.101  0.00  0.00    +0.046 A 
BRANCH   4  10
ATOM     10  O   LIG    1       25.231  -3.513  28.190  0.00  0.00    -0.507 OA
ATOM     11  H   LIG    1       24.554  -2.818  28.184  0.00  0.00    +0.292 HD
ENDBRANCH   4  10
ENDBRANCH   1   7
BRANCH   1  12
ATOM     12  C   LIG    1       31.037  -1.304  26.531  0.00  0.00    -0.037 A 
ATOM     13  C   LIG    1       31.969  -2.362  26.483  0.00  0.00    +0.008 A 
ATOM     14  C   LIG    1       32.555  -2.764  25.280  0.00  0.00    +0.046 A 
ATOM     15  C   LIG    1       32.202  -2.129  24.100  0.00  0.00    +0.117 A 
ATOM     16  C   LIG    1       31.287  -1.085  24.107  0.00  0.00    +0.046 A 
ATOM     17  C   LIG    1       30.714  -0.672  25.316  0.00  0.00    +0.008 A 
BRANCH  15  18
ATOM     18  O   LIG    1       32.766  -2.576  22.943  0.00  0.00    -0.507 OA
ATOM     19  H   LIG    1       33.649  -2.180  22.857  0.00  0.00    +0.292 HD
ENDBRANCH  15  18
ENDBRANCH   1  12
TORSDOF 4
ENDMDL
MODEL 3
REMARK VINA RESULT:      -8.4      0.144      5.674
REMARK  Name = 
REMARK                            x       y       z     vdW  Elec       q    Type
REMARK                         _______ _______ _______ _____ _____    ______ ____
ROOT
ATOM      1  C   LIG    1       30.351  -1.012  27.724  0.00  0.00    +0.015 C 
ATOM      2  C   LIG    1       31.345  -1.316  28.882  0.00  0.00    +0.021 C 
ATOM      3  C   LIG    1       30.149   0.527  27.787  0.00  0.00    +0.021 C 
ENDROOT
BRANCH   1   7
ATOM      4  C   LIG    1       26.400  -2.827  28.098  0.00  0.00    +0.117 A 
ATOM      5  C   LIG    1       27.524  -3.637  28.140  0.00  0.00    +0.046 A 
ATOM      6  C   LIG    1       28.801  -3.072  28.042  0.00  0.00    +0.008 A 
ATOM      7  C   LIG    1       28.967  -1.683  27.900  0.00  0.00    -0.037 A 
ATOM      8  C   LIG    1       27.801  -0.888  27.871  0.00  0.00    +0.008 A 
ATOM      9  C   LIG    1       26.525  -1.451  27.970  0.00  0.00    +0.046 A 
BRANCH   4  10
ATOM     10  O   LIG    1       25.177  -3.422  28.178  0.00  0.00    -0.507 OA
ATOM     11  H   LIG    1       24.960  -3.797  27.308  0.00  0.00    +0.292 HD
ENDBRANCH   4  10
ENDBRANCH   1   7
BRANCH   1  12
ATOM     12  C   LIG    1       30.977  -1.498  26.392  0.00  0.00    -0.037 A 
ATOM     13  C   LIG    1       30.744  -0.778  25.202  0.00  0.00    +0.008 A 
ATOM     14  C   LIG    1       31.356  -1.139  23.999  0.00  0.00    +0.046 A 
ATOM     15  C   LIG    1       32.230  -2.213  23.970  0.00  0.00    +0.117 A 
ATOM     16  C   LIG    1       32.487  -2.945  25.121  0.00  0.00    +0.046 A 
ATOM     17  C   LIG    1       31.859  -2.593  26.322  0.00  0.00    +0.008 A 
BRANCH  15  18
ATOM     18  O   LIG    1       32.837  -2.509  22.786  0.00  0.00    -0.507 OA
ATOM     19  H   LIG    1       33.331  -1.727  22.489  0.00  0.00    +0.292 HD
ENDBRANCH  15  18
ENDBRANCH   1  12
TORSDOF 4
ENDMDL
MODEL 4
REMARK VINA RESULT:      -8.4      0.166      1.660
REMARK  Name = 
REMARK                            x       y       z     vdW  Elec       q    Type
REMARK                         _______ _______ _______ _____ _____    ______ ____
ROOT
ATOM      1  C   LIG    1       30.299  -0.937  27.762  0.00  0.00    +0.015 C 
ATOM      2  C   LIG    1       30.050   0.599  27.738  0.00  0.00    +0.021 C 
ATOM      3  C   LIG    1       31.266  -1.149  28.960  0.00  0.00    +0.021 C 
ENDROOT
BRANCH   1   7
ATOM      4  C   LIG    1       32.309  -2.313  24.140  0.00  0.00    +0.117 A 
ATOM      5  C   LIG    1       32.493  -3.010  25.324  0.00  0.00    +0.046 A 
ATOM      6  C   LIG    1       31.842  -2.596  26.492  0.00  0.00    +0.008 A 
ATOM      7  C   LIG    1       30.994  -1.475  26.487  0.00  0.00    -0.037 A 
ATOM      8  C   LIG    1       30.822  -0.795  25.262  0.00  0.00    +0.008 A 
ATOM      9  C   LIG    1       31.471  -1.208  24.095  0.00  0.00    +0.046 A 
BRANCH   4  10
ATOM     10  O   LIG    1       32.978  -2.740  23.033  0.00  0.00    -0.507 OA
ATOM     11  H   LIG    1       32.584  -2.316  22.253  0.00  0.00    +0.292 HD
ENDBRANCH   4  10
ENDBRANCH   1   7
BRANCH   1  12
ATOM     12  C   LIG    1       28.938  -1.659  27.933  0.00  0.00    -0.037 A 
ATOM     13  C   LIG    1       27.739  -0.918  27.888  0.00  0.00    +0.008 A 
ATOM     14  C   LIG    1       26.492  -1.543  27.958  0.00  0.00    +0.046 A 
ATOM     15  C   LIG    1       26.422  -2.924  28.050  0.00  0.00    +0.117 A 
ATOM     16  C   LIG    1       27.580  -3.688  28.096  0.00  0.00    +0.046 A 
ATOM     17  C   LIG    1       28.830  -3.057  28.043  0.00  0.00    +0.008 A 
BRANCH  15  18
ATOM     18  O   LIG    1       25.187  -3.499  28.076  0.00  0.00    -0.507 OA
ATOM     19  H   LIG    1       25.086  -4.050  27.283  0.00  0.00    +0.292 HD
ENDBRANCH  15  18
ENDBRANCH   1  12
TORSDOF 4
ENDMDL
MODEL 5
REMARK VINA RESULT:      -8.4      2.542      5.565
REMARK  Name = 
REMARK                            x       y       z     vdW  Elec       q    Type
REMARK                         _______ _______ _______ _____ _____    ______ ____
ROOT
ATOM      1  C   LIG    1       30.239  -1.310  27.066  0.00  0.00    +0.015 C 
ATOM      2  C   LIG    1       30.168  -0.402  25.804  0.00  0.00    +0.021 C 
ATOM      3  C   LIG    1       31.172  -2.479  26.645  0.00  0.00    +0.021 C 
ENDROOT
BRANCH   1   7
ATOM      4  C   LIG    1       26.332  -2.961  28.094  0.00  0.00    +0.117 A 
ATOM      5  C   LIG    1       27.458  -3.758  28.218  0.00  0.00    +0.046 A 
ATOM      6  C   LIG    1       28.723  -3.241  27.912  0.00  0.00    +0.008 A 
ATOM      7  C   LIG    1       28.874  -1.913  27.477  0.00  0.00    -0.037 A 
ATOM      8  C   LIG    1       27.706  -1.127  27.372  0.00  0.00    +0.008 A 
ATOM      9  C   LIG    1       26.443  -1.641  27.677  0.00  0.00    +0.046 A 
BRANCH   4  10
ATOM     10  O   LIG    1       25.120  -3.512  28.383  0.00  0.00    -0.507 OA
ATOM     11  H   LIG    1       24.525  -2.805  28.683  0.00  0.00    +0.292 HD
ENDBRANCH   4  10
ENDBRANCH   1   7
BRANCH   1  12
ATOM     12  C   LIG    1       30.794  -0.474  28.248  0.00  0.00    -0.037 A 
ATOM     13  C   LIG    1       31.412  -1.122  29.338  0.00  0.00    +0.008 A 
ATOM     14  C   LIG    1       31.995  -0.398  30.382  0.00  0.00    +0.046 A 
ATOM     15  C   LIG    1       31.989   0.986  30.342  0.00  0.00    +0.117 A 
ATOM     16  C   LIG    1       31.391   1.660  29.286  0.00  0.00    +0.046 A 
ATOM     17  C   LIG    1       30.792   0.933  28.249  0.00  0.00    +0.008 A 
BRANCH  15  18
ATOM     18  O   LIG    1       32.602   1.655  31.359  0.00  0.00    -0.507 OA
ATOM     19  H   LIG    1       32.317   2.583  31.333  0.00  0.00    +0.292 HD
ENDBRANCH  15  18
ENDBRANCH   1  12
TORSDOF 4
ENDMDL
MODEL 6
REMARK VINA RESULT:      -8.4      2.568      4.080
REMARK  Name = 
REMARK                            x       y       z     vdW  Elec       q    Type
REMARK                         _______ _______ _______ _____ _____    ______ ____
ROOT
ATOM      1  C   LIG    1       30.195  -1.328  27.123  0.00  0.00    +0.015 C 
ATOM      2  C   LIG    1       31.137  -2.480  26.666  0.00  0.00    +0.021 C 
ATOM      3  C   LIG    1       30.096  -0.399  25.881  0.00  0.00    +0.021 C 
ENDROOT
BRANCH   1   7
ATOM      4  C   LIG    1       31.916   0.958  30.419  0.00  0.00    +0.117 A 
ATOM      5  C   LIG    1       31.185   1.619  29.445  0.00  0.00    +0.046 A 
ATOM      6  C   LIG    1       30.608   0.901  28.390  0.00  0.00    +0.008 A 
ATOM      7  C   LIG    1       30.758  -0.494  28.300  0.00  0.00    -0.037 A 
ATOM      8  C   LIG    1       31.500  -1.135  29.315  0.00  0.00    +0.008 A 
ATOM      9  C   LIG    1       32.076  -0.420  30.368  0.00  0.00    +0.046 A 
BRANCH   4  10
ATOM     10  O   LIG    1       32.476   1.699  31.416  0.00  0.00    -0.507 OA
ATOM     11  H   LIG    1       32.041   1.468  32.252  0.00  0.00    +0.292 HD
ENDBRANCH   4  10
ENDBRANCH   1   7
BRANCH   1  12
ATOM     12  C   LIG    1       28.834  -1.937  27.547  0.00  0.00    -0.037 A 
ATOM     13  C   LIG    1       27.650  -1.188  27.391  0.00  0.00    +0.008 A 
ATOM     14  C   LIG    1       26.397  -1.733  27.686  0.00  0.00    +0.046 A 
ATOM     15  C   LIG    1       26.306  -3.045  28.120  0.00  0.00    +0.117 A 
ATOM     16  C   LIG    1       27.450  -3.815  28.285  0.00  0.00    +0.046 A 
ATOM     17  C   LIG    1       28.705  -3.262  28.005  0.00  0.00    +0.008 A 
BRANCH  15  18
ATOM     18  O   LIG    1       25.064  -3.552  28.360  0.00  0.00    -0.507 OA
ATOM     19  H   LIG    1       25.162  -4.415  28.794  0.00  0.00    +0.292 HD
ENDBRANCH  15  18
ENDBRANCH   1  12
TORSDOF 4
ENDMDL
MODEL 7
REMARK VINA RESULT:      -8.3      2.884      6.028
REMARK  Name = 
REMARK                            x       y       z     vdW  Elec       q    Type
REMARK                         _______ _______ _______ _____ _____    ______ ____
ROOT
ATOM      1  C   LIG    1       31.588  -1.256  25.728  0.00  0.00    +0.015 C 
ATOM      2  C   LIG    1       31.594  -0.999  24.194  0.00  0.00    +0.021 C 
ATOM      3  C   LIG    1       32.092  -2.719  25.873  0.00  0.00    +0.021 C 
ENDROOT
BRANCH   1   7
ATOM      4  C   LIG    1       27.685  -1.040  27.669  0.00  0.00    +0.117 A 
ATOM      5  C   LIG    1       28.052  -0.049  26.773  0.00  0.00    +0.046 A 
ATOM      6  C   LIG    1       29.291  -0.110  26.126  0.00  0.00    +0.008 A 
ATOM      7  C   LIG    1       30.181  -1.171  26.368  0.00  0.00    -0.037 A 
ATOM      8  C   LIG    1       29.770  -2.169  27.278  0.00  0.00    +0.008 A 
ATOM      9  C   LIG    1       28.532  -2.109  27.925  0.00  0.00    +0.046 A 
BRANCH   4  10
ATOM     10  O   LIG    1       26.478  -0.929  28.290  0.00  0.00    -0.507 OA
ATOM     11  H   LIG    1       26.099  -0.061  28.074  0.00  0.00    +0.292 HD
ENDBRANCH   4  10
ENDBRANCH   1   7
BRANCH   1  12
ATOM     12  C   LIG    1       32.512  -0.216  26.410  0.00  0.00    -0.037 A 
ATOM     13  C   LIG    1       33.237  -0.571  27.567  0.00  0.00    +0.008 A 
ATOM     14  C   LIG    1       34.141   0.314  28.162  0.00  0.00    +0.046 A 
ATOM     15  C   LIG    1       34.351   1.561  27.597  0.00  0.00    +0.117 A 
ATOM     16  C   LIG    1       33.657   1.947  26.458  0.00  0.00    +0.046 A 
ATOM     17  C   LIG    1       32.740   1.065  25.873  0.00  0.00    +0.008 A 
BRANCH  15  18
ATOM     18  O   LIG    1       35.269   2.380  28.184  0.00  0.00    -0.507 OA
ATOM     19  H   LIG    1       35.567   3.029  27.527  0.00  0.00    +0.292 HD
ENDBRANCH  15  18
ENDBRANCH   1  12
TORSDOF 4
ENDMDL
MODEL 8
REMARK VINA RESULT:      -8.2      2.814      3.782
REMARK  Name = 
REMARK                            x       y       z     vdW  Elec       q    Type
REMARK                         _______ _______ _______ _____ _____    ______ ____
ROOT
ATOM      1  C   LIG    1       31.553  -1.341  25.733  0.00  0.00    +0.015 C 
ATOM      2  C   LIG    1       32.125  -2.788  25.710  0.00  0.00    +0.021 C 
ATOM      3  C   LIG    1       31.442  -0.949  24.233  0.00  0.00    +0.021 C 
ENDROOT
BRANCH   1   7
ATOM      4  C   LIG    1       34.284   1.445  27.690  0.00  0.00    +0.117 A 
ATOM      5  C   LIG    1       33.593   1.854  26.561  0.00  0.00    +0.046 A 
ATOM      6  C   LIG    1       32.698   0.982  25.930  0.00  0.00    +0.008 A 
ATOM      7  C   LIG    1       32.483  -0.315  26.426  0.00  0.00    -0.037 A 
ATOM      8  C   LIG    1       33.196  -0.695  27.584  0.00  0.00    +0.008 A 
ATOM      9  C   LIG    1       34.090   0.175  28.215  0.00  0.00    +0.046 A 
BRANCH   4  10
ATOM     10  O   LIG    1       35.159   2.320  28.260  0.00  0.00    -0.507 OA
ATOM     11  H   LIG    1       34.798   3.217  28.172  0.00  0.00    +0.292 HD
ENDBRANCH   4  10
ENDBRANCH   1   7
BRANCH   1  12
ATOM     12  C   LIG    1       30.189  -1.358  26.469  0.00  0.00    -0.037 A 
ATOM     13  C   LIG    1       29.236  -0.351  26.206  0.00  0.00    +0.008 A 
ATOM     14  C   LIG    1       27.967  -0.378  26.789  0.00  0.00    +0.046 A 
ATOM     15  C   LIG    1       27.620  -1.425  27.626  0.00  0.00    +0.117 A 
ATOM     16  C   LIG    1       28.529  -2.436  27.908  0.00  0.00    +0.046 A 
ATOM     17  C   LIG    1       29.807  -2.397  27.337  0.00  0.00    +0.008 A 
BRANCH  15  18
ATOM     18  O   LIG    1       26.359  -1.436  28.144  0.00  0.00    -0.507 OA
ATOM     19  H   LIG    1       26.278  -0.702  28.774  0.00  0.00    +0.292 HD
ENDBRANCH  15  18
ENDBRANCH   1  12
TORSDOF 4
ENDMDL
MODEL 9
REMARK VINA RESULT:      -8.2      2.501      5.465
REMARK  Name = 
REMARK                            x       y       z     vdW  Elec       q    Type
REMARK                         _______ _______ _______ _____ _____    ______ ____
ROOT
ATOM      1  C   LIG    1       30.433  -1.356  26.892  0.00  0.00    +0.015 C 
ATOM      2  C   LIG    1       30.461  -0.449  25.628  0.00  0.00    +0.021 C 
ATOM      3  C   LIG    1       31.297  -2.587  26.500  0.00  0.00    +0.021 C 
ENDROOT
BRANCH   1   7
ATOM      4  C   LIG    1       26.503  -2.853  28.060  0.00  0.00    +0.117 A 
ATOM      5  C   LIG    1       26.639  -1.525  27.688  0.00  0.00    +0.046 A 
ATOM      6  C   LIG    1       27.887  -1.030  27.291  0.00  0.00    +0.008 A 
ATOM      7  C   LIG    1       29.018  -1.865  27.261  0.00  0.00    -0.037 A 
ATOM      8  C   LIG    1       28.841  -3.214  27.637  0.00  0.00    +0.008 A 
ATOM      9  C   LIG    1       27.595  -3.709  28.032  0.00  0.00    +0.046 A 
BRANCH   4  10
ATOM     10  O   LIG    1       25.274  -3.286  28.457  0.00  0.00    -0.507 OA
ATOM     11  H   LIG    1       25.270  -3.352  29.426  0.00  0.00    +0.292 HD
ENDBRANCH   4  10
ENDBRANCH   1   7
BRANCH   1  12
ATOM     12  C   LIG    1       31.006  -0.556  28.090  0.00  0.00    -0.037 A 
ATOM     13  C   LIG    1       30.968   0.854  28.077  0.00  0.00    +0.008 A 
ATOM     14  C   LIG    1       31.401   1.605  29.172  0.00  0.00    +0.046 A 
ATOM     15  C   LIG    1       31.859   0.959  30.308  0.00  0.00    +0.117 A 
ATOM     16  C   LIG    1       31.910  -0.428  30.360  0.00  0.00    +0.046 A 
ATOM     17  C   LIG    1       31.492  -1.179  29.254  0.00  0.00    +0.008 A 
BRANCH  15  18
ATOM     18  O   LIG    1       32.236   1.726  31.370  0.00  0.00    -0.507 OA
ATOM     19  H   LIG    1       32.727   2.494  31.036  0.00  0.00    +0.292 HD
ENDBRANCH  15  18
ENDBRANCH   1  12
TORSDOF 4
ENDMDL
