MODEL 1
REMARK VINA RESULT:      -8.5      0.000      0.000
REMARK  Name = 
REMARK                            x       y       z     vdW  Elec       q    Type
REMARK                         _______ _______ _______ _____ _____    ______ ____
ROOT
ATOM      1  C   LIG    1       67.592  46.573  95.837  0.00  0.00    +0.015 C 
ATOM      2  C   LIG    1       66.046  46.406  95.867  0.00  0.00    +0.021 C 
ATOM      3  C   LIG    1       68.136  45.119  95.921  0.00  0.00    +0.021 C 
ENDROOT
BRANCH   1   7
ATOM      4  C   LIG    1       69.323  48.758  99.196  0.00  0.00    +0.117 A 
ATOM      5  C   LIG    1       68.411  49.396  98.371  0.00  0.00    +0.046 A 
ATOM      6  C   LIG    1       67.829  48.706  97.300  0.00  0.00    +0.008 A 
ATOM      7  C   LIG    1       68.157  47.363  97.043  0.00  0.00    -0.037 A 
ATOM      8  C   LIG    1       69.082  46.743  97.910  0.00  0.00    +0.008 A 
ATOM      9  C   LIG    1       69.663  47.430  98.979  0.00  0.00    +0.046 A 
BRANCH   4  10
ATOM     10  O   LIG    1       69.879  49.474 100.213  0.00  0.00    -0.507 OA
ATOM     11  H   LIG    1       69.166  49.780 100.798  0.00  0.00    +0.292 HD
ENDBRANCH   4  10
ENDBRANCH   1   7
BRANCH   1  12
ATOM     12  C   LIG    1       67.989  47.304  94.529  0.00  0.00    -0.037 A 
ATOM     13  C   LIG    1       66.989  47.708  93.619  0.00  0.00    +0.008 A 
ATOM     14  C   LIG    1       67.301  48.439  92.470  0.00  0.00    +0.046 A 
ATOM     15  C   LIG    1       68.616  48.800  92.224  0.00  0.00    +0.117 A 
ATOM     16  C   LIG    1       69.627  48.423  93.097  0.00  0.00    +0.046 A 
ATOM     17  C   LIG    1       69.315  47.675  94.239  0.00  0.00    +0.008 A 
BRANCH  15  18
ATOM     18  O   LIG    1       68.874  49.547  91.113  0.00  0.00    -0.507 OA
ATOM     19  H   LIG    1       68.473  50.423  91.231  0.00  0.00    +0.292 HD
ENDBRANCH  15  18
ENDBRANCH   1  12
TORSDOF 4
ENDMDL
MODEL 2
REMARK VINA RESULT:      -8.5      0.040      5.539
REMARK  Name = 
REMARK                            x       y       z     vdW  Elec       q    Type
REMARK                         _______ _______ _______ _____ _____    ______ ____
ROOT
ATOM      1  C   LIG    1       67.597  46.550  95.847  0.00  0.00    +0.015 C 
ATOM      2  C   LIG    1       68.146  45.096  95.911  0.00  0.00    +0.021 C 
ATOM      3  C   LIG    1       66.053  46.378  95.858  0.00  0.00    +0.021 C 
ENDROOT
BRANCH   1   7
ATOM      4  C   LIG    1       68.576  48.780  92.225  0.00  0.00    +0.117 A 
ATOM      5  C   LIG    1       69.592  48.425  93.098  0.00  0.00    +0.046 A 
ATOM      6  C   LIG    1       69.302  47.693  94.255  0.00  0.00    +0.008 A 
ATOM      7  C   LIG    1       67.984  47.305  94.552  0.00  0.00    -0.037 A 
ATOM      8  C   LIG    1       66.975  47.675  93.636  0.00  0.00    +0.008 A 
ATOM      9  C   LIG    1       67.264  48.406  92.480  0.00  0.00    +0.046 A 
BRANCH   4  10
ATOM     10  O   LIG    1       68.903  49.510  91.122  0.00  0.00    -0.507 OA
ATOM     11  H   LIG    1       68.113  49.991  90.827  0.00  0.00    +0.292 HD
ENDBRANCH   4  10
ENDBRANCH   1   7
BRANCH   1  12
ATOM     12  C   LIG    1       68.138  47.339  97.067  0.00  0.00    -0.037 A 
ATOM     13  C   LIG    1       69.105  46.753  97.911  0.00  0.00    +0.008 A 
ATOM     14  C   LIG    1       69.674  47.463  98.971  0.00  0.00    +0.046 A 
ATOM     15  C   LIG    1       69.303  48.779  99.192  0.00  0.00    +0.117 A 
ATOM     16  C   LIG    1       68.355  49.391  98.383  0.00  0.00    +0.046 A 
ATOM     17  C   LIG    1       67.773  48.672  97.331  0.00  0.00    +0.008 A 
BRANCH  15  18
ATOM     18  O   LIG    1       69.909  49.449 100.212  0.00  0.00    -0.507 OA
ATOM     19  H   LIG    1       69.273  50.080 100.588  0.00  0.00    +0.292 HD
ENDBRANCH  15  18
ENDBRANCH   1  12
TORSDOF 4
ENDMDL
MODEL 3
REMARK VINA RESULT:      -7.9      1.877      5.492
REMARK  Name = 
REMARK                            x       y       z     vdW  Elec       q    Type
REMARK                         _______ _______ _______ _____ _____    ______ ____
ROOT
ATOM      1  C   LIG    1       67.540  46.223  96.261  0.00  0.00    +0.015 C 
ATOM      2  C   LIG    1       67.975  44.812  95.772  0.00  0.00    +0.021 C 
ATOM      3  C   LIG    1       66.042  46.323  95.859  0.00  0.00    +0.021 C 
ENDROOT
BRANCH   1   7
ATOM      4  C   LIG    1       69.772  49.391  94.254  0.00  0.00    +0.117 A 
ATOM      5  C   LIG    1       68.391  49.362  94.145  0.00  0.00    +0.046 A 
ATOM      6  C   LIG    1       67.655  48.365  94.797  0.00  0.00    +0.008 A 
ATOM      7  C   LIG    1       68.298  47.383  95.571  0.00  0.00    -0.037 A 
ATOM      8  C   LIG    1       69.704  47.450  95.668  0.00  0.00    +0.008 A 
ATOM      9  C   LIG    1       70.440  48.444  95.018  0.00  0.00    +0.046 A 
BRANCH   4  10
ATOM     10  O   LIG    1       70.448  50.367  93.586  0.00  0.00    -0.507 OA
ATOM     11  H   LIG    1       69.972  50.563  92.763  0.00  0.00    +0.292 HD
ENDBRANCH   4  10
ENDBRANCH   1   7
BRANCH   1  12
ATOM     12  C   LIG    1       67.774  46.312  97.791  0.00  0.00    -0.037 A 
ATOM     13  C   LIG    1       68.428  45.260  98.465  0.00  0.00    +0.008 A 
ATOM     14  C   LIG    1       68.728  45.340  99.827  0.00  0.00    +0.046 A 
ATOM     15  C   LIG    1       68.399  46.485 100.534  0.00  0.00    +0.117 A 
ATOM     16  C   LIG    1       67.755  47.543  99.906  0.00  0.00    +0.046 A 
ATOM     17  C   LIG    1       67.440  47.453  98.545  0.00  0.00    +0.008 A 
BRANCH  15  18
ATOM     18  O   LIG    1       68.743  46.541 101.852  0.00  0.00    -0.507 OA
ATOM     19  H   LIG    1       69.217  45.726 102.081  0.00  0.00    +0.292 HD
ENDBRANCH  15  18
ENDBRANCH   1  12
TORSDOF 4
ENDMDL
MODEL 4
REMARK VINA RESULT:      -7.2      1.956      5.757
REMARK  Name = 
REMARK                            x       y       z     vdW  Elec       q    Type
REMARK                         _______ _______ _______ _____ _____    ______ ____
ROOT
ATOM      1  C   LIG    1       67.724  49.308  96.146  0.00  0.00    +0.015 C 
ATOM      2  C   LIG    1       66.269  49.848  96.042  0.00  0.00    +0.021 C 
ATOM      3  C   LIG    1       68.493  50.422  96.910  0.00  0.00    +0.021 C 
ENDROOT
BRANCH   1   7
ATOM      4  C   LIG    1       69.541  48.798  92.210  0.00  0.00    +0.117 A 
ATOM      5  C   LIG    1       70.254  49.445  93.207  0.00  0.00    +0.046 A 
ATOM      6  C   LIG    1       69.697  49.601  94.482  0.00  0.00    +0.008 A 
ATOM      7  C   LIG    1       68.413  49.108  94.774  0.00  0.00    -0.037 A 
ATOM      8  C   LIG    1       67.720  48.446  93.737  0.00  0.00    +0.008 A 
ATOM      9  C   LIG    1       68.276  48.289  92.464  0.00  0.00    +0.046 A 
BRANCH   4  10
ATOM     10  O   LIG    1       70.116  48.687  90.980  0.00  0.00    -0.507 OA
ATOM     11  H   LIG    1       69.974  47.782  90.655  0.00  0.00    +0.292 HD
ENDBRANCH   4  10
ENDBRANCH   1   7
BRANCH   1  12
ATOM     12  C   LIG    1       67.699  47.952  96.896  0.00  0.00    -0.037 A 
ATOM     13  C   LIG    1       68.834  47.526  97.616  0.00  0.00    +0.008 A 
ATOM     14  C   LIG    1       68.821  46.349  98.370  0.00  0.00    +0.046 A 
ATOM     15  C   LIG    1       67.664  45.590  98.434  0.00  0.00    +0.117 A 
ATOM     16  C   LIG    1       66.526  45.977  97.739  0.00  0.00    +0.046 A 
ATOM     17  C   LIG    1       66.547  47.147  96.971  0.00  0.00    +0.008 A 
BRANCH  15  18
ATOM     18  O   LIG    1       67.679  44.470  99.211  0.00  0.00    -0.507 OA
ATOM     19  H   LIG    1       67.090  43.810  98.811  0.00  0.00    +0.292 HD
ENDBRANCH  15  18
ENDBRANCH   1  12
TORSDOF 4
ENDMDL
MODEL 5
REMARK VINA RESULT:      -7.2      1.974      3.091
REMARK  Name = 
REMARK                            x       y       z     vdW  Elec       q    Type
REMARK                         _______ _______ _______ _____ _____    ______ ____
ROOT
ATOM      1  C   LIG    1       67.688  49.420  96.073  0.00  0.00    +0.015 C 
ATOM      2  C   LIG    1       68.469  50.533  96.829  0.00  0.00    +0.021 C 
ATOM      3  C   LIG    1       66.222  49.936  96.040  0.00  0.00    +0.021 C 
ENDROOT
BRANCH   1   7
ATOM      4  C   LIG    1       67.767  45.633  98.240  0.00  0.00    +0.117 A 
ATOM      5  C   LIG    1       66.620  45.996  97.553  0.00  0.00    +0.046 A 
ATOM      6  C   LIG    1       66.581  47.198  96.836  0.00  0.00    +0.008 A 
ATOM      7  C   LIG    1       67.697  48.052  96.798  0.00  0.00    -0.037 A 
ATOM      8  C   LIG    1       68.852  47.645  97.501  0.00  0.00    +0.008 A 
ATOM      9  C   LIG    1       68.891  46.445  98.217  0.00  0.00    +0.046 A 
BRANCH   4  10
ATOM     10  O   LIG    1       67.752  44.464  98.941  0.00  0.00    -0.507 OA
ATOM     11  H   LIG    1       68.568  44.409  99.464  0.00  0.00    +0.292 HD
ENDBRANCH   4  10
ENDBRANCH   1   7
BRANCH   1  12
ATOM     12  C   LIG    1       68.311  49.245  94.664  0.00  0.00    -0.037 A 
ATOM     13  C   LIG    1       69.635  49.667  94.424  0.00  0.00    +0.008 A 
ATOM     14  C   LIG    1       70.257  49.452  93.191  0.00  0.00    +0.046 A 
ATOM     15  C   LIG    1       69.573  48.791  92.185  0.00  0.00    +0.117 A 
ATOM     16  C   LIG    1       68.268  48.359  92.384  0.00  0.00    +0.046 A 
ATOM     17  C   LIG    1       67.641  48.591  93.614  0.00  0.00    +0.008 A 
BRANCH  15  18
ATOM     18  O   LIG    1       70.227  48.566  91.010  0.00  0.00    -0.507 OA
ATOM     19  H   LIG    1       71.170  48.441  91.202  0.00  0.00    +0.292 HD
ENDBRANCH  15  18
ENDBRANCH   1  12
TORSDOF 4
ENDMDL
MODEL 6
REMARK VINA RESULT:      -7.1      1.981      2.999
REMARK  Name = 
REMARK                            x       y       z     vdW  Elec       q    Type
REMARK                         _______ _______ _______ _____ _____    ______ ____
ROOT
ATOM      1  C   LIG    1       67.846  49.395  96.306  0.00  0.00    +0.015 C 
ATOM      2  C   LIG    1       68.591  50.553  97.029  0.00  0.00    +0.021 C 
ATOM      3  C   LIG    1       66.380  49.899  96.184  0.00  0.00    +0.021 C 
ENDROOT
BRANCH   1   7
ATOM      4  C   LIG    1       67.733  45.591  98.443  0.00  0.00    +0.117 A 
ATOM      5  C   LIG    1       68.919  46.306  98.394  0.00  0.00    +0.046 A 
ATOM      6  C   LIG    1       68.971  47.537  97.731  0.00  0.00    +0.008 A 
ATOM      7  C   LIG    1       67.829  48.069  97.106  0.00  0.00    -0.037 A 
ATOM      8  C   LIG    1       66.636  47.319  97.184  0.00  0.00    +0.008 A 
ATOM      9  C   LIG    1       66.583  46.090  97.847  0.00  0.00    +0.046 A 
BRANCH   4  10
ATOM     10  O   LIG    1       67.734  44.388  99.083  0.00  0.00    -0.507 OA
ATOM     11  H   LIG    1       66.819  44.167  99.323  0.00  0.00    +0.292 HD
ENDBRANCH   4  10
ENDBRANCH   1   7
BRANCH   1  12
ATOM     12  C   LIG    1       68.527  49.144  94.936  0.00  0.00    -0.037 A 
ATOM     13  C   LIG    1       67.860  48.392  93.946  0.00  0.00    +0.008 A 
ATOM     14  C   LIG    1       68.407  48.214  92.673  0.00  0.00    +0.046 A 
ATOM     15  C   LIG    1       69.621  48.804  92.360  0.00  0.00    +0.117 A 
ATOM     16  C   LIG    1       70.307  49.553  93.307  0.00  0.00    +0.046 A 
ATOM     17  C   LIG    1       69.765  49.716  94.588  0.00  0.00    +0.008 A 
BRANCH  15  18
ATOM     18  O   LIG    1       70.103  48.640  91.096  0.00  0.00    -0.507 OA
ATOM     19  H   LIG    1       70.009  47.705  90.850  0.00  0.00    +0.292 HD
ENDBRANCH  15  18
ENDBRANCH   1  12
TORSDOF 4
ENDMDL
MODEL 7
REMARK VINA RESULT:      -6.8      2.600      3.794
REMARK  Name = 
REMARK                            x       y       z     vdW  Elec       q    Type
REMARK                         _______ _______ _______ _____ _____    ______ ____
ROOT
ATOM      1  C   LIG    1       68.092  49.159  96.213  0.00  0.00    +0.015 C 
ATOM      2  C   LIG    1       69.251  49.573  95.262  0.00  0.00    +0.021 C 
ATOM      3  C   LIG    1       66.955  50.171  95.896  0.00  0.00    +0.021 C 
ENDROOT
BRANCH   1   7
ATOM      4  C   LIG    1       69.017  49.391 100.472  0.00  0.00    +0.117 A 
ATOM      5  C   LIG    1       70.006  49.684  99.547  0.00  0.00    +0.046 A 
ATOM      6  C   LIG    1       69.724  49.634  98.177  0.00  0.00    +0.008 A 
ATOM      7  C   LIG    1       68.442  49.290  97.716  0.00  0.00    -0.037 A 
ATOM      8  C   LIG    1       67.456  49.008  98.687  0.00  0.00    +0.008 A 
ATOM      9  C   LIG    1       67.737  49.058 100.055  0.00  0.00    +0.046 A 
BRANCH   4  10
ATOM     10  O   LIG    1       69.342  49.433 101.795  0.00  0.00    -0.507 OA
ATOM     11  H   LIG    1       69.686  48.562 102.054  0.00  0.00    +0.292 HD
ENDBRANCH   4  10
ENDBRANCH   1   7
BRANCH   1  12
ATOM     12  C   LIG    1       67.706  47.687  95.915  0.00  0.00    -0.037 A 
ATOM     13  C   LIG    1       68.656  46.661  96.102  0.00  0.00    +0.008 A 
ATOM     14  C   LIG    1       68.321  45.316  95.921  0.00  0.00    +0.046 A 
ATOM     15  C   LIG    1       67.025  44.974  95.573  0.00  0.00    +0.117 A 
ATOM     16  C   LIG    1       66.062  45.956  95.382  0.00  0.00    +0.046 A 
ATOM     17  C   LIG    1       66.404  47.304  95.546  0.00  0.00    +0.008 A 
BRANCH  15  18
ATOM     18  O   LIG    1       66.728  43.650  95.445  0.00  0.00    -0.507 OA
ATOM     19  H   LIG    1       67.076  43.337  94.594  0.00  0.00    +0.292 HD
ENDBRANCH  15  18
ENDBRANCH   1  12
TORSDOF 4
ENDMDL
MODEL 8
REMARK VINA RESULT:      -6.2      2.172      3.052
REMARK  Name = 
REMARK                            x       y       z     vdW  Elec       q    Type
REMARK                         _______ _______ _______ _____ _____    ______ ____
ROOT
ATOM      1  C   LIG    1       68.642  48.531  96.645  0.00  0.00    +0.015 C 
ATOM      2  C   LIG    1       70.140  48.464  96.233  0.00  0.00    +0.021 C 
ATOM      3  C   LIG    1       68.421  50.016  97.048  0.00  0.00    +0.021 C 
ENDROOT
BRANCH   1   7
ATOM      4  C   LIG    1       67.800  46.046 100.133  0.00  0.00    +0.117 A 
ATOM      5  C   LIG    1       66.997  47.145  99.874  0.00  0.00    +0.046 A 
ATOM      6  C   LIG    1       67.238  47.943  98.750  0.00  0.00    +0.008 A 
ATOM      7  C   LIG    1       68.291  47.648  97.867  0.00  0.00    -0.037 A 
ATOM      8  C   LIG    1       69.083  46.515  98.156  0.00  0.00    +0.008 A 
ATOM      9  C   LIG    1       68.843  45.717  99.278  0.00  0.00    +0.046 A 
BRANCH   4  10
ATOM     10  O   LIG    1       67.541  45.310 101.249  0.00  0.00    -0.507 OA
ATOM     11  H   LIG    1       67.691  44.373 101.041  0.00  0.00    +0.292 HD
ENDBRANCH   4  10
ENDBRANCH   1   7
BRANCH   1  12
ATOM     12  C   LIG    1       67.775  48.085  95.439  0.00  0.00    -0.037 A 
ATOM     13  C   LIG    1       67.864  48.778  94.214  0.00  0.00    +0.008 A 
ATOM     14  C   LIG    1       67.159  48.357  93.084  0.00  0.00    +0.046 A 
ATOM     15  C   LIG    1       66.370  47.220  93.153  0.00  0.00    +0.117 A 
ATOM     16  C   LIG    1       66.258  46.510  94.341  0.00  0.00    +0.046 A 
ATOM     17  C   LIG    1       66.951  46.945  95.478  0.00  0.00    +0.008 A 
BRANCH  15  18
ATOM     18  O   LIG    1       65.730  46.819  92.019  0.00  0.00    -0.507 OA
ATOM     19  H   LIG    1       65.754  47.547  91.378  0.00  0.00    +0.292 HD
ENDBRANCH  15  18
ENDBRANCH   1  12
TORSDOF 4
ENDMDL
MODEL 9
REMARK VINA RESULT:      -6.1      2.502      3.777
REMARK  Name = 
REMARK                            x       y       z     vdW  Elec       q    Type
REMARK                         _______ _______ _______ _____ _____    ______ ____
ROOT
ATOM      1  C   LIG    1       68.567  48.507  98.046  0.00  0.00    +0.015 C 
ATOM      2  C   LIG    1       70.033  48.686  98.534  0.00  0.00    +0.021 C 
ATOM      3  C   LIG    1       67.809  49.720  98.653  0.00  0.00    +0.021 C 
ENDROOT
BRANCH   1   7
ATOM      4  C   LIG    1       66.532  44.907  99.444  0.00  0.00    +0.117 A 
ATOM      5  C   LIG    1       67.758  44.789  98.809  0.00  0.00    +0.046 A 
ATOM      6  C   LIG    1       68.436  45.933  98.370  0.00  0.00    +0.008 A 
ATOM      7  C   LIG    1       67.891  47.214  98.565  0.00  0.00    -0.037 A 
ATOM      8  C   LIG    1       66.646  47.297  99.225  0.00  0.00    +0.008 A 
ATOM      9  C   LIG    1       65.968  46.156  99.664  0.00  0.00    +0.046 A 
BRANCH   4  10
ATOM     10  O   LIG    1       65.899  43.766  99.836  0.00  0.00    -0.507 OA
ATOM     11  H   LIG    1       65.806  43.186  99.063  0.00  0.00    +0.292 HD
ENDBRANCH   4  10
ENDBRANCH   1   7
BRANCH   1  12
ATOM     12  C   LIG    1       68.558  48.488  96.496  0.00  0.00    -0.037 A 
ATOM     13  C   LIG    1       69.755  48.247  95.789  0.00  0.00    +0.008 A 
ATOM     14  C   LIG    1       69.771  48.143  94.396  0.00  0.00    +0.046 A 
ATOM     15  C   LIG    1       68.586  48.255  93.687  0.00  0.00    +0.117 A 
ATOM     16  C   LIG    1       67.387  48.490  94.347  0.00  0.00    +0.046 A 
ATOM     17  C   LIG    1       67.376  48.612  95.742  0.00  0.00    +0.008 A 
BRANCH  15  18
ATOM     18  O   LIG    1       68.638  48.108  92.333  0.00  0.00    -0.507 OA
ATOM     19  H   LIG    1       69.561  47.952  92.075  0.00  0.00    +0.292 HD
ENDBRANCH  15  18
ENDBRANCH   1  12
TORSDOF 4
ENDMDL
