MODEL 1
REMARK VINA RESULT:      -7.6      0.000      0.000
REMARK  Name = 
REMARK                            x       y       z     vdW  Elec       q    Type
REMARK                         _______ _______ _______ _____ _____    ______ ____
ROOT
ATOM      1  C   LIG    1       38.791  30.434   8.300  0.00  0.00    +0.015 C 
ATOM      2  C   LIG    1       39.586  29.885   7.081  0.00  0.00    +0.021 C 
ATOM      3  C   LIG    1       37.463  29.627   8.287  0.00  0.00    +0.021 C 
ENDROOT
BRANCH   1   7
ATOM      4  C   LIG    1       37.761  34.650   7.837  0.00  0.00    +0.117 A 
ATOM      5  C   LIG    1       37.226  33.934   8.896  0.00  0.00    +0.046 A 
ATOM      6  C   LIG    1       37.560  32.586   9.074  0.00  0.00    +0.008 A 
ATOM      7  C   LIG    1       38.438  31.937   8.188  0.00  0.00    -0.037 A 
ATOM      8  C   LIG    1       38.972  32.699   7.127  0.00  0.00    +0.008 A 
ATOM      9  C   LIG    1       38.640  34.045   6.949  0.00  0.00    +0.046 A 
BRANCH   4  10
ATOM     10  O   LIG    1       37.393  35.953   7.693  0.00  0.00    -0.507 OA
ATOM     11  H   LIG    1       38.164  36.513   7.882  0.00  0.00    +0.292 HD
ENDBRANCH   4  10
ENDBRANCH   1   7
BRANCH   1  12
ATOM     12  C   LIG    1       39.634  30.212   9.583  0.00  0.00    -0.037 A 
ATOM     13  C   LIG    1       39.053  29.588  10.706  0.00  0.00    +0.008 A 
ATOM     14  C   LIG    1       39.802  29.299  11.849  0.00  0.00    +0.046 A 
ATOM     15  C   LIG    1       41.152  29.607  11.879  0.00  0.00    +0.117 A 
ATOM     16  C   LIG    1       41.761  30.221  10.793  0.00  0.00    +0.046 A 
ATOM     17  C   LIG    1       41.004  30.526   9.655  0.00  0.00    +0.008 A 
BRANCH  15  18
ATOM     18  O   LIG    1       41.857  29.274  12.997  0.00  0.00    -0.507 OA
ATOM     19  H   LIG    1       41.301  28.706  13.554  0.00  0.00    +0.292 HD
ENDBRANCH  15  18
ENDBRANCH   1  12
TORSDOF 4
ENDMDL
MODEL 2
REMARK VINA RESULT:      -7.6      0.033      5.770
REMARK  Name = 
REMARK                            x       y       z     vdW  Elec       q    Type
REMARK                         _______ _______ _______ _____ _____    ______ ____
ROOT
ATOM      1  C   LIG    1       38.795  30.433   8.291  0.00  0.00    +0.015 C 
ATOM      2  C   LIG    1       37.466  29.624   8.263  0.00  0.00    +0.021 C 
ATOM      3  C   LIG    1       39.592  29.903   7.066  0.00  0.00    +0.021 C 
ENDROOT
BRANCH   1   7
ATOM      4  C   LIG    1       41.150  29.594  11.868  0.00  0.00    +0.117 A 
ATOM      5  C   LIG    1       41.757  30.211  10.786  0.00  0.00    +0.046 A 
ATOM      6  C   LIG    1       41.015  30.507   9.637  0.00  0.00    +0.008 A 
ATOM      7  C   LIG    1       39.648  30.187   9.559  0.00  0.00    -0.037 A 
ATOM      8  C   LIG    1       39.060  29.567  10.683  0.00  0.00    +0.008 A 
ATOM      9  C   LIG    1       39.800  29.272  11.831  0.00  0.00    +0.046 A 
BRANCH   4  10
ATOM     10  O   LIG    1       41.916  29.308  12.957  0.00  0.00    -0.507 OA
ATOM     11  H   LIG    1       42.848  29.446  12.722  0.00  0.00    +0.292 HD
ENDBRANCH   4  10
ENDBRANCH   1   7
BRANCH   1  12
ATOM     12  C   LIG    1       38.459  31.944   8.199  0.00  0.00    -0.037 A 
ATOM     13  C   LIG    1       38.968  32.714   7.133  0.00  0.00    +0.008 A 
ATOM     14  C   LIG    1       38.622  34.058   6.973  0.00  0.00    +0.046 A 
ATOM     15  C   LIG    1       37.741  34.649   7.864  0.00  0.00    +0.117 A 
ATOM     16  C   LIG    1       37.217  33.924   8.926  0.00  0.00    +0.046 A 
ATOM     17  C   LIG    1       37.580  32.581   9.094  0.00  0.00    +0.008 A 
BRANCH  15  18
ATOM     18  O   LIG    1       37.398  35.951   7.652  0.00  0.00    -0.507 OA
ATOM     19  H   LIG    1       38.145  36.513   7.914  0.00  0.00    +0.292 HD
ENDBRANCH  15  18
ENDBRANCH   1  12
TORSDOF 4
ENDMDL
MODEL 3
REMARK VINA RESULT:      -7.0      1.862      5.700
REMARK  Name = 
REMARK                            x       y       z     vdW  Elec       q    Type
REMARK                         _______ _______ _______ _____ _____    ______ ____
ROOT
ATOM      1  C   LIG    1       39.697  30.993   7.870  0.00  0.00    +0.015 C 
ATOM      2  C   LIG    1       39.883  30.388   6.449  0.00  0.00    +0.021 C 
ATOM      3  C   LIG    1       41.134  31.026   8.463  0.00  0.00    +0.021 C 
ENDROOT
BRANCH   1   7
ATOM      4  C   LIG    1       37.219  28.444  10.402  0.00  0.00    +0.117 A 
ATOM      5  C   LIG    1       38.300  29.108  10.960  0.00  0.00    +0.046 A 
ATOM      6  C   LIG    1       39.096  29.945  10.169  0.00  0.00    +0.008 A 
ATOM      7  C   LIG    1       38.815  30.129   8.804  0.00  0.00    -0.037 A 
ATOM      8  C   LIG    1       37.701  29.445   8.272  0.00  0.00    +0.008 A 
ATOM      9  C   LIG    1       36.906  28.609   9.060  0.00  0.00    +0.046 A 
BRANCH   4  10
ATOM     10  O   LIG    1       36.485  27.624  11.205  0.00  0.00    -0.507 OA
ATOM     11  H   LIG    1       36.721  26.704  11.002  0.00  0.00    +0.292 HD
ENDBRANCH   4  10
ENDBRANCH   1   7
BRANCH   1  12
ATOM     12  C   LIG    1       39.055  32.397   7.732  0.00  0.00    -0.037 A 
ATOM     13  C   LIG    1       39.394  33.221   6.639  0.00  0.00    +0.008 A 
ATOM     14  C   LIG    1       38.777  34.458   6.438  0.00  0.00    +0.046 A 
ATOM     15  C   LIG    1       37.792  34.882   7.315  0.00  0.00    +0.117 A 
ATOM     16  C   LIG    1       37.430  34.099   8.403  0.00  0.00    +0.046 A 
ATOM     17  C   LIG    1       38.063  32.867   8.612  0.00  0.00    +0.008 A 
BRANCH  15  18
ATOM     18  O   LIG    1       37.186  36.077   7.064  0.00  0.00    -0.507 OA
ATOM     19  H   LIG    1       37.837  36.786   7.191  0.00  0.00    +0.292 HD
ENDBRANCH  15  18
ENDBRANCH   1  12
TORSDOF 4
ENDMDL
MODEL 4
REMARK VINA RESULT:      -6.9      2.165      5.691
REMARK  Name = 
REMARK                            x       y       z     vdW  Elec       q    Type
REMARK                         _______ _______ _______ _____ _____    ______ ____
ROOT
ATOM      1  C   LIG    1       40.065  30.345   8.658  0.00  0.00    +0.015 C 
ATOM      2  C   LIG    1       40.714  30.201   7.252  0.00  0.00    +0.021 C 
ATOM      3  C   LIG    1       41.271  30.533   9.621  0.00  0.00    +0.021 C 
ENDROOT
BRANCH   1   7
ATOM      4  C   LIG    1       37.939  26.805  10.073  0.00  0.00    +0.117 A 
ATOM      5  C   LIG    1       37.215  27.876   9.573  0.00  0.00    +0.046 A 
ATOM      6  C   LIG    1       37.878  29.012   9.097  0.00  0.00    +0.008 A 
ATOM      7  C   LIG    1       39.282  29.089   9.114  0.00  0.00    -0.037 A 
ATOM      8  C   LIG    1       39.988  27.976   9.620  0.00  0.00    +0.008 A 
ATOM      9  C   LIG    1       39.326  26.840  10.095  0.00  0.00    +0.046 A 
BRANCH   4  10
ATOM     10  O   LIG    1       37.250  25.728  10.544  0.00  0.00    -0.507 OA
ATOM     11  H   LIG    1       37.586  25.512  11.429  0.00  0.00    +0.292 HD
ENDBRANCH   4  10
ENDBRANCH   1   7
BRANCH   1  12
ATOM     12  C   LIG    1       39.098  31.557   8.638  0.00  0.00    -0.037 A 
ATOM     13  C   LIG    1       38.536  32.028   9.843  0.00  0.00    +0.008 A 
ATOM     14  C   LIG    1       37.726  33.165   9.874  0.00  0.00    +0.046 A 
ATOM     15  C   LIG    1       37.483  33.866   8.704  0.00  0.00    +0.117 A 
ATOM     16  C   LIG    1       38.020  33.434   7.498  0.00  0.00    +0.046 A 
ATOM     17  C   LIG    1       38.817  32.284   7.466  0.00  0.00    +0.008 A 
BRANCH  15  18
ATOM     18  O   LIG    1       36.720  34.992   8.782  0.00  0.00    -0.507 OA
ATOM     19  H   LIG    1       37.000  35.604   8.082  0.00  0.00    +0.292 HD
ENDBRANCH  15  18
ENDBRANCH   1  12
TORSDOF 4
ENDMDL
MODEL 5
REMARK VINA RESULT:      -6.9      2.201      3.003
REMARK  Name = 
REMARK                            x       y       z     vdW  Elec       q    Type
REMARK                         _______ _______ _______ _____ _____    ______ ____
ROOT
ATOM      1  C   LIG    1       40.141  30.379   8.800  0.00  0.00    +0.015 C 
ATOM      2  C   LIG    1       41.369  30.490   9.748  0.00  0.00    +0.021 C 
ATOM      3  C   LIG    1       40.761  30.312   7.376  0.00  0.00    +0.021 C 
ENDROOT
BRANCH   1   7
ATOM      4  C   LIG    1       37.409  33.783   8.835  0.00  0.00    +0.117 A 
ATOM      5  C   LIG    1       37.693  33.129  10.023  0.00  0.00    +0.046 A 
ATOM      6  C   LIG    1       38.581  32.048  10.037  0.00  0.00    +0.008 A 
ATOM      7  C   LIG    1       39.200  31.607   8.853  0.00  0.00    -0.037 A 
ATOM      8  C   LIG    1       38.895  32.302   7.663  0.00  0.00    +0.008 A 
ATOM      9  C   LIG    1       38.008  33.383   7.649  0.00  0.00    +0.046 A 
BRANCH   4  10
ATOM     10  O   LIG    1       36.523  34.817   8.866  0.00  0.00    -0.507 OA
ATOM     11  H   LIG    1       36.299  35.058   7.953  0.00  0.00    +0.292 HD
ENDBRANCH   4  10
ENDBRANCH   1   7
BRANCH   1  12
ATOM     12  C   LIG    1       39.333  29.112   9.180  0.00  0.00    -0.037 A 
ATOM     13  C   LIG    1       40.009  27.938   9.571  0.00  0.00    +0.008 A 
ATOM     14  C   LIG    1       39.315  26.803   9.997  0.00  0.00    +0.046 A 
ATOM     15  C   LIG    1       37.931  26.831  10.062  0.00  0.00    +0.117 A 
ATOM     16  C   LIG    1       37.229  27.969   9.687  0.00  0.00    +0.046 A 
ATOM     17  C   LIG    1       37.927  29.099   9.243  0.00  0.00    +0.008 A 
BRANCH  15  18
ATOM     18  O   LIG    1       37.292  25.718  10.520  0.00  0.00    -0.507 OA
ATOM     19  H   LIG    1       36.880  25.928  11.374  0.00  0.00    +0.292 HD
ENDBRANCH  15  18
ENDBRANCH   1  12
TORSDOF 4
ENDMDL
MODEL 6
REMARK VINA RESULT:      -6.7      1.664      5.901
REMARK  Name = 
REMARK                            x       y       z     vdW  Elec       q    Type
REMARK                         _______ _______ _______ _____ _____    ______ ____
ROOT
ATOM      1  C   LIG    1       38.779  29.240   9.348  0.00  0.00    +0.015 C 
ATOM      2  C   LIG    1       37.559  29.198  10.311  0.00  0.00    +0.021 C 
ATOM      3  C   LIG    1       38.521  28.076   8.351  0.00  0.00    +0.021 C 
ENDROOT
BRANCH   1   7
ATOM      4  C   LIG    1       42.666  28.486  11.184  0.00  0.00    +0.117 A 
ATOM      5  C   LIG    1       41.903  29.554  11.628  0.00  0.00    +0.046 A 
ATOM      6  C   LIG    1       40.646  29.802  11.065  0.00  0.00    +0.008 A 
ATOM      7  C   LIG    1       40.135  28.976  10.048  0.00  0.00    -0.037 A 
ATOM      8  C   LIG    1       40.935  27.892   9.628  0.00  0.00    +0.008 A 
ATOM      9  C   LIG    1       42.191  27.644  10.189  0.00  0.00    +0.046 A 
BRANCH   4  10
ATOM     10  O   LIG    1       43.893  28.295  11.747  0.00  0.00    -0.507 OA
ATOM     11  H   LIG    1       44.526  28.890  11.312  0.00  0.00    +0.292 HD
ENDBRANCH   4  10
ENDBRANCH   1   7
BRANCH   1  12
ATOM     12  C   LIG    1       38.829  30.633   8.669  0.00  0.00    -0.037 A 
ATOM     13  C   LIG    1       39.728  30.866   7.607  0.00  0.00    +0.008 A 
ATOM     14  C   LIG    1       39.745  32.081   6.918  0.00  0.00    +0.046 A 
ATOM     15  C   LIG    1       38.847  33.078   7.265  0.00  0.00    +0.117 A 
ATOM     16  C   LIG    1       37.946  32.886   8.304  0.00  0.00    +0.046 A 
ATOM     17  C   LIG    1       37.943  31.673   9.005  0.00  0.00    +0.008 A 
BRANCH  15  18
ATOM     18  O   LIG    1       38.869  34.234   6.545  0.00  0.00    -0.507 OA
ATOM     19  H   LIG    1       38.324  34.894   7.004  0.00  0.00    +0.292 HD
ENDBRANCH  15  18
ENDBRANCH   1  12
TORSDOF 4
ENDMDL
MODEL 7
REMARK VINA RESULT:      -6.7      1.670      2.084
REMARK  Name = 
REMARK                            x       y       z     vdW  Elec       q    Type
REMARK                         _______ _______ _______ _____ _____    ______ ____
ROOT
ATOM      1  C   LIG    1       38.781  29.189   9.375  0.00  0.00    +0.015 C 
ATOM      2  C   LIG    1       38.526  28.003   8.400  0.00  0.00    +0.021 C 
ATOM      3  C   LIG    1       37.552  29.173  10.327  0.00  0.00    +0.021 C 
ENDROOT
BRANCH   1   7
ATOM      4  C   LIG    1       38.900  33.012   7.273  0.00  0.00    +0.117 A 
ATOM      5  C   LIG    1       38.004  32.840   8.316  0.00  0.00    +0.046 A 
ATOM      6  C   LIG    1       37.964  31.628   9.015  0.00  0.00    +0.008 A 
ATOM      7  C   LIG    1       38.826  30.570   8.677  0.00  0.00    -0.037 A 
ATOM      8  C   LIG    1       39.732  30.784   7.616  0.00  0.00    +0.008 A 
ATOM      9  C   LIG    1       39.773  31.994   6.917  0.00  0.00    +0.046 A 
BRANCH   4  10
ATOM     10  O   LIG    1       38.890  34.201   6.607  0.00  0.00    -0.507 OA
ATOM     11  H   LIG    1       38.021  34.616   6.733  0.00  0.00    +0.292 HD
ENDBRANCH   4  10
ENDBRANCH   1   7
BRANCH   1  12
ATOM     12  C   LIG    1       40.128  28.952  10.104  0.00  0.00    -0.037 A 
ATOM     13  C   LIG    1       40.924  27.837   9.767  0.00  0.00    +0.008 A 
ATOM     14  C   LIG    1       42.180  27.636  10.345  0.00  0.00    +0.046 A 
ATOM     15  C   LIG    1       42.672  28.559  11.253  0.00  0.00    +0.117 A 
ATOM     16  C   LIG    1       41.920  29.670  11.609  0.00  0.00    +0.046 A 
ATOM     17  C   LIG    1       40.653  29.861  11.042  0.00  0.00    +0.008 A 
BRANCH  15  18
ATOM     18  O   LIG    1       43.918  28.348  11.764  0.00  0.00    -0.507 OA
ATOM     19  H   LIG    1       44.192  29.145  12.246  0.00  0.00    +0.292 HD
ENDBRANCH  15  18
ENDBRANCH   1  12
TORSDOF 4
ENDMDL
MODEL 8
REMARK VINA RESULT:      -6.6      3.592      4.499
REMARK  Name = 
REMARK                            x       y       z     vdW  Elec       q    Type
REMARK                         _______ _______ _______ _____ _____    ______ ____
ROOT
ATOM      1  C   LIG    1       41.063  28.876  10.203  0.00  0.00    +0.015 C 
ATOM      2  C   LIG    1       41.649  30.285  10.504  0.00  0.00    +0.021 C 
ATOM      3  C   LIG    1       41.917  28.351   9.015  0.00  0.00    +0.021 C 
ENDROOT
BRANCH   1   7
ATOM      4  C   LIG    1       36.915  28.825   8.843  0.00  0.00    +0.117 A 
ATOM      5  C   LIG    1       37.183  28.930  10.199  0.00  0.00    +0.046 A 
ATOM      6  C   LIG    1       38.506  28.967  10.654  0.00  0.00    +0.008 A 
ATOM      7  C   LIG    1       39.582  28.902   9.751  0.00  0.00    -0.037 A 
ATOM      8  C   LIG    1       39.272  28.806   8.377  0.00  0.00    +0.008 A 
ATOM      9  C   LIG    1       37.951  28.769   7.922  0.00  0.00    +0.046 A 
BRANCH   4  10
ATOM     10  O   LIG    1       35.613  28.772   8.448  0.00  0.00    -0.507 OA
ATOM     11  H   LIG    1       35.577  28.381   7.560  0.00  0.00    +0.292 HD
ENDBRANCH   4  10
ENDBRANCH   1   7
BRANCH   1  12
ATOM     12  C   LIG    1       41.182  28.005  11.480  0.00  0.00    -0.037 A 
ATOM     13  C   LIG    1       41.317  28.622  12.741  0.00  0.00    +0.008 A 
ATOM     14  C   LIG    1       41.346  27.872  13.920  0.00  0.00    +0.046 A 
ATOM     15  C   LIG    1       41.217  26.495  13.859  0.00  0.00    +0.117 A 
ATOM     16  C   LIG    1       41.080  25.851  12.636  0.00  0.00    +0.046 A 
ATOM     17  C   LIG    1       41.069  26.603  11.455  0.00  0.00    +0.008 A 
BRANCH  15  18
ATOM     18  O   LIG    1       41.211  25.803  15.034  0.00  0.00    -0.507 OA
ATOM     19  H   LIG    1       42.130  25.619  15.288  0.00  0.00    +0.292 HD
ENDBRANCH  15  18
ENDBRANCH   1  12
TORSDOF 4
ENDMDL
MODEL 9
REMARK VINA RESULT:      -6.5      3.605      6.867
REMARK  Name = 
REMARK                            x       y       z     vdW  Elec       q    Type
REMARK                         _______ _______ _______ _____ _____    ______ ____
ROOT
ATOM      1  C   LIG    1       41.100  28.752  10.193  0.00  0.00    +0.015 C 
ATOM      2  C   LIG    1       42.047  28.242   9.069  0.00  0.00    +0.021 C 
ATOM      3  C   LIG    1       41.610  30.188  10.501  0.00  0.00    +0.021 C 
ENDROOT
BRANCH   1   7
ATOM      4  C   LIG    1       41.229  26.516  13.939  0.00  0.00    +0.117 A 
ATOM      5  C   LIG    1       41.071  25.830  12.745  0.00  0.00    +0.046 A 
ATOM      6  C   LIG    1       41.047  26.527  11.531  0.00  0.00    +0.008 A 
ATOM      7  C   LIG    1       41.182  27.926  11.499  0.00  0.00    -0.037 A 
ATOM      8  C   LIG    1       41.352  28.591  12.733  0.00  0.00    +0.008 A 
ATOM      9  C   LIG    1       41.376  27.896  13.946  0.00  0.00    +0.046 A 
BRANCH   4  10
ATOM     10  O   LIG    1       41.227  25.799  15.097  0.00  0.00    -0.507 OA
ATOM     11  H   LIG    1       41.222  24.854  14.873  0.00  0.00    +0.292 HD
ENDBRANCH   4  10
ENDBRANCH   1   7
BRANCH   1  12
ATOM     12  C   LIG    1       39.641  28.716   9.668  0.00  0.00    -0.037 A 
ATOM     13  C   LIG    1       38.567  28.893  10.565  0.00  0.00    +0.008 A 
ATOM     14  C   LIG    1       37.245  28.946  10.118  0.00  0.00    +0.046 A 
ATOM     15  C   LIG    1       36.975  28.847   8.763  0.00  0.00    +0.117 A 
ATOM     16  C   LIG    1       38.006  28.674   7.849  0.00  0.00    +0.046 A 
ATOM     17  C   LIG    1       39.329  28.603   8.301  0.00  0.00    +0.008 A 
BRANCH  15  18
ATOM     18  O   LIG    1       35.676  28.943   8.363  0.00  0.00    -0.507 OA
ATOM     19  H   LIG    1       35.442  29.884   8.299  0.00  0.00    +0.292 HD
ENDBRANCH  15  18
ENDBRANCH   1  12
TORSDOF 4
ENDMDL
