MODEL 1
REMARK VINA RESULT:      -7.1      0.000      0.000
REMARK  Name = 
REMARK                            x       y       z     vdW  Elec       q    Type
REMARK                         _______ _______ _______ _____ _____    ______ ____
ROOT
ATOM      1  C   LIG    1        8.463  -4.757  21.749  0.00  0.00    +0.015 C 
ATOM      2  C   LIG    1        9.618  -5.315  20.869  0.00  0.00    +0.021 C 
ATOM      3  C   LIG    1        7.477  -5.950  21.890  0.00  0.00    +0.021 C 
ENDROOT
BRANCH   1   7
ATOM      4  C   LIG    1        6.225  -1.421  20.041  0.00  0.00    +0.117 A 
ATOM      5  C   LIG    1        7.606  -1.439  19.929  0.00  0.00    +0.046 A 
ATOM      6  C   LIG    1        8.341  -2.509  20.453  0.00  0.00    +0.008 A 
ATOM      7  C   LIG    1        7.697  -3.580  21.097  0.00  0.00    -0.037 A 
ATOM      8  C   LIG    1        6.288  -3.533  21.184  0.00  0.00    +0.008 A 
ATOM      9  C   LIG    1        5.554  -2.465  20.661  0.00  0.00    +0.046 A 
BRANCH   4  10
ATOM     10  O   LIG    1        5.553  -0.349  19.534  0.00  0.00    -0.507 OA
ATOM     11  H   LIG    1        5.238   0.194  20.275  0.00  0.00    +0.292 HD
ENDBRANCH   4  10
ENDBRANCH   1   7
BRANCH   1  12
ATOM     12  C   LIG    1        9.053  -4.282  23.101  0.00  0.00    -0.037 A 
ATOM     13  C   LIG    1        8.192  -3.971  24.174  0.00  0.00    +0.008 A 
ATOM     14  C   LIG    1        8.690  -3.618  25.431  0.00  0.00    +0.046 A 
ATOM     15  C   LIG    1       10.059  -3.592  25.643  0.00  0.00    +0.117 A 
ATOM     16  C   LIG    1       10.939  -3.893  24.612  0.00  0.00    +0.046 A 
ATOM     17  C   LIG    1       10.438  -4.230  23.348  0.00  0.00    +0.008 A 
BRANCH  15  18
ATOM     18  O   LIG    1       10.504  -3.281  26.893  0.00  0.00    -0.507 OA
ATOM     19  H   LIG    1       10.199  -3.967  27.508  0.00  0.00    +0.292 HD
ENDBRANCH  15  18
ENDBRANCH   1  12
TORSDOF 4
ENDMDL
MODEL 2
REMARK VINA RESULT:      -7.0      0.119      5.418
REMARK  Name = 
REMARK                            x       y       z     vdW  Elec       q    Type
REMARK                         _______ _______ _______ _____ _____    ______ ____
ROOT
ATOM      1  C   LIG    1        8.454  -4.753  21.760  0.00  0.00    +0.015 C 
ATOM      2  C   LIG    1        7.505  -5.981  21.868  0.00  0.00    +0.021 C 
ATOM      3  C   LIG    1        9.624  -5.250  20.867  0.00  0.00    +0.021 C 
ENDROOT
BRANCH   1   7
ATOM      4  C   LIG    1       10.037  -3.588  25.657  0.00  0.00    +0.117 A 
ATOM      5  C   LIG    1       10.918  -3.876  24.627  0.00  0.00    +0.046 A 
ATOM      6  C   LIG    1       10.430  -4.233  23.364  0.00  0.00    +0.008 A 
ATOM      7  C   LIG    1        9.047  -4.304  23.118  0.00  0.00    -0.037 A 
ATOM      8  C   LIG    1        8.180  -3.993  24.188  0.00  0.00    +0.008 A 
ATOM      9  C   LIG    1        8.666  -3.636  25.449  0.00  0.00    +0.046 A 
BRANCH   4  10
ATOM     10  O   LIG    1       10.557  -3.265  26.875  0.00  0.00    -0.507 OA
ATOM     11  H   LIG    1       10.358  -2.332  27.056  0.00  0.00    +0.292 HD
ENDBRANCH   4  10
ENDBRANCH   1   7
BRANCH   1  12
ATOM     12  C   LIG    1        7.666  -3.569  21.142  0.00  0.00    -0.037 A 
ATOM     13  C   LIG    1        6.256  -3.568  21.177  0.00  0.00    +0.008 A 
ATOM     14  C   LIG    1        5.516  -2.483  20.703  0.00  0.00    +0.046 A 
ATOM     15  C   LIG    1        6.173  -1.369  20.206  0.00  0.00    +0.117 A 
ATOM     16  C   LIG    1        7.560  -1.332  20.156  0.00  0.00    +0.046 A 
ATOM     17  C   LIG    1        8.301  -2.428  20.616  0.00  0.00    +0.008 A 
BRANCH  15  18
ATOM     18  O   LIG    1        5.416  -0.315  19.789  0.00  0.00    -0.507 OA
ATOM     19  H   LIG    1        5.732  -0.036  18.914  0.00  0.00    +0.292 HD
ENDBRANCH  15  18
ENDBRANCH   1  12
TORSDOF 4
ENDMDL
MODEL 3
REMARK VINA RESULT:      -6.6      1.801      2.379
REMARK  Name = 
REMARK                            x       y       z     vdW  Elec       q    Type
REMARK                         _______ _______ _______ _____ _____    ______ ____
ROOT
ATOM      1  C   LIG    1        8.284  -4.540  21.771  0.00  0.00    +0.015 C 
ATOM      2  C   LIG    1        8.314  -6.087  21.610  0.00  0.00    +0.021 C 
ATOM      3  C   LIG    1        6.771  -4.194  21.860  0.00  0.00    +0.021 C 
ENDROOT
BRANCH   1   7
ATOM      4  C   LIG    1        9.951  -2.258  18.445  0.00  0.00    +0.117 A 
ATOM      5  C   LIG    1       10.571  -3.434  18.838  0.00  0.00    +0.046 A 
ATOM      6  C   LIG    1       10.041  -4.190  19.890  0.00  0.00    +0.008 A 
ATOM      7  C   LIG    1        8.877  -3.776  20.562  0.00  0.00    -0.037 A 
ATOM      8  C   LIG    1        8.267  -2.580  20.128  0.00  0.00    +0.008 A 
ATOM      9  C   LIG    1        8.795  -1.824  19.077  0.00  0.00    +0.046 A 
BRANCH   4  10
ATOM     10  O   LIG    1       10.514  -1.545  17.430  0.00  0.00    -0.507 OA
ATOM     11  H   LIG    1       11.419  -1.867  17.292  0.00  0.00    +0.292 HD
ENDBRANCH   4  10
ENDBRANCH   1   7
BRANCH   1  12
ATOM     12  C   LIG    1        9.080  -4.157  23.045  0.00  0.00    -0.037 A 
ATOM     13  C   LIG    1        8.393  -3.744  24.205  0.00  0.00    +0.008 A 
ATOM     14  C   LIG    1        9.070  -3.468  25.395  0.00  0.00    +0.046 A 
ATOM     15  C   LIG    1       10.446  -3.624  25.452  0.00  0.00    +0.117 A 
ATOM     16  C   LIG    1       11.157  -4.031  24.331  0.00  0.00    +0.046 A 
ATOM     17  C   LIG    1       10.478  -4.289  23.135  0.00  0.00    +0.008 A 
BRANCH  15  18
ATOM     18  O   LIG    1       11.066  -3.384  26.642  0.00  0.00    -0.507 OA
ATOM     19  H   LIG    1       11.491  -4.204  26.939  0.00  0.00    +0.292 HD
ENDBRANCH  15  18
ENDBRANCH   1  12
TORSDOF 4
ENDMDL
MODEL 4
REMARK VINA RESULT:      -6.6      1.797      5.544
REMARK  Name = 
REMARK                            x       y       z     vdW  Elec       q    Type
REMARK                         _______ _______ _______ _____ _____    ______ ____
ROOT
ATOM      1  C   LIG    1        8.286  -4.540  21.771  0.00  0.00    +0.015 C 
ATOM      2  C   LIG    1        6.773  -4.205  21.902  0.00  0.00    +0.021 C 
ATOM      3  C   LIG    1        8.324  -6.084  21.598  0.00  0.00    +0.021 C 
ENDROOT
BRANCH   1   7
ATOM      4  C   LIG    1       10.530  -3.614  25.398  0.00  0.00    +0.117 A 
ATOM      5  C   LIG    1       11.214  -4.020  24.263  0.00  0.00    +0.046 A 
ATOM      6  C   LIG    1       10.515  -4.303  23.084  0.00  0.00    +0.008 A 
ATOM      7  C   LIG    1        9.115  -4.180  23.028  0.00  0.00    -0.037 A 
ATOM      8  C   LIG    1        8.453  -3.754  24.199  0.00  0.00    +0.008 A 
ATOM      9  C   LIG    1        9.150  -3.471  25.377  0.00  0.00    +0.046 A 
BRANCH   4  10
ATOM     10  O   LIG    1       11.250  -3.368  26.528  0.00  0.00    -0.507 OA
ATOM     11  H   LIG    1       11.779  -2.566  26.387  0.00  0.00    +0.292 HD
ENDBRANCH   4  10
ENDBRANCH   1   7
BRANCH   1  12
ATOM     12  C   LIG    1        8.862  -3.770  20.554  0.00  0.00    -0.037 A 
ATOM     13  C   LIG    1        8.271  -2.556  20.147  0.00  0.00    +0.008 A 
ATOM     14  C   LIG    1        8.810  -1.795  19.107  0.00  0.00    +0.046 A 
ATOM     15  C   LIG    1        9.964  -2.223  18.472  0.00  0.00    +0.117 A 
ATOM     16  C   LIG    1       10.576  -3.413  18.845  0.00  0.00    +0.046 A 
ATOM     17  C   LIG    1       10.023  -4.183  19.876  0.00  0.00    +0.008 A 
BRANCH  15  18
ATOM     18  O   LIG    1       10.481  -1.433  17.489  0.00  0.00    -0.507 OA
ATOM     19  H   LIG    1       10.122  -0.537  17.593  0.00  0.00    +0.292 HD
ENDBRANCH  15  18
ENDBRANCH   1  12
TORSDOF 4
ENDMDL
MODEL 5
REMARK VINA RESULT:      -6.6      1.686      5.550
REMARK  Name = 
REMARK                            x       y       z     vdW  Elec       q    Type
REMARK                         _______ _______ _______ _____ _____    ______ ____
ROOT
ATOM      1  C   LIG    1        7.700  -4.740  22.415  0.00  0.00    +0.015 C 
ATOM      2  C   LIG    1        7.059  -4.756  23.832  0.00  0.00    +0.021 C 
ATOM      3  C   LIG    1        7.334  -6.125  21.813  0.00  0.00    +0.021 C 
ENDROOT
BRANCH   1   7
ATOM      4  C   LIG    1       12.054  -4.483  22.590  0.00  0.00    +0.117 A 
ATOM      5  C   LIG    1       11.445  -4.882  21.410  0.00  0.00    +0.046 A 
ATOM      6  C   LIG    1       10.050  -4.952  21.328  0.00  0.00    +0.008 A 
ATOM      7  C   LIG    1        9.244  -4.620  22.431  0.00  0.00    -0.037 A 
ATOM      8  C   LIG    1        9.897  -4.208  23.612  0.00  0.00    +0.008 A 
ATOM      9  C   LIG    1       11.291  -4.137  23.696  0.00  0.00    +0.046 A 
BRANCH   4  10
ATOM     10  O   LIG    1       13.415  -4.448  22.630  0.00  0.00    -0.507 OA
ATOM     11  H   LIG    1       13.694  -4.417  23.560  0.00  0.00    +0.292 HD
ENDBRANCH   4  10
ENDBRANCH   1   7
BRANCH   1  12
ATOM     12  C   LIG    1        7.114  -3.547  21.617  0.00  0.00    -0.037 A 
ATOM     13  C   LIG    1        7.697  -2.268  21.736  0.00  0.00    +0.008 A 
ATOM     14  C   LIG    1        7.247  -1.187  20.972  0.00  0.00    +0.046 A 
ATOM     15  C   LIG    1        6.221  -1.373  20.060  0.00  0.00    +0.117 A 
ATOM     16  C   LIG    1        5.623  -2.618  19.914  0.00  0.00    +0.046 A 
ATOM     17  C   LIG    1        6.063  -3.695  20.693  0.00  0.00    +0.008 A 
BRANCH  15  18
ATOM     18  O   LIG    1        5.837  -0.305  19.307  0.00  0.00    -0.507 OA
ATOM     19  H   LIG    1        4.867  -0.300  19.250  0.00  0.00    +0.292 HD
ENDBRANCH  15  18
ENDBRANCH   1  12
TORSDOF 4
ENDMDL
MODEL 6
REMARK VINA RESULT:      -6.4      1.632      2.268
REMARK  Name = 
REMARK                            x       y       z     vdW  Elec       q    Type
REMARK                         _______ _______ _______ _____ _____    ______ ____
ROOT
ATOM      1  C   LIG    1        7.934  -4.750  22.230  0.00  0.00    +0.015 C 
ATOM      2  C   LIG    1        7.590  -6.140  21.622  0.00  0.00    +0.021 C 
ATOM      3  C   LIG    1        7.240  -4.758  23.620  0.00  0.00    +0.021 C 
ENDROOT
BRANCH   1   7
ATOM      4  C   LIG    1        6.235  -1.367  20.058  0.00  0.00    +0.117 A 
ATOM      5  C   LIG    1        7.607  -1.434  20.242  0.00  0.00    +0.046 A 
ATOM      6  C   LIG    1        8.173  -2.520  20.919  0.00  0.00    +0.008 A 
ATOM      7  C   LIG    1        7.368  -3.558  21.420  0.00  0.00    -0.037 A 
ATOM      8  C   LIG    1        5.976  -3.463  21.205  0.00  0.00    +0.008 A 
ATOM      9  C   LIG    1        5.409  -2.379  20.529  0.00  0.00    +0.046 A 
BRANCH   4  10
ATOM     10  O   LIG    1        5.726  -0.282  19.410  0.00  0.00    -0.507 OA
ATOM     11  H   LIG    1        6.409   0.408  19.383  0.00  0.00    +0.292 HD
ENDBRANCH   4  10
ENDBRANCH   1   7
BRANCH   1  12
ATOM     12  C   LIG    1        9.476  -4.611  22.313  0.00  0.00    -0.037 A 
ATOM     13  C   LIG    1       10.081  -4.200  23.519  0.00  0.00    +0.008 A 
ATOM     14  C   LIG    1       11.471  -4.141  23.655  0.00  0.00    +0.046 A 
ATOM     15  C   LIG    1       12.279  -4.516  22.594  0.00  0.00    +0.117 A 
ATOM     16  C   LIG    1       11.721  -4.928  21.392  0.00  0.00    +0.046 A 
ATOM     17  C   LIG    1       10.328  -4.969  21.252  0.00  0.00    +0.008 A 
BRANCH  15  18
ATOM     18  O   LIG    1       13.629  -4.482  22.780  0.00  0.00    -0.507 OA
ATOM     19  H   LIG    1       13.817  -3.982  23.590  0.00  0.00    +0.292 HD
ENDBRANCH  15  18
ENDBRANCH   1  12
TORSDOF 4
ENDMDL
MODEL 7
REMARK VINA RESULT:      -6.2      3.274      5.554
REMARK  Name = 
REMARK                            x       y       z     vdW  Elec       q    Type
REMARK                         _______ _______ _______ _____ _____    ______ ____
ROOT
ATOM      1  C   LIG    1        4.434  -1.176  19.270  0.00  0.00    +0.015 C 
ATOM      2  C   LIG    1        4.913   0.064  18.461  0.00  0.00    +0.021 C 
ATOM      3  C   LIG    1        3.731  -2.074  18.214  0.00  0.00    +0.021 C 
ENDROOT
BRANCH   1   7
ATOM      4  C   LIG    1        1.534  -0.369  22.430  0.00  0.00    +0.117 A 
ATOM      5  C   LIG    1        2.597   0.502  22.247  0.00  0.00    +0.046 A 
ATOM      6  C   LIG    1        3.527   0.271  21.226  0.00  0.00    +0.008 A 
ATOM      7  C   LIG    1        3.402  -0.839  20.373  0.00  0.00    -0.037 A 
ATOM      8  C   LIG    1        2.302  -1.699  20.582  0.00  0.00    +0.008 A 
ATOM      9  C   LIG    1        1.372  -1.469  21.600  0.00  0.00    +0.046 A 
BRANCH   4  10
ATOM     10  O   LIG    1        0.665  -0.116  23.448  0.00  0.00    -0.507 OA
ATOM     11  H   LIG    1        0.984  -0.571  24.244  0.00  0.00    +0.292 HD
ENDBRANCH   4  10
ENDBRANCH   1   7
BRANCH   1  12
ATOM     12  C   LIG    1        5.668  -1.848  19.927  0.00  0.00    -0.037 A 
ATOM     13  C   LIG    1        5.488  -2.912  20.835  0.00  0.00    +0.008 A 
ATOM     14  C   LIG    1        6.577  -3.593  21.384  0.00  0.00    +0.046 A 
ATOM     15  C   LIG    1        7.864  -3.237  21.017  0.00  0.00    +0.117 A 
ATOM     16  C   LIG    1        8.082  -2.196  20.125  0.00  0.00    +0.046 A 
ATOM     17  C   LIG    1        6.989  -1.502  19.589  0.00  0.00    +0.008 A 
BRANCH  15  18
ATOM     18  O   LIG    1        8.898  -3.952  21.544  0.00  0.00    -0.507 OA
ATOM     19  H   LIG    1        8.568  -4.828  21.802  0.00  0.00    +0.292 HD
ENDBRANCH  15  18
ENDBRANCH   1  12
TORSDOF 4
ENDMDL
MODEL 8
REMARK VINA RESULT:      -6.2      3.244      6.639
REMARK  Name = 
REMARK                            x       y       z     vdW  Elec       q    Type
REMARK                         _______ _______ _______ _____ _____    ______ ____
ROOT
ATOM      1  C   LIG    1        4.487  -1.298  19.310  0.00  0.00    +0.015 C 
ATOM      2  C   LIG    1        3.776  -2.155  18.224  0.00  0.00    +0.021 C 
ATOM      3  C   LIG    1        4.960  -0.029  18.548  0.00  0.00    +0.021 C 
ENDROOT
BRANCH   1   7
ATOM      4  C   LIG    1        7.942  -3.355  21.008  0.00  0.00    +0.117 A 
ATOM      5  C   LIG    1        8.143  -2.349  20.076  0.00  0.00    +0.046 A 
ATOM      6  C   LIG    1        7.049  -1.664  19.535  0.00  0.00    +0.008 A 
ATOM      7  C   LIG    1        5.735  -1.980  19.923  0.00  0.00    -0.037 A 
ATOM      8  C   LIG    1        5.569  -3.003  20.881  0.00  0.00    +0.008 A 
ATOM      9  C   LIG    1        6.661  -3.687  21.423  0.00  0.00    +0.046 A 
BRANCH   4  10
ATOM     10  O   LIG    1        9.035  -4.008  21.493  0.00  0.00    -0.507 OA
ATOM     11  H   LIG    1        9.080  -3.862  22.452  0.00  0.00    +0.292 HD
ENDBRANCH   4  10
ENDBRANCH   1   7
BRANCH   1  12
ATOM     12  C   LIG    1        3.475  -0.994  20.445  0.00  0.00    -0.037 A 
ATOM     13  C   LIG    1        3.590   0.199  21.188  0.00  0.00    +0.008 A 
ATOM     14  C   LIG    1        2.651   0.545  22.162  0.00  0.00    +0.046 A 
ATOM     15  C   LIG    1        1.567  -0.285  22.395  0.00  0.00    +0.117 A 
ATOM     16  C   LIG    1        1.419  -1.468  21.683  0.00  0.00    +0.046 A 
ATOM     17  C   LIG    1        2.371  -1.822  20.719  0.00  0.00    +0.008 A 
BRANCH  15  18
ATOM     18  O   LIG    1        0.652   0.106  23.326  0.00  0.00    -0.507 OA
ATOM     19  H   LIG    1        1.070   0.074  24.202  0.00  0.00    +0.292 HD
ENDBRANCH  15  18
ENDBRANCH   1  12
TORSDOF 4
ENDMDL
MODEL 9
REMARK VINA RESULT:      -6.0      3.503      4.936
REMARK  Name = 
REMARK                            x       y       z     vdW  Elec       q    Type
REMARK                         _______ _______ _______ _____ _____    ______ ____
ROOT
ATOM      1  C   LIG    1        7.468  -2.775  20.664  0.00  0.00    +0.015 C 
ATOM      2  C   LIG    1        7.304  -4.315  20.813  0.00  0.00    +0.021 C 
ATOM      3  C   LIG    1        7.677  -2.270  22.119  0.00  0.00    +0.021 C 
ENDROOT
BRANCH   1   7
ATOM      4  C   LIG    1        4.000  -0.648  19.084  0.00  0.00    +0.117 A 
ATOM      5  C   LIG    1        4.638  -1.589  18.291  0.00  0.00    +0.046 A 
ATOM      6  C   LIG    1        5.740  -2.296  18.786  0.00  0.00    +0.008 A 
ATOM      7  C   LIG    1        6.217  -2.068  20.088  0.00  0.00    -0.037 A 
ATOM      8  C   LIG    1        5.537  -1.111  20.872  0.00  0.00    +0.008 A 
ATOM      9  C   LIG    1        4.437  -0.405  20.378  0.00  0.00    +0.046 A 
BRANCH   4  10
ATOM     10  O   LIG    1        2.944   0.030  18.553  0.00  0.00    -0.507 OA
ATOM     11  H   LIG    1        2.136  -0.482  18.720  0.00  0.00    +0.292 HD
ENDBRANCH   4  10
ENDBRANCH   1   7
BRANCH   1  12
ATOM     12  C   LIG    1        8.676  -2.492  19.734  0.00  0.00    -0.037 A 
ATOM     13  C   LIG    1        9.482  -3.559  19.284  0.00  0.00    +0.008 A 
ATOM     14  C   LIG    1       10.529  -3.352  18.382  0.00  0.00    +0.046 A 
ATOM     15  C   LIG    1       10.773  -2.078  17.897  0.00  0.00    +0.117 A 
ATOM     16  C   LIG    1       10.000  -1.002  18.315  0.00  0.00    +0.046 A 
ATOM     17  C   LIG    1        8.963  -1.209  19.233  0.00  0.00    +0.008 A 
BRANCH  15  18
ATOM     18  O   LIG    1       11.777  -1.924  16.989  0.00  0.00    -0.507 OA
ATOM     19  H   LIG    1       12.504  -1.439  17.412  0.00  0.00    +0.292 HD
ENDBRANCH  15  18
ENDBRANCH   1  12
TORSDOF 4
ENDMDL
