MODEL 1
REMARK VINA RESULT:      -7.5      0.000      0.000
REMARK  Name = 
REMARK                            x       y       z     vdW  Elec       q    Type
REMARK                         _______ _______ _______ _____ _____    ______ ____
ROOT
ATOM      1  C   LIG    1       17.756   4.056  23.061  0.00  0.00    +0.015 C 
ATOM      2  C   LIG    1       16.210   3.926  23.173  0.00  0.00    +0.021 C 
ATOM      3  C   LIG    1       17.971   5.285  22.134  0.00  0.00    +0.021 C 
ENDROOT
BRANCH   1   7
ATOM      4  C   LIG    1       19.551   0.529  21.220  0.00  0.00    +0.117 A 
ATOM      5  C   LIG    1       19.598   1.741  20.550  0.00  0.00    +0.046 A 
ATOM      6  C   LIG    1       19.045   2.888  21.132  0.00  0.00    +0.008 A 
ATOM      7  C   LIG    1       18.438   2.834  22.398  0.00  0.00    -0.037 A 
ATOM      8  C   LIG    1       18.417   1.585  23.056  0.00  0.00    +0.008 A 
ATOM      9  C   LIG    1       18.969   0.439  22.476  0.00  0.00    +0.046 A 
BRANCH   4  10
ATOM     10  O   LIG    1       20.083  -0.565  20.606  0.00  0.00    -0.507 OA
ATOM     11  H   LIG    1       19.665  -0.663  19.736  0.00  0.00    +0.292 HD
ENDBRANCH   4  10
ENDBRANCH   1   7
BRANCH   1  12
ATOM     12  C   LIG    1       18.344   4.247  24.483  0.00  0.00    -0.037 A 
ATOM     13  C   LIG    1       19.653   4.746  24.641  0.00  0.00    +0.008 A 
ATOM     14  C   LIG    1       20.187   5.007  25.906  0.00  0.00    +0.046 A 
ATOM     15  C   LIG    1       19.411   4.795  27.034  0.00  0.00    +0.117 A 
ATOM     16  C   LIG    1       18.116   4.306  26.919  0.00  0.00    +0.046 A 
ATOM     17  C   LIG    1       17.590   4.029  25.651  0.00  0.00    +0.008 A 
BRANCH  15  18
ATOM     18  O   LIG    1       19.953   5.099  28.246  0.00  0.00    -0.507 OA
ATOM     19  H   LIG    1       20.572   4.392  28.493  0.00  0.00    +0.292 HD
ENDBRANCH  15  18
ENDBRANCH   1  12
TORSDOF 4
ENDMDL
MODEL 2
REMARK VINA RESULT:      -7.4      0.059      5.700
REMARK  Name = 
REMARK                            x       y       z     vdW  Elec       q    Type
REMARK                         _______ _______ _______ _____ _____    ______ ____
ROOT
ATOM      1  C   LIG    1       17.807   4.085  23.024  0.00  0.00    +0.015 C 
ATOM      2  C   LIG    1       18.007   5.310  22.086  0.00  0.00    +0.021 C 
ATOM      3  C   LIG    1       16.264   3.939  23.140  0.00  0.00    +0.021 C 
ENDROOT
BRANCH   1   7
ATOM      4  C   LIG    1       19.453   4.810  27.001  0.00  0.00    +0.117 A 
ATOM      5  C   LIG    1       18.169   4.302  26.881  0.00  0.00    +0.046 A 
ATOM      6  C   LIG    1       17.630   4.044  25.615  0.00  0.00    +0.008 A 
ATOM      7  C   LIG    1       18.376   4.292  24.449  0.00  0.00    -0.037 A 
ATOM      8  C   LIG    1       19.683   4.799  24.609  0.00  0.00    +0.008 A 
ATOM      9  C   LIG    1       20.222   5.057  25.873  0.00  0.00    +0.046 A 
BRANCH   4  10
ATOM     10  O   LIG    1       19.929   5.064  28.252  0.00  0.00    -0.507 OA
ATOM     11  H   LIG    1       20.720   4.519  28.396  0.00  0.00    +0.292 HD
ENDBRANCH   4  10
ENDBRANCH   1   7
BRANCH   1  12
ATOM     12  C   LIG    1       18.496   2.852  22.384  0.00  0.00    -0.037 A 
ATOM     13  C   LIG    1       18.445   1.602  23.035  0.00  0.00    +0.008 A 
ATOM     14  C   LIG    1       18.984   0.453  22.452  0.00  0.00    +0.046 A 
ATOM     15  C   LIG    1       19.563   0.530  21.196  0.00  0.00    +0.117 A 
ATOM     16  C   LIG    1       19.631   1.742  20.522  0.00  0.00    +0.046 A 
ATOM     17  C   LIG    1       19.106   2.896  21.117  0.00  0.00    +0.008 A 
BRANCH  15  18
ATOM     18  O   LIG    1       20.042  -0.621  20.644  0.00  0.00    -0.507 OA
ATOM     19  H   LIG    1       19.302  -1.240  20.530  0.00  0.00    +0.292 HD
ENDBRANCH  15  18
ENDBRANCH   1  12
TORSDOF 4
ENDMDL
MODEL 3
REMARK VINA RESULT:      -7.0      1.422      5.609
REMARK  Name = 
REMARK                            x       y       z     vdW  Elec       q    Type
REMARK                         _______ _______ _______ _____ _____    ______ ____
ROOT
ATOM      1  C   LIG    1       18.970   4.207  23.167  0.00  0.00    +0.015 C 
ATOM      2  C   LIG    1       20.385   4.798  23.427  0.00  0.00    +0.021 C 
ATOM      3  C   LIG    1       18.222   5.328  22.392  0.00  0.00    +0.021 C 
ENDROOT
BRANCH   1   7
ATOM      4  C   LIG    1       16.796   3.476  26.880  0.00  0.00    +0.117 A 
ATOM      5  C   LIG    1       16.092   3.575  25.691  0.00  0.00    +0.046 A 
ATOM      6  C   LIG    1       16.772   3.789  24.486  0.00  0.00    +0.008 A 
ATOM      7  C   LIG    1       18.173   3.907  24.460  0.00  0.00    -0.037 A 
ATOM      8  C   LIG    1       18.858   3.792  25.688  0.00  0.00    +0.008 A 
ATOM      9  C   LIG    1       18.180   3.577  26.891  0.00  0.00    +0.046 A 
BRANCH   4  10
ATOM     10  O   LIG    1       16.091   3.287  28.030  0.00  0.00    -0.507 OA
ATOM     11  H   LIG    1       15.181   3.041  27.796  0.00  0.00    +0.292 HD
ENDBRANCH   4  10
ENDBRANCH   1   7
BRANCH   1  12
ATOM     12  C   LIG    1       19.122   2.894  22.356  0.00  0.00    -0.037 A 
ATOM     13  C   LIG    1       19.450   2.948  20.986  0.00  0.00    +0.008 A 
ATOM     14  C   LIG    1       19.674   1.786  20.243  0.00  0.00    +0.046 A 
ATOM     15  C   LIG    1       19.596   0.550  20.864  0.00  0.00    +0.117 A 
ATOM     16  C   LIG    1       19.276   0.456  22.212  0.00  0.00    +0.046 A 
ATOM     17  C   LIG    1       19.035   1.621  22.950  0.00  0.00    +0.008 A 
BRANCH  15  18
ATOM     18  O   LIG    1       19.859  -0.557  20.114  0.00  0.00    -0.507 OA
ATOM     19  H   LIG    1       19.024  -1.027  19.955  0.00  0.00    +0.292 HD
ENDBRANCH  15  18
ENDBRANCH   1  12
TORSDOF 4
ENDMDL
MODEL 4
REMARK VINA RESULT:      -6.9     10.450     12.901
REMARK  Name = 
REMARK                            x       y       z     vdW  Elec       q    Type
REMARK                         _______ _______ _______ _____ _____    ______ ____
ROOT
ATOM      1  C   LIG    1        9.206   0.721  28.206  0.00  0.00    +0.015 C 
ATOM      2  C   LIG    1        8.852  -0.752  27.855  0.00  0.00    +0.021 C 
ATOM      3  C   LIG    1       10.547   0.981  27.465  0.00  0.00    +0.021 C 
ENDROOT
BRANCH   1   7
ATOM      4  C   LIG    1        9.940   1.531  32.432  0.00  0.00    +0.117 A 
ATOM      5  C   LIG    1        8.668   1.164  32.023  0.00  0.00    +0.046 A 
ATOM      6  C   LIG    1        8.416   0.882  30.676  0.00  0.00    +0.008 A 
ATOM      7  C   LIG    1        9.442   0.962  29.717  0.00  0.00    -0.037 A 
ATOM      8  C   LIG    1       10.727   1.328  30.171  0.00  0.00    +0.008 A 
ATOM      9  C   LIG    1       10.980   1.610  31.516  0.00  0.00    +0.046 A 
BRANCH   4  10
ATOM     10  O   LIG    1       10.134   1.816  33.750  0.00  0.00    -0.507 OA
ATOM     11  H   LIG    1       10.952   1.382  34.041  0.00  0.00    +0.292 HD
ENDBRANCH   4  10
ENDBRANCH   1   7
BRANCH   1  12
ATOM     12  C   LIG    1        8.050   1.638  27.728  0.00  0.00    -0.037 A 
ATOM     13  C   LIG    1        6.889   1.068  27.164  0.00  0.00    +0.008 A 
ATOM     14  C   LIG    1        5.796   1.856  26.796  0.00  0.00    +0.046 A 
ATOM     15  C   LIG    1        5.835   3.225  27.007  0.00  0.00    +0.117 A 
ATOM     16  C   LIG    1        6.960   3.822  27.560  0.00  0.00    +0.046 A 
ATOM     17  C   LIG    1        8.062   3.033  27.912  0.00  0.00    +0.008 A 
BRANCH  15  18
ATOM     18  O   LIG    1        4.734   3.953  26.671  0.00  0.00    -0.507 OA
ATOM     19  H   LIG    1        4.038   3.343  26.376  0.00  0.00    +0.292 HD
ENDBRANCH  15  18
ENDBRANCH   1  12
TORSDOF 4
ENDMDL
MODEL 5
REMARK VINA RESULT:      -6.8      9.564     11.957
REMARK  Name = 
REMARK                            x       y       z     vdW  Elec       q    Type
REMARK                         _______ _______ _______ _____ _____    ______ ____
ROOT
ATOM      1  C   LIG    1        9.214   0.606  27.988  0.00  0.00    +0.015 C 
ATOM      2  C   LIG    1        8.619  -0.627  28.726  0.00  0.00    +0.021 C 
ATOM      3  C   LIG    1        9.925   0.003  26.744  0.00  0.00    +0.021 C 
ENDROOT
BRANCH   1   7
ATOM      4  C   LIG    1       12.181   2.896  30.224  0.00  0.00    +0.117 A 
ATOM      5  C   LIG    1       11.146   2.278  30.908  0.00  0.00    +0.046 A 
ATOM      6  C   LIG    1       10.195   1.523  30.211  0.00  0.00    +0.008 A 
ATOM      7  C   LIG    1       10.272   1.377  28.815  0.00  0.00    -0.037 A 
ATOM      8  C   LIG    1       11.345   2.012  28.153  0.00  0.00    +0.008 A 
ATOM      9  C   LIG    1       12.295   2.765  28.848  0.00  0.00    +0.046 A 
BRANCH   4  10
ATOM     10  O   LIG    1       13.072   3.637  30.941  0.00  0.00    -0.507 OA
ATOM     11  H   LIG    1       12.794   4.567  30.909  0.00  0.00    +0.292 HD
ENDBRANCH   4  10
ENDBRANCH   1   7
BRANCH   1  12
ATOM     12  C   LIG    1        8.058   1.575  27.627  0.00  0.00    -0.037 A 
ATOM     13  C   LIG    1        6.862   1.068  27.076  0.00  0.00    +0.008 A 
ATOM     14  C   LIG    1        5.771   1.899  26.814  0.00  0.00    +0.046 A 
ATOM     15  C   LIG    1        5.847   3.248  27.119  0.00  0.00    +0.117 A 
ATOM     16  C   LIG    1        7.007   3.784  27.663  0.00  0.00    +0.046 A 
ATOM     17  C   LIG    1        8.106   2.952  27.909  0.00  0.00    +0.008 A 
BRANCH  15  18
ATOM     18  O   LIG    1        4.748   4.018  26.884  0.00  0.00    -0.507 OA
ATOM     19  H   LIG    1        4.450   4.396  27.728  0.00  0.00    +0.292 HD
ENDBRANCH  15  18
ENDBRANCH   1  12
TORSDOF 4
ENDMDL
MODEL 6
REMARK VINA RESULT:      -6.8     10.243     12.199
REMARK  Name = 
REMARK                            x       y       z     vdW  Elec       q    Type
REMARK                         _______ _______ _______ _____ _____    ______ ____
ROOT
ATOM      1  C   LIG    1        9.206   0.735  28.236  0.00  0.00    +0.015 C 
ATOM      2  C   LIG    1       10.408   0.747  27.248  0.00  0.00    +0.021 C 
ATOM      3  C   LIG    1        8.710  -0.738  28.219  0.00  0.00    +0.021 C 
ENDROOT
BRANCH   1   7
ATOM      4  C   LIG    1        5.793   3.190  27.063  0.00  0.00    +0.117 A 
ATOM      5  C   LIG    1        6.889   3.793  27.659  0.00  0.00    +0.046 A 
ATOM      6  C   LIG    1        8.001   3.027  28.025  0.00  0.00    +0.008 A 
ATOM      7  C   LIG    1        8.030   1.640  27.795  0.00  0.00    -0.037 A 
ATOM      8  C   LIG    1        6.901   1.061  27.177  0.00  0.00    +0.008 A 
ATOM      9  C   LIG    1        5.790   1.825  26.810  0.00  0.00    +0.046 A 
BRANCH   4  10
ATOM     10  O   LIG    1        4.725   3.972  26.742  0.00  0.00    -0.507 OA
ATOM     11  H   LIG    1        4.199   4.119  27.545  0.00  0.00    +0.292 HD
ENDBRANCH   4  10
ENDBRANCH   1   7
BRANCH   1  12
ATOM     12  C   LIG    1        9.703   1.202  29.629  0.00  0.00    -0.037 A 
ATOM     13  C   LIG    1        8.974   0.858  30.786  0.00  0.00    +0.008 A 
ATOM     14  C   LIG    1        9.433   1.192  32.063  0.00  0.00    +0.046 A 
ATOM     15  C   LIG    1       10.641   1.855  32.205  0.00  0.00    +0.117 A 
ATOM     16  C   LIG    1       11.388   2.209  31.090  0.00  0.00    +0.046 A 
ATOM     17  C   LIG    1       10.917   1.889  29.810  0.00  0.00    +0.008 A 
BRANCH  15  18
ATOM     18  O   LIG    1       11.073   2.128  33.469  0.00  0.00    -0.507 OA
ATOM     19  H   LIG    1       11.999   2.415  33.422  0.00  0.00    +0.292 HD
ENDBRANCH  15  18
ENDBRANCH   1  12
TORSDOF 4
ENDMDL
MODEL 7
REMARK VINA RESULT:      -6.8     10.526     11.744
REMARK  Name = 
REMARK                            x       y       z     vdW  Elec       q    Type
REMARK                         _______ _______ _______ _____ _____    ______ ____
ROOT
ATOM      1  C   LIG    1        8.621   1.178  27.558  0.00  0.00    +0.015 C 
ATOM      2  C   LIG    1        9.598   0.348  26.676  0.00  0.00    +0.021 C 
ATOM      3  C   LIG    1        7.262   0.435  27.429  0.00  0.00    +0.021 C 
ENDROOT
BRANCH   1   7
ATOM      4  C   LIG    1        7.905   5.267  26.211  0.00  0.00    +0.117 A 
ATOM      5  C   LIG    1        8.994   5.003  27.026  0.00  0.00    +0.046 A 
ATOM      6  C   LIG    1        9.253   3.695  27.453  0.00  0.00    +0.008 A 
ATOM      7  C   LIG    1        8.419   2.631  27.065  0.00  0.00    -0.037 A 
ATOM      8  C   LIG    1        7.325   2.935  26.226  0.00  0.00    +0.008 A 
ATOM      9  C   LIG    1        7.067   4.240  25.799  0.00  0.00    +0.046 A 
BRANCH   4  10
ATOM     10  O   LIG    1        7.682   6.557  25.836  0.00  0.00    -0.507 OA
ATOM     11  H   LIG    1        7.741   6.611  24.868  0.00  0.00    +0.292 HD
ENDBRANCH   4  10
ENDBRANCH   1   7
BRANCH   1  12
ATOM     12  C   LIG    1        9.169   1.212  29.008  0.00  0.00    -0.037 A 
ATOM     13  C   LIG    1        8.284   1.071  30.097  0.00  0.00    +0.008 A 
ATOM     14  C   LIG    1        8.750   1.016  31.413  0.00  0.00    +0.046 A 
ATOM     15  C   LIG    1       10.111   1.079  31.661  0.00  0.00    +0.117 A 
ATOM     16  C   LIG    1       11.014   1.217  30.616  0.00  0.00    +0.046 A 
ATOM     17  C   LIG    1       10.544   1.289  29.298  0.00  0.00    +0.008 A 
BRANCH  15  18
ATOM     18  O   LIG    1       10.528   0.984  32.955  0.00  0.00    -0.507 OA
ATOM     19  H   LIG    1       10.813   1.863  33.253  0.00  0.00    +0.292 HD
ENDBRANCH  15  18
ENDBRANCH   1  12
TORSDOF 4
ENDMDL
MODEL 8
REMARK VINA RESULT:      -6.8     10.524     11.985
REMARK  Name = 
REMARK                            x       y       z     vdW  Elec       q    Type
REMARK                         _______ _______ _______ _____ _____    ______ ____
ROOT
ATOM      1  C   LIG    1        8.615   1.201  27.558  0.00  0.00    +0.015 C 
ATOM      2  C   LIG    1        7.250   0.466  27.435  0.00  0.00    +0.021 C 
ATOM      3  C   LIG    1        9.578   0.375  26.660  0.00  0.00    +0.021 C 
ENDROOT
BRANCH   1   7
ATOM      4  C   LIG    1       10.160   1.091  31.639  0.00  0.00    +0.117 A 
ATOM      5  C   LIG    1       11.043   1.256  30.584  0.00  0.00    +0.046 A 
ATOM      6  C   LIG    1       10.566   1.313  29.269  0.00  0.00    +0.008 A 
ATOM      7  C   LIG    1        9.191   1.207  28.995  0.00  0.00    -0.037 A 
ATOM      8  C   LIG    1        8.319   1.050  30.095  0.00  0.00    +0.008 A 
ATOM      9  C   LIG    1        8.795   0.993  31.408  0.00  0.00    +0.046 A 
BRANCH   4  10
ATOM     10  O   LIG    1       10.671   1.021  32.900  0.00  0.00    -0.507 OA
ATOM     11  H   LIG    1       10.152   1.607  33.475  0.00  0.00    +0.292 HD
ENDBRANCH   4  10
ENDBRANCH   1   7
BRANCH   1  12
ATOM     12  C   LIG    1        8.435   2.666  27.084  0.00  0.00    -0.037 A 
ATOM     13  C   LIG    1        7.359   3.004  26.239  0.00  0.00    +0.008 A 
ATOM     14  C   LIG    1        7.118   4.327  25.857  0.00  0.00    +0.046 A 
ATOM     15  C   LIG    1        7.938   5.337  26.333  0.00  0.00    +0.117 A 
ATOM     16  C   LIG    1        9.007   5.044  27.169  0.00  0.00    +0.046 A 
ATOM     17  C   LIG    1        9.257   3.716  27.536  0.00  0.00    +0.008 A 
BRANCH  15  18
ATOM     18  O   LIG    1        7.647   6.618  25.970  0.00  0.00    -0.507 OA
ATOM     19  H   LIG    1        8.471   7.056  25.700  0.00  0.00    +0.292 HD
ENDBRANCH  15  18
ENDBRANCH   1  12
TORSDOF 4
ENDMDL
MODEL 9
REMARK VINA RESULT:      -6.8      3.124      6.829
REMARK  Name = 
REMARK                            x       y       z     vdW  Elec       q    Type
REMARK                         _______ _______ _______ _____ _____    ______ ____
ROOT
ATOM      1  C   LIG    1       18.609   4.540  26.257  0.00  0.00    +0.015 C 
ATOM      2  C   LIG    1       19.207   3.131  26.535  0.00  0.00    +0.021 C 
ATOM      3  C   LIG    1       19.821   5.381  25.768  0.00  0.00    +0.021 C 
ENDROOT
BRANCH   1   7
ATOM      4  C   LIG    1       17.047   6.386  29.890  0.00  0.00    +0.117 A 
ATOM      5  C   LIG    1       17.565   7.192  28.890  0.00  0.00    +0.046 A 
ATOM      6  C   LIG    1       18.053   6.621  27.709  0.00  0.00    +0.008 A 
ATOM      7  C   LIG    1       18.026   5.229  27.515  0.00  0.00    -0.037 A 
ATOM      8  C   LIG    1       17.482   4.439  28.551  0.00  0.00    +0.008 A 
ATOM      9  C   LIG    1       16.994   5.008  29.731  0.00  0.00    +0.046 A 
BRANCH   4  10
ATOM     10  O   LIG    1       16.601   6.984  31.031  0.00  0.00    -0.507 OA
ATOM     11  H   LIG    1       17.246   7.660  31.295  0.00  0.00    +0.292 HD
ENDBRANCH   4  10
ENDBRANCH   1   7
BRANCH   1  12
ATOM     12  C   LIG    1       17.486   4.402  25.196  0.00  0.00    -0.037 A 
ATOM     13  C   LIG    1       17.816   4.360  23.825  0.00  0.00    +0.008 A 
ATOM     14  C   LIG    1       16.841   4.156  22.846  0.00  0.00    +0.046 A 
ATOM     15  C   LIG    1       15.521   3.968  23.223  0.00  0.00    +0.117 A 
ATOM     16  C   LIG    1       15.157   4.002  24.562  0.00  0.00    +0.046 A 
ATOM     17  C   LIG    1       16.134   4.224  25.541  0.00  0.00    +0.008 A 
BRANCH  15  18
ATOM     18  O   LIG    1       14.605   3.734  22.241  0.00  0.00    -0.507 OA
ATOM     19  H   LIG    1       14.872   2.937  21.755  0.00  0.00    +0.292 HD
ENDBRANCH  15  18
ENDBRANCH   1  12
TORSDOF 4
ENDMDL
