MODEL 1
REMARK VINA RESULT:      -2.4      0.000      0.000
REMARK  Name = 
REMARK                            x       y       z     vdW  Elec       q    Type
REMARK                         _______ _______ _______ _____ _____    ______ ____
ROOT
ATOM      1  C   LIG    1       18.551   3.732  51.451  0.00  0.00    +0.015 C 
ATOM      2  C   LIG    1       19.030   3.288  50.039  0.00  0.00    +0.021 C 
ATOM      3  C   LIG    1       19.858   3.820  52.289  0.00  0.00    +0.021 C 
ENDROOT
BRANCH   1   7
ATOM      4  C   LIG    1       15.902   0.774  53.263  0.00  0.00    +0.117 A 
ATOM      5  C   LIG    1       17.019   1.203  53.963  0.00  0.00    +0.046 A 
ATOM      6  C   LIG    1       17.870   2.165  53.407  0.00  0.00    +0.008 A 
ATOM      7  C   LIG    1       17.611   2.713  52.139  0.00  0.00    -0.037 A 
ATOM      8  C   LIG    1       16.459   2.260  51.458  0.00  0.00    +0.008 A 
ATOM      9  C   LIG    1       15.608   1.300  52.012  0.00  0.00    +0.046 A 
BRANCH   4  10
ATOM     10  O   LIG    1       15.113  -0.178  53.834  0.00  0.00    -0.507 OA
ATOM     11  H   LIG    1       15.645  -0.980  53.965  0.00  0.00    +0.292 HD
ENDBRANCH   4  10
ENDBRANCH   1   7
BRANCH   1  12
ATOM     12  C   LIG    1       17.811   5.088  51.321  0.00  0.00    -0.037 A 
ATOM     13  C   LIG    1       17.898   5.824  50.121  0.00  0.00    +0.008 A 
ATOM     14  C   LIG    1       17.181   7.009  49.938  0.00  0.00    +0.046 A 
ATOM     15  C   LIG    1       16.346   7.466  50.944  0.00  0.00    +0.117 A 
ATOM     16  C   LIG    1       16.232   6.769  52.140  0.00  0.00    +0.046 A 
ATOM     17  C   LIG    1       16.966   5.591  52.327  0.00  0.00    +0.008 A 
BRANCH  15  18
ATOM     18  O   LIG    1       15.633   8.605  50.713  0.00  0.00    -0.507 OA
ATOM     19  H   LIG    1       16.234   9.364  50.785  0.00  0.00    +0.292 HD
ENDBRANCH  15  18
ENDBRANCH   1  12
TORSDOF 4
ENDMDL
MODEL 2
REMARK VINA RESULT:      -2.4      2.506      3.875
REMARK  Name = 
REMARK                            x       y       z     vdW  Elec       q    Type
REMARK                         _______ _______ _______ _____ _____    ______ ____
ROOT
ATOM      1  C   LIG    1       16.275   2.198  54.019  0.00  0.00    +0.015 C 
ATOM      2  C   LIG    1       17.028   1.335  55.072  0.00  0.00    +0.021 C 
ATOM      3  C   LIG    1       15.252   3.016  54.855  0.00  0.00    +0.021 C 
ENDROOT
BRANCH   1   7
ATOM      4  C   LIG    1       14.081  -0.046  50.986  0.00  0.00    +0.117 A 
ATOM      5  C   LIG    1       15.000  -0.707  51.785  0.00  0.00    +0.046 A 
ATOM      6  C   LIG    1       15.700  -0.010  52.777  0.00  0.00    +0.008 A 
ATOM      7  C   LIG    1       15.485   1.365  52.981  0.00  0.00    -0.037 A 
ATOM      8  C   LIG    1       14.535   2.004  52.155  0.00  0.00    +0.008 A 
ATOM      9  C   LIG    1       13.835   1.308  51.165  0.00  0.00    +0.046 A 
BRANCH   4  10
ATOM     10  O   LIG    1       13.438  -0.761  50.021  0.00  0.00    -0.507 OA
ATOM     11  H   LIG    1       12.585  -1.059  50.376  0.00  0.00    +0.292 HD
ENDBRANCH   4  10
ENDBRANCH   1   7
BRANCH   1  12
ATOM     12  C   LIG    1       17.307   3.082  53.272  0.00  0.00    -0.037 A 
ATOM     13  C   LIG    1       17.333   4.474  53.497  0.00  0.00    +0.008 A 
ATOM     14  C   LIG    1       18.300   5.290  52.904  0.00  0.00    +0.046 A 
ATOM     15  C   LIG    1       19.270   4.725  52.093  0.00  0.00    +0.117 A 
ATOM     16  C   LIG    1       19.278   3.358  51.849  0.00  0.00    +0.046 A 
ATOM     17  C   LIG    1       18.298   2.544  52.430  0.00  0.00    +0.008 A 
BRANCH  15  18
ATOM     18  O   LIG    1       20.219   5.549  51.565  0.00  0.00    -0.507 OA
ATOM     19  H   LIG    1       20.974   5.008  51.282  0.00  0.00    +0.292 HD
ENDBRANCH  15  18
ENDBRANCH   1  12
TORSDOF 4
ENDMDL
MODEL 3
REMARK VINA RESULT:      -2.3      0.865      5.653
REMARK  Name = 
REMARK                            x       y       z     vdW  Elec       q    Type
REMARK                         _______ _______ _______ _____ _____    ______ ____
ROOT
ATOM      1  C   LIG    1       18.887   3.572  51.438  0.00  0.00    +0.015 C 
ATOM      2  C   LIG    1       20.349   3.500  51.965  0.00  0.00    +0.021 C 
ATOM      3  C   LIG    1       18.999   3.172  49.940  0.00  0.00    +0.021 C 
ENDROOT
BRANCH   1   7
ATOM      4  C   LIG    1       17.267   7.616  51.713  0.00  0.00    +0.117 A 
ATOM      5  C   LIG    1       17.277   6.971  50.486  0.00  0.00    +0.046 A 
ATOM      6  C   LIG    1       17.774   5.667  50.380  0.00  0.00    +0.008 A 
ATOM      7  C   LIG    1       18.268   4.990  51.509  0.00  0.00    -0.037 A 
ATOM      8  C   LIG    1       18.234   5.673  52.744  0.00  0.00    +0.008 A 
ATOM      9  C   LIG    1       17.738   6.975  52.850  0.00  0.00    +0.046 A 
BRANCH   4  10
ATOM     10  O   LIG    1       16.793   8.892  51.764  0.00  0.00    -0.507 OA
ATOM     11  H   LIG    1       17.276   9.426  51.113  0.00  0.00    +0.292 HD
ENDBRANCH   4  10
ENDBRANCH   1   7
BRANCH   1  12
ATOM     12  C   LIG    1       18.010   2.601  52.271  0.00  0.00    -0.037 A 
ATOM     13  C   LIG    1       16.657   2.403  51.925  0.00  0.00    +0.008 A 
ATOM     14  C   LIG    1       15.859   1.478  52.601  0.00  0.00    +0.046 A 
ATOM     15  C   LIG    1       16.407   0.716  53.620  0.00  0.00    +0.117 A 
ATOM     16  C   LIG    1       17.735   0.881  53.989  0.00  0.00    +0.046 A 
ATOM     17  C   LIG    1       18.529   1.823  53.322  0.00  0.00    +0.008 A 
BRANCH  15  18
ATOM     18  O   LIG    1       15.607  -0.204  54.230  0.00  0.00    -0.507 OA
ATOM     19  H   LIG    1       16.165  -0.795  54.760  0.00  0.00    +0.292 HD
ENDBRANCH  15  18
ENDBRANCH   1  12
TORSDOF 4
ENDMDL
MODEL 4
REMARK VINA RESULT:      -2.3      2.079      3.225
REMARK  Name = 
REMARK                            x       y       z     vdW  Elec       q    Type
REMARK                         _______ _______ _______ _____ _____    ______ ____
ROOT
ATOM      1  C   LIG    1       15.358   4.201  53.559  0.00  0.00    +0.015 C 
ATOM      2  C   LIG    1       16.022   4.269  54.964  0.00  0.00    +0.021 C 
ATOM      3  C   LIG    1       14.067   5.055  53.703  0.00  0.00    +0.021 C 
ENDROOT
BRANCH   1   7
ATOM      4  C   LIG    1       14.193   0.213  52.223  0.00  0.00    +0.117 A 
ATOM      5  C   LIG    1       15.167   0.342  53.200  0.00  0.00    +0.046 A 
ATOM      6  C   LIG    1       15.541   1.612  53.656  0.00  0.00    +0.008 A 
ATOM      7  C   LIG    1       14.939   2.771  53.137  0.00  0.00    -0.037 A 
ATOM      8  C   LIG    1       13.944   2.601  52.150  0.00  0.00    +0.008 A 
ATOM      9  C   LIG    1       13.570   1.334  51.694  0.00  0.00    +0.046 A 
BRANCH   4  10
ATOM     10  O   LIG    1       13.876  -1.041  51.795  0.00  0.00    -0.507 OA
ATOM     11  H   LIG    1       14.695  -1.495  51.538  0.00  0.00    +0.292 HD
ENDBRANCH   4  10
ENDBRANCH   1   7
BRANCH   1  12
ATOM     12  C   LIG    1       16.353   4.761  52.511  0.00  0.00    -0.037 A 
ATOM     13  C   LIG    1       16.361   6.141  52.217  0.00  0.00    +0.008 A 
ATOM     14  C   LIG    1       17.297   6.694  51.339  0.00  0.00    +0.046 A 
ATOM     15  C   LIG    1       18.256   5.880  50.758  0.00  0.00    +0.117 A 
ATOM     16  C   LIG    1       18.282   4.518  51.025  0.00  0.00    +0.046 A 
ATOM     17  C   LIG    1       17.332   3.963  51.891  0.00  0.00    +0.008 A 
BRANCH  15  18
ATOM     18  O   LIG    1       19.175   6.464  49.938  0.00  0.00    -0.507 OA
ATOM     19  H   LIG    1       19.951   6.708  50.469  0.00  0.00    +0.292 HD
ENDBRANCH  15  18
ENDBRANCH   1  12
TORSDOF 4
ENDMDL
MODEL 5
REMARK VINA RESULT:      -2.2      3.809      5.602
REMARK  Name = 
REMARK                            x       y       z     vdW  Elec       q    Type
REMARK                         _______ _______ _______ _____ _____    ______ ____
ROOT
ATOM      1  C   LIG    1       15.876   2.151  54.205  0.00  0.00    +0.015 C 
ATOM      2  C   LIG    1       15.514   3.653  54.015  0.00  0.00    +0.021 C 
ATOM      3  C   LIG    1       15.399   1.821  55.647  0.00  0.00    +0.021 C 
ENDROOT
BRANCH   1   7
ATOM      4  C   LIG    1       20.183   1.485  53.964  0.00  0.00    +0.117 A 
ATOM      5  C   LIG    1       19.470   0.934  55.017  0.00  0.00    +0.046 A 
ATOM      6  C   LIG    1       18.085   1.120  55.101  0.00  0.00    +0.008 A 
ATOM      7  C   LIG    1       17.395   1.862  54.127  0.00  0.00    -0.037 A 
ATOM      8  C   LIG    1       18.152   2.400  53.064  0.00  0.00    +0.008 A 
ATOM      9  C   LIG    1       19.535   2.215  52.978  0.00  0.00    +0.046 A 
BRANCH   4  10
ATOM     10  O   LIG    1       21.532   1.295  53.933  0.00  0.00    -0.507 OA
ATOM     11  H   LIG    1       21.730   0.434  54.336  0.00  0.00    +0.292 HD
ENDBRANCH   4  10
ENDBRANCH   1   7
BRANCH   1  12
ATOM     12  C   LIG    1       15.152   1.324  53.112  0.00  0.00    -0.037 A 
ATOM     13  C   LIG    1       14.591   1.975  51.993  0.00  0.00    +0.008 A 
ATOM     14  C   LIG    1       14.003   1.256  50.950  0.00  0.00    +0.046 A 
ATOM     15  C   LIG    1       13.986  -0.128  50.996  0.00  0.00    +0.117 A 
ATOM     16  C   LIG    1       14.529  -0.806  52.080  0.00  0.00    +0.046 A 
ATOM     17  C   LIG    1       15.103  -0.082  53.133  0.00  0.00    +0.008 A 
BRANCH  15  18
ATOM     18  O   LIG    1       13.438  -0.795  49.941  0.00  0.00    -0.507 OA
ATOM     19  H   LIG    1       12.818  -0.199  49.489  0.00  0.00    +0.292 HD
ENDBRANCH  15  18
ENDBRANCH   1  12
TORSDOF 4
ENDMDL
MODEL 6
REMARK VINA RESULT:      -2.2      2.047      6.168
REMARK  Name = 
REMARK                            x       y       z     vdW  Elec       q    Type
REMARK                         _______ _______ _______ _____ _____    ______ ____
ROOT
ATOM      1  C   LIG    1       15.475   5.265  53.745  0.00  0.00    +0.015 C 
ATOM      2  C   LIG    1       14.485   5.189  54.943  0.00  0.00    +0.021 C 
ATOM      3  C   LIG    1       16.849   5.571  54.402  0.00  0.00    +0.021 C 
ENDROOT
BRANCH   1   7
ATOM      4  C   LIG    1       14.515   8.557  51.045  0.00  0.00    +0.117 A 
ATOM      5  C   LIG    1       15.809   8.062  51.077  0.00  0.00    +0.046 A 
ATOM      6  C   LIG    1       16.132   6.994  51.922  0.00  0.00    +0.008 A 
ATOM      7  C   LIG    1       15.158   6.406  52.747  0.00  0.00    -0.037 A 
ATOM      8  C   LIG    1       13.849   6.928  52.681  0.00  0.00    +0.008 A 
ATOM      9  C   LIG    1       13.524   7.995  51.837  0.00  0.00    +0.046 A 
BRANCH   4  10
ATOM     10  O   LIG    1       14.250   9.610  50.222  0.00  0.00    -0.507 OA
ATOM     11  H   LIG    1       14.534   9.377  49.323  0.00  0.00    +0.292 HD
ENDBRANCH   4  10
ENDBRANCH   1   7
BRANCH   1  12
ATOM     12  C   LIG    1       15.442   3.913  52.987  0.00  0.00    -0.037 A 
ATOM     13  C   LIG    1       16.643   3.341  52.518  0.00  0.00    +0.008 A 
ATOM     14  C   LIG    1       16.662   2.087  51.902  0.00  0.00    +0.046 A 
ATOM     15  C   LIG    1       15.482   1.373  51.767  0.00  0.00    +0.117 A 
ATOM     16  C   LIG    1       14.280   1.902  52.217  0.00  0.00    +0.046 A 
ATOM     17  C   LIG    1       14.261   3.166  52.818  0.00  0.00    +0.008 A 
BRANCH  15  18
ATOM     18  O   LIG    1       15.548   0.136  51.196  0.00  0.00    -0.507 OA
ATOM     19  H   LIG    1       15.173  -0.510  51.817  0.00  0.00    +0.292 HD
ENDBRANCH  15  18
ENDBRANCH   1  12
TORSDOF 4
ENDMDL
MODEL 7
REMARK VINA RESULT:      -2.2      2.190      3.222
REMARK  Name = 
REMARK                            x       y       z     vdW  Elec       q    Type
REMARK                         _______ _______ _______ _____ _____    ______ ____
ROOT
ATOM      1  C   LIG    1       19.079   6.864  51.301  0.00  0.00    +0.015 C 
ATOM      2  C   LIG    1       19.750   7.199  49.938  0.00  0.00    +0.021 C 
ATOM      3  C   LIG    1       19.938   7.626  52.348  0.00  0.00    +0.021 C 
ENDROOT
BRANCH   1   7
ATOM      4  C   LIG    1       19.132   2.654  52.452  0.00  0.00    +0.117 A 
ATOM      5  C   LIG    1       18.513   3.026  51.270  0.00  0.00    +0.046 A 
ATOM      6  C   LIG    1       18.502   4.368  50.873  0.00  0.00    +0.008 A 
ATOM      7  C   LIG    1       19.116   5.358  51.660  0.00  0.00    -0.037 A 
ATOM      8  C   LIG    1       19.746   4.942  52.853  0.00  0.00    +0.008 A 
ATOM      9  C   LIG    1       19.758   3.602  53.249  0.00  0.00    +0.046 A 
BRANCH   4  10
ATOM     10  O   LIG    1       19.101   1.339  52.808  0.00  0.00    -0.507 OA
ATOM     11  H   LIG    1       18.835   1.280  53.740  0.00  0.00    +0.292 HD
ENDBRANCH   4  10
ENDBRANCH   1   7
BRANCH   1  12
ATOM     12  C   LIG    1       17.602   7.333  51.257  0.00  0.00    -0.037 A 
ATOM     13  C   LIG    1       17.024   7.720  50.030  0.00  0.00    +0.008 A 
ATOM     14  C   LIG    1       15.675   8.071  49.938  0.00  0.00    +0.046 A 
ATOM     15  C   LIG    1       14.875   8.018  51.068  0.00  0.00    +0.117 A 
ATOM     16  C   LIG    1       15.407   7.641  52.294  0.00  0.00    +0.046 A 
ATOM     17  C   LIG    1       16.764   7.307  52.387  0.00  0.00    +0.008 A 
BRANCH  15  18
ATOM     18  O   LIG    1       13.555   8.330  50.930  0.00  0.00    -0.507 OA
ATOM     19  H   LIG    1       13.157   8.384  51.814  0.00  0.00    +0.292 HD
ENDBRANCH  15  18
ENDBRANCH   1  12
TORSDOF 4
ENDMDL
MODEL 8
REMARK VINA RESULT:      -2.1      2.536      4.785
REMARK  Name = 
REMARK                            x       y       z     vdW  Elec       q    Type
REMARK                         _______ _______ _______ _____ _____    ______ ____
ROOT
ATOM      1  C   LIG    1       17.975   4.812  52.074  0.00  0.00    +0.015 C 
ATOM      2  C   LIG    1       17.866   5.424  50.648  0.00  0.00    +0.021 C 
ATOM      3  C   LIG    1       17.923   6.041  53.024  0.00  0.00    +0.021 C 
ENDROOT
BRANCH   1   7
ATOM      4  C   LIG    1       21.803   2.821  52.728  0.00  0.00    +0.117 A 
ATOM      5  C   LIG    1       20.936   2.990  53.795  0.00  0.00    +0.046 A 
ATOM      6  C   LIG    1       19.695   3.608  53.603  0.00  0.00    +0.008 A 
ATOM      7  C   LIG    1       19.307   4.066  52.332  0.00  0.00    -0.037 A 
ATOM      8  C   LIG    1       20.210   3.869  51.265  0.00  0.00    +0.008 A 
ATOM      9  C   LIG    1       21.450   3.251  51.457  0.00  0.00    +0.046 A 
BRANCH   4  10
ATOM     10  O   LIG    1       23.008   2.232  52.966  0.00  0.00    -0.507 OA
ATOM     11  H   LIG    1       23.111   1.484  52.355  0.00  0.00    +0.292 HD
ENDBRANCH   4  10
ENDBRANCH   1   7
BRANCH   1  12
ATOM     12  C   LIG    1       16.799   3.823  52.282  0.00  0.00    -0.037 A 
ATOM     13  C   LIG    1       15.613   4.262  52.907  0.00  0.00    +0.008 A 
ATOM     14  C   LIG    1       14.504   3.423  53.039  0.00  0.00    +0.046 A 
ATOM     15  C   LIG    1       14.553   2.137  52.527  0.00  0.00    +0.117 A 
ATOM     16  C   LIG    1       15.702   1.669  51.903  0.00  0.00    +0.046 A 
ATOM     17  C   LIG    1       16.819   2.506  51.788  0.00  0.00    +0.008 A 
BRANCH  15  18
ATOM     18  O   LIG    1       13.438   1.363  52.641  0.00  0.00    -0.507 OA
ATOM     19  H   LIG    1       13.534   0.595  52.054  0.00  0.00    +0.292 HD
ENDBRANCH  15  18
ENDBRANCH   1  12
TORSDOF 4
ENDMDL
MODEL 9
REMARK VINA RESULT:      -2.1      2.882      4.323
REMARK  Name = 
REMARK                            x       y       z     vdW  Elec       q    Type
REMARK                         _______ _______ _______ _____ _____    ______ ____
ROOT
ATOM      1  C   LIG    1       18.712   4.197  51.020  0.00  0.00    +0.015 C 
ATOM      2  C   LIG    1       18.664   5.505  50.179  0.00  0.00    +0.021 C 
ATOM      3  C   LIG    1       18.895   3.070  49.966  0.00  0.00    +0.021 C 
ENDROOT
BRANCH   1   7
ATOM      4  C   LIG    1       14.964   3.500  53.145  0.00  0.00    +0.117 A 
ATOM      5  C   LIG    1       15.656   2.421  52.620  0.00  0.00    +0.046 A 
ATOM      6  C   LIG    1       16.870   2.621  51.952  0.00  0.00    +0.008 A 
ATOM      7  C   LIG    1       17.407   3.911  51.803  0.00  0.00    -0.037 A 
ATOM      8  C   LIG    1       16.681   4.986  52.360  0.00  0.00    +0.008 A 
ATOM      9  C   LIG    1       15.469   4.787  53.028  0.00  0.00    +0.046 A 
BRANCH   4  10
ATOM     10  O   LIG    1       13.777   3.260  53.770  0.00  0.00    -0.507 OA
ATOM     11  H   LIG    1       13.885   2.485  54.345  0.00  0.00    +0.292 HD
ENDBRANCH   4  10
ENDBRANCH   1   7
BRANCH   1  12
ATOM     12  C   LIG    1       19.888   4.296  52.026  0.00  0.00    -0.037 A 
ATOM     13  C   LIG    1       20.669   3.156  52.309  0.00  0.00    +0.008 A 
ATOM     14  C   LIG    1       21.785   3.226  53.147  0.00  0.00    +0.046 A 
ATOM     15  C   LIG    1       22.152   4.442  53.698  0.00  0.00    +0.117 A 
ATOM     16  C   LIG    1       21.409   5.587  53.442  0.00  0.00    +0.046 A 
ATOM     17  C   LIG    1       20.281   5.511  52.616  0.00  0.00    +0.008 A 
BRANCH  15  18
ATOM     18  O   LIG    1       23.269   4.476  54.479  0.00  0.00    -0.507 OA
ATOM     19  H   LIG    1       22.994   4.546  55.407  0.00  0.00    +0.292 HD
ENDBRANCH  15  18
ENDBRANCH   1  12
TORSDOF 4
ENDMDL
