MODEL 1
REMARK VINA RESULT:      -8.0      0.000      0.000
REMARK  Name = 
REMARK                            x       y       z     vdW  Elec       q    Type
REMARK                         _______ _______ _______ _____ _____    ______ ____
ROOT
ATOM      1  C   LIG    1       27.336   0.204  20.375  0.00  0.00    +0.015 C 
ATOM      2  C   LIG    1       26.328  -0.582  21.261  0.00  0.00    +0.021 C 
ATOM      3  C   LIG    1       27.497  -0.675  19.104  0.00  0.00    +0.021 C 
ENDROOT
BRANCH   1   7
ATOM      4  C   LIG    1       31.315   0.533  22.139  0.00  0.00    +0.117 A 
ATOM      5  C   LIG    1       30.820   1.583  21.383  0.00  0.00    +0.046 A 
ATOM      6  C   LIG    1       29.539   1.506  20.824  0.00  0.00    +0.008 A 
ATOM      7  C   LIG    1       28.734   0.370  21.020  0.00  0.00    -0.037 A 
ATOM      8  C   LIG    1       29.266  -0.676  21.805  0.00  0.00    +0.008 A 
ATOM      9  C   LIG    1       30.545  -0.599  22.363  0.00  0.00    +0.046 A 
BRANCH   4  10
ATOM     10  O   LIG    1       32.574   0.645  22.646  0.00  0.00    -0.507 OA
ATOM     11  H   LIG    1       32.617   0.144  23.477  0.00  0.00    +0.292 HD
ENDBRANCH   4  10
ENDBRANCH   1   7
BRANCH   1  12
ATOM     12  C   LIG    1       26.750   1.609  20.083  0.00  0.00    -0.037 A 
ATOM     13  C   LIG    1       26.220   2.383  21.136  0.00  0.00    +0.008 A 
ATOM     14  C   LIG    1       25.757   3.684  20.924  0.00  0.00    +0.046 A 
ATOM     15  C   LIG    1       25.838   4.243  19.659  0.00  0.00    +0.117 A 
ATOM     16  C   LIG    1       26.355   3.513  18.597  0.00  0.00    +0.046 A 
ATOM     17  C   LIG    1       26.802   2.203  18.808  0.00  0.00    +0.008 A 
BRANCH  15  18
ATOM     18  O   LIG    1       25.413   5.528  19.501  0.00  0.00    -0.507 OA
ATOM     19  H   LIG    1       25.845   5.901  18.716  0.00  0.00    +0.292 HD
ENDBRANCH  15  18
ENDBRANCH   1  12
TORSDOF 4
ENDMDL
MODEL 2
REMARK VINA RESULT:      -8.0      0.092      5.477
REMARK  Name = 
REMARK                            x       y       z     vdW  Elec       q    Type
REMARK                         _______ _______ _______ _____ _____    ______ ____
ROOT
ATOM      1  C   LIG    1       27.359   0.228  20.376  0.00  0.00    +0.015 C 
ATOM      2  C   LIG    1       27.532  -0.626  19.087  0.00  0.00    +0.021 C 
ATOM      3  C   LIG    1       26.355  -0.583  21.241  0.00  0.00    +0.021 C 
ENDROOT
BRANCH   1   7
ATOM      4  C   LIG    1       25.714   4.225  19.769  0.00  0.00    +0.117 A 
ATOM      5  C   LIG    1       26.244   3.539  18.688  0.00  0.00    +0.046 A 
ATOM      6  C   LIG    1       26.759   2.248  18.858  0.00  0.00    +0.008 A 
ATOM      7  C   LIG    1       26.748   1.627  20.119  0.00  0.00    -0.037 A 
ATOM      8  C   LIG    1       26.191   2.351  21.195  0.00  0.00    +0.008 A 
ATOM      9  C   LIG    1       25.677   3.639  21.027  0.00  0.00    +0.046 A 
BRANCH   4  10
ATOM     10  O   LIG    1       25.243   5.486  19.561  0.00  0.00    -0.507 OA
ATOM     11  H   LIG    1       24.291   5.432  19.379  0.00  0.00    +0.292 HD
ENDBRANCH   4  10
ENDBRANCH   1   7
BRANCH   1  12
ATOM     12  C   LIG    1       28.747   0.403  21.045  0.00  0.00    -0.037 A 
ATOM     13  C   LIG    1       29.271  -0.624  21.856  0.00  0.00    +0.008 A 
ATOM     14  C   LIG    1       30.551  -0.536  22.409  0.00  0.00    +0.046 A 
ATOM     15  C   LIG    1       31.338   0.572  22.141  0.00  0.00    +0.117 A 
ATOM     16  C   LIG    1       30.858   1.604  21.346  0.00  0.00    +0.046 A 
ATOM     17  C   LIG    1       29.568   1.521  20.807  0.00  0.00    +0.008 A 
BRANCH  15  18
ATOM     18  O   LIG    1       32.595   0.603  22.667  0.00  0.00    -0.507 OA
ATOM     19  H   LIG    1       32.963  -0.295  22.639  0.00  0.00    +0.292 HD
ENDBRANCH  15  18
ENDBRANCH   1  12
TORSDOF 4
ENDMDL
MODEL 3
REMARK VINA RESULT:      -7.9      1.497      2.065
REMARK  Name = 
REMARK                            x       y       z     vdW  Elec       q    Type
REMARK                         _______ _______ _______ _____ _____    ______ ____
ROOT
ATOM      1  C   LIG    1       27.421  -0.265  20.718  0.00  0.00    +0.015 C 
ATOM      2  C   LIG    1       26.011  -0.842  21.038  0.00  0.00    +0.021 C 
ATOM      3  C   LIG    1       27.849  -1.000  19.417  0.00  0.00    +0.021 C 
ENDROOT
BRANCH   1   7
ATOM      4  C   LIG    1       30.316  -1.230  23.839  0.00  0.00    +0.117 A 
ATOM      5  C   LIG    1       30.753  -1.075  22.533  0.00  0.00    +0.046 A 
ATOM      6  C   LIG    1       29.844  -0.746  21.521  0.00  0.00    +0.008 A 
ATOM      7  C   LIG    1       28.479  -0.568  21.807  0.00  0.00    -0.037 A 
ATOM      8  C   LIG    1       28.070  -0.724  23.150  0.00  0.00    +0.008 A 
ATOM      9  C   LIG    1       28.978  -1.052  24.161  0.00  0.00    +0.046 A 
BRANCH   4  10
ATOM     10  O   LIG    1       31.233  -1.570  24.787  0.00  0.00    -0.507 OA
ATOM     11  H   LIG    1       31.796  -2.277  24.431  0.00  0.00    +0.292 HD
ENDBRANCH   4  10
ENDBRANCH   1   7
BRANCH   1  12
ATOM     12  C   LIG    1       27.302   1.271  20.547  0.00  0.00    -0.037 A 
ATOM     13  C   LIG    1       28.298   1.979  19.843  0.00  0.00    +0.008 A 
ATOM     14  C   LIG    1       28.185   3.350  19.600  0.00  0.00    +0.046 A 
ATOM     15  C   LIG    1       27.062   4.033  20.037  0.00  0.00    +0.117 A 
ATOM     16  C   LIG    1       26.059   3.370  20.733  0.00  0.00    +0.046 A 
ATOM     17  C   LIG    1       26.183   1.999  20.991  0.00  0.00    +0.008 A 
BRANCH  15  18
ATOM     18  O   LIG    1       26.970   5.361  19.746  0.00  0.00    -0.507 OA
ATOM     19  H   LIG    1       26.217   5.732  20.234  0.00  0.00    +0.292 HD
ENDBRANCH  15  18
ENDBRANCH   1  12
TORSDOF 4
ENDMDL
MODEL 4
REMARK VINA RESULT:      -7.9      1.486      5.540
REMARK  Name = 
REMARK                            x       y       z     vdW  Elec       q    Type
REMARK                         _______ _______ _______ _____ _____    ______ ____
ROOT
ATOM      1  C   LIG    1       27.399  -0.255  20.698  0.00  0.00    +0.015 C 
ATOM      2  C   LIG    1       27.799  -1.018  19.402  0.00  0.00    +0.021 C 
ATOM      3  C   LIG    1       25.992  -0.813  21.052  0.00  0.00    +0.021 C 
ENDROOT
BRANCH   1   7
ATOM      4  C   LIG    1       27.067   4.041  20.005  0.00  0.00    +0.117 A 
ATOM      5  C   LIG    1       26.062   3.387  20.699  0.00  0.00    +0.046 A 
ATOM      6  C   LIG    1       26.158   2.013  20.949  0.00  0.00    +0.008 A 
ATOM      7  C   LIG    1       27.270   1.275  20.504  0.00  0.00    -0.037 A 
ATOM      8  C   LIG    1       28.279   1.976  19.810  0.00  0.00    +0.008 A 
ATOM      9  C   LIG    1       28.184   3.348  19.560  0.00  0.00    +0.046 A 
BRANCH   4  10
ATOM     10  O   LIG    1       26.921   5.375  19.768  0.00  0.00    -0.507 OA
ATOM     11  H   LIG    1       27.443   5.863  20.426  0.00  0.00    +0.292 HD
ENDBRANCH   4  10
ENDBRANCH   1   7
BRANCH   1  12
ATOM     12  C   LIG    1       28.464  -0.534  21.789  0.00  0.00    -0.037 A 
ATOM     13  C   LIG    1       28.066  -0.717  23.129  0.00  0.00    +0.008 A 
ATOM     14  C   LIG    1       28.988  -1.050  24.125  0.00  0.00    +0.046 A 
ATOM     15  C   LIG    1       30.321  -1.228  23.792  0.00  0.00    +0.117 A 
ATOM     16  C   LIG    1       30.751  -1.058  22.483  0.00  0.00    +0.046 A 
ATOM     17  C   LIG    1       29.828  -0.708  21.490  0.00  0.00    +0.008 A 
BRANCH  15  18
ATOM     18  O   LIG    1       31.183  -1.590  24.784  0.00  0.00    -0.507 OA
ATOM     19  H   LIG    1       31.674  -2.376  24.495  0.00  0.00    +0.292 HD
ENDBRANCH  15  18
ENDBRANCH   1  12
TORSDOF 4
ENDMDL
MODEL 5
REMARK VINA RESULT:      -7.9      1.240      1.825
REMARK  Name = 
REMARK                            x       y       z     vdW  Elec       q    Type
REMARK                         _______ _______ _______ _____ _____    ______ ____
ROOT
ATOM      1  C   LIG    1       27.146  -0.202  19.999  0.00  0.00    +0.015 C 
ATOM      2  C   LIG    1       26.019  -0.506  21.027  0.00  0.00    +0.021 C 
ATOM      3  C   LIG    1       27.327  -1.537  19.224  0.00  0.00    +0.021 C 
ENDROOT
BRANCH   1   7
ATOM      4  C   LIG    1       31.032   0.687  21.776  0.00  0.00    +0.117 A 
ATOM      5  C   LIG    1       30.365   1.679  21.075  0.00  0.00    +0.046 A 
ATOM      6  C   LIG    1       29.109   1.420  20.514  0.00  0.00    +0.008 A 
ATOM      7  C   LIG    1       28.504   0.158  20.651  0.00  0.00    -0.037 A 
ATOM      8  C   LIG    1       29.207  -0.825  21.380  0.00  0.00    +0.008 A 
ATOM      9  C   LIG    1       30.461  -0.567  21.941  0.00  0.00    +0.046 A 
BRANCH   4  10
ATOM     10  O   LIG    1       32.261   0.979  22.287  0.00  0.00    -0.507 OA
ATOM     11  H   LIG    1       32.837   0.207  22.163  0.00  0.00    +0.292 HD
ENDBRANCH   4  10
ENDBRANCH   1   7
BRANCH   1  12
ATOM     12  C   LIG    1       26.694   0.976  19.099  0.00  0.00    -0.037 A 
ATOM     13  C   LIG    1       26.415   0.752  17.735  0.00  0.00    +0.008 A 
ATOM     14  C   LIG    1       25.928   1.772  16.913  0.00  0.00    +0.046 A 
ATOM     15  C   LIG    1       25.691   3.028  17.447  0.00  0.00    +0.117 A 
ATOM     16  C   LIG    1       25.953   3.287  18.785  0.00  0.00    +0.046 A 
ATOM     17  C   LIG    1       26.457   2.268  19.603  0.00  0.00    +0.008 A 
BRANCH  15  18
ATOM     18  O   LIG    1       25.180   3.985  16.622  0.00  0.00    -0.507 OA
ATOM     19  H   LIG    1       25.691   3.985  15.796  0.00  0.00    +0.292 HD
ENDBRANCH  15  18
ENDBRANCH   1  12
TORSDOF 4
ENDMDL
MODEL 6
REMARK VINA RESULT:      -7.8      1.246      5.570
REMARK  Name = 
REMARK                            x       y       z     vdW  Elec       q    Type
REMARK                         _______ _______ _______ _____ _____    ______ ____
ROOT
ATOM      1  C   LIG    1       27.134  -0.229  20.026  0.00  0.00    +0.015 C 
ATOM      2  C   LIG    1       27.322  -1.573  19.264  0.00  0.00    +0.021 C 
ATOM      3  C   LIG    1       26.003  -0.525  21.050  0.00  0.00    +0.021 C 
ENDROOT
BRANCH   1   7
ATOM      4  C   LIG    1       25.703   2.972  17.427  0.00  0.00    +0.117 A 
ATOM      5  C   LIG    1       25.950   3.244  18.764  0.00  0.00    +0.046 A 
ATOM      6  C   LIG    1       26.428   2.236  19.609  0.00  0.00    +0.008 A 
ATOM      7  C   LIG    1       26.666   0.938  19.122  0.00  0.00    -0.037 A 
ATOM      8  C   LIG    1       26.413   0.700  17.754  0.00  0.00    +0.008 A 
ATOM      9  C   LIG    1       25.936   1.706  16.909  0.00  0.00    +0.046 A 
BRANCH   4  10
ATOM     10  O   LIG    1       25.220   3.979  16.646  0.00  0.00    -0.507 OA
ATOM     11  H   LIG    1       24.620   4.523  17.183  0.00  0.00    +0.292 HD
ENDBRANCH   4  10
ENDBRANCH   1   7
BRANCH   1  12
ATOM     12  C   LIG    1       28.480   0.159  20.689  0.00  0.00    -0.037 A 
ATOM     13  C   LIG    1       29.219  -0.810  21.398  0.00  0.00    +0.008 A 
ATOM     14  C   LIG    1       30.474  -0.518  21.940  0.00  0.00    +0.046 A 
ATOM     15  C   LIG    1       31.021   0.742  21.762  0.00  0.00    +0.117 A 
ATOM     16  C   LIG    1       30.324   1.723  21.068  0.00  0.00    +0.046 A 
ATOM     17  C   LIG    1       29.059   1.433  20.541  0.00  0.00    +0.008 A 
BRANCH  15  18
ATOM     18  O   LIG    1       32.263   0.976  22.271  0.00  0.00    -0.507 OA
ATOM     19  H   LIG    1       32.749   0.136  22.296  0.00  0.00    +0.292 HD
ENDBRANCH  15  18
ENDBRANCH   1  12
TORSDOF 4
ENDMDL
MODEL 7
REMARK VINA RESULT:      -7.8      1.759      5.590
REMARK  Name = 
REMARK                            x       y       z     vdW  Elec       q    Type
REMARK                         _______ _______ _______ _____ _____    ______ ____
ROOT
ATOM      1  C   LIG    1       26.698   0.877  20.672  0.00  0.00    +0.015 C 
ATOM      2  C   LIG    1       26.098  -0.515  21.020  0.00  0.00    +0.021 C 
ATOM      3  C   LIG    1       25.925   1.867  21.588  0.00  0.00    +0.021 C 
ENDROOT
BRANCH   1   7
ATOM      4  C   LIG    1       25.944   1.968  16.513  0.00  0.00    +0.117 A 
ATOM      5  C   LIG    1       25.844   2.938  17.497  0.00  0.00    +0.046 A 
ATOM      6  C   LIG    1       26.100   2.613  18.834  0.00  0.00    +0.008 A 
ATOM      7  C   LIG    1       26.464   1.306  19.202  0.00  0.00    -0.037 A 
ATOM      8  C   LIG    1       26.567   0.346  18.173  0.00  0.00    +0.008 A 
ATOM      9  C   LIG    1       26.311   0.669  16.837  0.00  0.00    +0.046 A 
BRANCH   4  10
ATOM     10  O   LIG    1       25.666   2.325  15.228  0.00  0.00    -0.507 OA
ATOM     11  H   LIG    1       25.002   3.033  15.243  0.00  0.00    +0.292 HD
ENDBRANCH   4  10
ENDBRANCH   1   7
BRANCH   1  12
ATOM     12  C   LIG    1       28.223   0.844  20.947  0.00  0.00    -0.037 A 
ATOM     13  C   LIG    1       28.994   2.012  20.772  0.00  0.00    +0.008 A 
ATOM     14  C   LIG    1       30.355   2.042  21.087  0.00  0.00    +0.046 A 
ATOM     15  C   LIG    1       30.963   0.910  21.605  0.00  0.00    +0.117 A 
ATOM     16  C   LIG    1       30.237  -0.258  21.793  0.00  0.00    +0.046 A 
ATOM     17  C   LIG    1       28.877  -0.291  21.460  0.00  0.00    +0.008 A 
BRANCH  15  18
ATOM     18  O   LIG    1       32.282   0.991  21.937  0.00  0.00    -0.507 OA
ATOM     19  H   LIG    1       32.730   0.191  21.616  0.00  0.00    +0.292 HD
ENDBRANCH  15  18
ENDBRANCH   1  12
TORSDOF 4
ENDMDL
MODEL 8
REMARK VINA RESULT:      -7.4      2.071      3.366
REMARK  Name = 
REMARK                            x       y       z     vdW  Elec       q    Type
REMARK                         _______ _______ _______ _____ _____    ______ ____
ROOT
ATOM      1  C   LIG    1       26.648   2.782  20.399  0.00  0.00    +0.015 C 
ATOM      2  C   LIG    1       27.253   4.211  20.499  0.00  0.00    +0.021 C 
ATOM      3  C   LIG    1       25.416   2.820  21.346  0.00  0.00    +0.021 C 
ENDROOT
BRANCH   1   7
ATOM      4  C   LIG    1       29.403  -0.258  21.891  0.00  0.00    +0.117 A 
ATOM      5  C   LIG    1       28.039  -0.502  21.928  0.00  0.00    +0.046 A 
ATOM      6  C   LIG    1       27.140   0.452  21.437  0.00  0.00    +0.008 A 
ATOM      7  C   LIG    1       27.599   1.667  20.898  0.00  0.00    -0.037 A 
ATOM      8  C   LIG    1       28.995   1.877  20.867  0.00  0.00    +0.008 A 
ATOM      9  C   LIG    1       29.893   0.925  21.357  0.00  0.00    +0.046 A 
BRANCH   4  10
ATOM     10  O   LIG    1       30.239  -1.206  22.398  0.00  0.00    -0.507 OA
ATOM     11  H   LIG    1       30.822  -0.784  23.050  0.00  0.00    +0.292 HD
ENDBRANCH   4  10
ENDBRANCH   1   7
BRANCH   1  12
ATOM     12  C   LIG    1       26.279   2.500  18.920  0.00  0.00    -0.037 A 
ATOM     13  C   LIG    1       25.862   3.558  18.086  0.00  0.00    +0.008 A 
ATOM     14  C   LIG    1       25.599   3.357  16.729  0.00  0.00    +0.046 A 
ATOM     15  C   LIG    1       25.772   2.099  16.177  0.00  0.00    +0.117 A 
ATOM     16  C   LIG    1       26.183   1.032  16.965  0.00  0.00    +0.046 A 
ATOM     17  C   LIG    1       26.429   1.232  18.329  0.00  0.00    +0.008 A 
BRANCH  15  18
ATOM     18  O   LIG    1       25.543   1.952  14.841  0.00  0.00    -0.507 OA
ATOM     19  H   LIG    1       25.156   1.074  14.689  0.00  0.00    +0.292 HD
ENDBRANCH  15  18
ENDBRANCH   1  12
TORSDOF 4
ENDMDL
MODEL 9
REMARK VINA RESULT:      -6.9      2.446      3.616
REMARK  Name = 
REMARK                            x       y       z     vdW  Elec       q    Type
REMARK                         _______ _______ _______ _____ _____    ______ ____
ROOT
ATOM      1  C   LIG    1       28.718   1.579  20.709  0.00  0.00    +0.015 C 
ATOM      2  C   LIG    1       29.925   2.233  19.977  0.00  0.00    +0.021 C 
ATOM      3  C   LIG    1       28.042   2.758  21.462  0.00  0.00    +0.021 C 
ENDROOT
BRANCH   1   7
ATOM      4  C   LIG    1       29.973  -1.319  23.722  0.00  0.00    +0.117 A 
ATOM      5  C   LIG    1       28.621  -1.080  23.533  0.00  0.00    +0.046 A 
ATOM      6  C   LIG    1       28.197  -0.169  22.558  0.00  0.00    +0.008 A 
ATOM      7  C   LIG    1       29.128   0.516  21.757  0.00  0.00    -0.037 A 
ATOM      8  C   LIG    1       30.496   0.240  21.970  0.00  0.00    +0.008 A 
ATOM      9  C   LIG    1       30.920  -0.670  22.943  0.00  0.00    +0.046 A 
BRANCH   4  10
ATOM     10  O   LIG    1       30.339  -2.199  24.695  0.00  0.00    -0.507 OA
ATOM     11  H   LIG    1       31.165  -1.885  25.099  0.00  0.00    +0.292 HD
ENDBRANCH   4  10
ENDBRANCH   1   7
BRANCH   1  12
ATOM     12  C   LIG    1       27.798   0.914  19.654  0.00  0.00    -0.037 A 
ATOM     13  C   LIG    1       26.959   1.712  18.849  0.00  0.00    +0.008 A 
ATOM     14  C   LIG    1       26.176   1.156  17.834  0.00  0.00    +0.046 A 
ATOM     15  C   LIG    1       26.238  -0.207  17.591  0.00  0.00    +0.117 A 
ATOM     16  C   LIG    1       27.053  -1.026  18.360  0.00  0.00    +0.046 A 
ATOM     17  C   LIG    1       27.823  -0.468  19.389  0.00  0.00    +0.008 A 
BRANCH  15  18
ATOM     18  O   LIG    1       25.489  -0.705  16.567  0.00  0.00    -0.507 OA
ATOM     19  H   LIG    1       24.554  -0.512  16.745  0.00  0.00    +0.292 HD
ENDBRANCH  15  18
ENDBRANCH   1  12
TORSDOF 4
ENDMDL
