MODEL 1
REMARK VINA RESULT:      -8.6      0.000      0.000
REMARK  Name = 
REMARK                            x       y       z     vdW  Elec       q    Type
REMARK                         _______ _______ _______ _____ _____    ______ ____
ROOT
ATOM      1  C   LIG    1        4.095  18.481  28.790  0.00  0.00    +0.015 C 
ATOM      2  C   LIG    1        4.170  17.194  27.919  0.00  0.00    +0.021 C 
ATOM      3  C   LIG    1        3.350  19.509  27.892  0.00  0.00    +0.021 C 
ENDROOT
BRANCH   1   7
ATOM      4  C   LIG    1        7.960  20.282  29.723  0.00  0.00    +0.117 A 
ATOM      5  C   LIG    1        7.244  19.653  30.730  0.00  0.00    +0.046 A 
ATOM      6  C   LIG    1        6.012  19.053  30.447  0.00  0.00    +0.008 A 
ATOM      7  C   LIG    1        5.480  19.074  29.146  0.00  0.00    -0.037 A 
ATOM      8  C   LIG    1        6.241  19.714  28.143  0.00  0.00    +0.008 A 
ATOM      9  C   LIG    1        7.472  20.314  28.425  0.00  0.00    +0.046 A 
BRANCH   4  10
ATOM     10  O   LIG    1        9.145  20.870  30.049  0.00  0.00    -0.507 OA
ATOM     11  H   LIG    1        9.237  20.861  31.016  0.00  0.00    +0.292 HD
ENDBRANCH   4  10
ENDBRANCH   1   7
BRANCH   1  12
ATOM     12  C   LIG    1        3.340  18.149  30.103  0.00  0.00    -0.037 A 
ATOM     13  C   LIG    1        2.457  19.095  30.664  0.00  0.00    +0.008 A 
ATOM     14  C   LIG    1        1.700  18.801  31.801  0.00  0.00    +0.046 A 
ATOM     15  C   LIG    1        1.795  17.547  32.382  0.00  0.00    +0.117 A 
ATOM     16  C   LIG    1        2.652  16.589  31.858  0.00  0.00    +0.046 A 
ATOM     17  C   LIG    1        3.424  16.892  30.729  0.00  0.00    +0.008 A 
BRANCH  15  18
ATOM     18  O   LIG    1        1.011  17.285  33.466  0.00  0.00    -0.507 OA
ATOM     19  H   LIG    1        1.384  17.746  34.235  0.00  0.00    +0.292 HD
ENDBRANCH  15  18
ENDBRANCH   1  12
TORSDOF 4
ENDMDL
MODEL 2
REMARK VINA RESULT:      -8.6      0.213      5.602
REMARK  Name = 
REMARK                            x       y       z     vdW  Elec       q    Type
REMARK                         _______ _______ _______ _____ _____    ______ ____
ROOT
ATOM      1  C   LIG    1        4.158  18.408  28.620  0.00  0.00    +0.015 C 
ATOM      2  C   LIG    1        3.388  19.255  27.566  0.00  0.00    +0.021 C 
ATOM      3  C   LIG    1        4.382  17.038  27.921  0.00  0.00    +0.021 C 
ENDROOT
BRANCH   1   7
ATOM      4  C   LIG    1        1.775  17.736  32.214  0.00  0.00    +0.117 A 
ATOM      5  C   LIG    1        2.653  16.751  31.789  0.00  0.00    +0.046 A 
ATOM      6  C   LIG    1        3.440  16.955  30.650  0.00  0.00    +0.008 A 
ATOM      7  C   LIG    1        3.358  18.154  29.921  0.00  0.00    -0.037 A 
ATOM      8  C   LIG    1        2.461  19.139  30.388  0.00  0.00    +0.008 A 
ATOM      9  C   LIG    1        1.674  18.937  31.526  0.00  0.00    +0.046 A 
BRANCH   4  10
ATOM     10  O   LIG    1        1.014  17.486  33.316  0.00  0.00    -0.507 OA
ATOM     11  H   LIG    1        0.561  16.636  33.191  0.00  0.00    +0.292 HD
ENDBRANCH   4  10
ENDBRANCH   1   7
BRANCH   1  12
ATOM     12  C   LIG    1        5.477  19.140  28.978  0.00  0.00    -0.037 A 
ATOM     13  C   LIG    1        5.990  19.062  30.290  0.00  0.00    +0.008 A 
ATOM     14  C   LIG    1        7.216  19.641  30.629  0.00  0.00    +0.046 A 
ATOM     15  C   LIG    1        7.961  20.287  29.656  0.00  0.00    +0.117 A 
ATOM     16  C   LIG    1        7.490  20.383  28.354  0.00  0.00    +0.046 A 
ATOM     17  C   LIG    1        6.253  19.818  28.020  0.00  0.00    +0.008 A 
BRANCH  15  18
ATOM     18  O   LIG    1        9.169  20.805  30.018  0.00  0.00    -0.507 OA
ATOM     19  H   LIG    1        9.686  20.971  29.213  0.00  0.00    +0.292 HD
ENDBRANCH  15  18
ENDBRANCH   1  12
TORSDOF 4
ENDMDL
MODEL 3
REMARK VINA RESULT:      -8.6      0.197      5.565
REMARK  Name = 
REMARK                            x       y       z     vdW  Elec       q    Type
REMARK                         _______ _______ _______ _____ _____    ______ ____
ROOT
ATOM      1  C   LIG    1        4.106  18.496  28.587  0.00  0.00    +0.015 C 
ATOM      2  C   LIG    1        3.447  19.497  27.595  0.00  0.00    +0.021 C 
ATOM      3  C   LIG    1        4.189  17.165  27.790  0.00  0.00    +0.021 C 
ENDROOT
BRANCH   1   7
ATOM      4  C   LIG    1        1.861  17.721  32.250  0.00  0.00    +0.117 A 
ATOM      5  C   LIG    1        1.704  18.937  31.603  0.00  0.00    +0.046 A 
ATOM      6  C   LIG    1        2.400  19.197  30.417  0.00  0.00    +0.008 A 
ATOM      7  C   LIG    1        3.265  18.238  29.861  0.00  0.00    -0.037 A 
ATOM      8  C   LIG    1        3.393  17.007  30.541  0.00  0.00    +0.008 A 
ATOM      9  C   LIG    1        2.698  16.746  31.725  0.00  0.00    +0.046 A 
BRANCH   4  10
ATOM     10  O   LIG    1        1.180  17.519  33.412  0.00  0.00    -0.507 OA
ATOM     11  H   LIG    1        1.822  17.451  34.137  0.00  0.00    +0.292 HD
ENDBRANCH   4  10
ENDBRANCH   1   7
BRANCH   1  12
ATOM     12  C   LIG    1        5.491  19.052  29.006  0.00  0.00    -0.037 A 
ATOM     13  C   LIG    1        6.285  19.743  28.067  0.00  0.00    +0.008 A 
ATOM     14  C   LIG    1        7.502  20.326  28.429  0.00  0.00    +0.046 A 
ATOM     15  C   LIG    1        7.935  20.249  29.742  0.00  0.00    +0.117 A 
ATOM     16  C   LIG    1        7.181  19.578  30.696  0.00  0.00    +0.046 A 
ATOM     17  C   LIG    1        5.970  18.979  30.327  0.00  0.00    +0.008 A 
BRANCH  15  18
ATOM     18  O   LIG    1        9.108  20.864  30.064  0.00  0.00    -0.507 OA
ATOM     19  H   LIG    1        9.411  20.521  30.920  0.00  0.00    +0.292 HD
ENDBRANCH  15  18
ENDBRANCH   1  12
TORSDOF 4
ENDMDL
MODEL 4
REMARK VINA RESULT:      -8.1      1.598      2.370
REMARK  Name = 
REMARK                            x       y       z     vdW  Elec       q    Type
REMARK                         _______ _______ _______ _____ _____    ______ ____
ROOT
ATOM      1  C   LIG    1        3.322  17.843  30.738  0.00  0.00    +0.015 C 
ATOM      2  C   LIG    1        3.540  16.316  30.536  0.00  0.00    +0.021 C 
ATOM      3  C   LIG    1        2.434  18.265  29.534  0.00  0.00    +0.021 C 
ENDROOT
BRANCH   1   7
ATOM      4  C   LIG    1        7.079  20.055  30.528  0.00  0.00    +0.117 A 
ATOM      5  C   LIG    1        5.943  20.591  29.943  0.00  0.00    +0.046 A 
ATOM      6  C   LIG    1        4.724  19.907  30.016  0.00  0.00    +0.008 A 
ATOM      7  C   LIG    1        4.629  18.672  30.680  0.00  0.00    -0.037 A 
ATOM      8  C   LIG    1        5.803  18.160  31.274  0.00  0.00    +0.008 A 
ATOM      9  C   LIG    1        7.021  18.843  31.202  0.00  0.00    +0.046 A 
BRANCH   4  10
ATOM     10  O   LIG    1        8.248  20.746  30.415  0.00  0.00    -0.507 OA
ATOM     11  H   LIG    1        8.421  20.905  29.472  0.00  0.00    +0.292 HD
ENDBRANCH   4  10
ENDBRANCH   1   7
BRANCH   1  12
ATOM     12  C   LIG    1        2.644  18.071  32.113  0.00  0.00    -0.037 A 
ATOM     13  C   LIG    1        1.241  18.185  32.195  0.00  0.00    +0.008 A 
ATOM     14  C   LIG    1        0.589  18.310  33.424  0.00  0.00    +0.046 A 
ATOM     15  C   LIG    1        1.329  18.301  34.596  0.00  0.00    +0.117 A 
ATOM     16  C   LIG    1        2.713  18.189  34.556  0.00  0.00    +0.046 A 
ATOM     17  C   LIG    1        3.365  18.082  33.322  0.00  0.00    +0.008 A 
BRANCH  15  18
ATOM     18  O   LIG    1        0.654  18.386  35.777  0.00  0.00    -0.507 OA
ATOM     19  H   LIG    1        0.327  17.502  36.009  0.00  0.00    +0.292 HD
ENDBRANCH  15  18
ENDBRANCH   1  12
TORSDOF 4
ENDMDL
MODEL 5
REMARK VINA RESULT:      -8.0      1.408      5.735
REMARK  Name = 
REMARK                            x       y       z     vdW  Elec       q    Type
REMARK                         _______ _______ _______ _____ _____    ______ ____
ROOT
ATOM      1  C   LIG    1        2.920  19.072  30.194  0.00  0.00    +0.015 C 
ATOM      2  C   LIG    1        2.081  20.381  30.241  0.00  0.00    +0.021 C 
ATOM      3  C   LIG    1        2.444  18.358  28.898  0.00  0.00    +0.021 C 
ENDROOT
BRANCH   1   7
ATOM      4  C   LIG    1        2.302  16.310  33.517  0.00  0.00    +0.117 A 
ATOM      5  C   LIG    1        2.250  17.675  33.752  0.00  0.00    +0.046 A 
ATOM      6  C   LIG    1        2.426  18.577  32.696  0.00  0.00    +0.008 A 
ATOM      7  C   LIG    1        2.656  18.120  31.387  0.00  0.00    -0.037 A 
ATOM      8  C   LIG    1        2.693  16.723  31.183  0.00  0.00    +0.008 A 
ATOM      9  C   LIG    1        2.516  15.822  32.236  0.00  0.00    +0.046 A 
BRANCH   4  10
ATOM     10  O   LIG    1        2.145  15.470  34.578  0.00  0.00    -0.507 OA
ATOM     11  H   LIG    1        2.854  15.646  35.217  0.00  0.00    +0.292 HD
ENDBRANCH   4  10
ENDBRANCH   1   7
BRANCH   1  12
ATOM     12  C   LIG    1        4.424  19.446  30.175  0.00  0.00    -0.037 A 
ATOM     13  C   LIG    1        5.378  18.549  30.699  0.00  0.00    +0.008 A 
ATOM     14  C   LIG    1        6.748  18.816  30.626  0.00  0.00    +0.046 A 
ATOM     15  C   LIG    1        7.188  19.974  30.007  0.00  0.00    +0.117 A 
ATOM     16  C   LIG    1        6.279  20.881  29.478  0.00  0.00    +0.046 A 
ATOM     17  C   LIG    1        4.906  20.620  29.568  0.00  0.00    +0.008 A 
BRANCH  15  18
ATOM     18  O   LIG    1        8.532  20.180  29.922  0.00  0.00    -0.507 OA
ATOM     19  H   LIG    1        8.720  20.654  29.095  0.00  0.00    +0.292 HD
ENDBRANCH  15  18
ENDBRANCH   1  12
TORSDOF 4
ENDMDL
MODEL 6
REMARK VINA RESULT:      -7.9      2.326      3.451
REMARK  Name = 
REMARK                            x       y       z     vdW  Elec       q    Type
REMARK                         _______ _______ _______ _____ _____    ______ ____
ROOT
ATOM      1  C   LIG    1        4.763  17.902  30.396  0.00  0.00    +0.015 C 
ATOM      2  C   LIG    1        5.875  18.745  31.084  0.00  0.00    +0.021 C 
ATOM      3  C   LIG    1        5.298  16.444  30.451  0.00  0.00    +0.021 C 
ENDROOT
BRANCH   1   7
ATOM      4  C   LIG    1        3.970  18.884  26.218  0.00  0.00    +0.117 A 
ATOM      5  C   LIG    1        4.521  19.848  27.048  0.00  0.00    +0.046 A 
ATOM      6  C   LIG    1        4.801  19.547  28.386  0.00  0.00    +0.008 A 
ATOM      7  C   LIG    1        4.532  18.270  28.910  0.00  0.00    -0.037 A 
ATOM      8  C   LIG    1        3.980  17.311  28.034  0.00  0.00    +0.008 A 
ATOM      9  C   LIG    1        3.701  17.610  26.698  0.00  0.00    +0.046 A 
BRANCH   4  10
ATOM     10  O   LIG    1        3.696  19.228  24.929  0.00  0.00    -0.507 OA
ATOM     11  H   LIG    1        2.741  19.134  24.782  0.00  0.00    +0.292 HD
ENDBRANCH   4  10
ENDBRANCH   1   7
BRANCH   1  12
ATOM     12  C   LIG    1        3.436  18.101  31.173  0.00  0.00    -0.037 A 
ATOM     13  C   LIG    1        2.665  19.263  30.962  0.00  0.00    +0.008 A 
ATOM     14  C   LIG    1        1.426  19.439  31.583  0.00  0.00    +0.046 A 
ATOM     15  C   LIG    1        0.926  18.445  32.409  0.00  0.00    +0.117 A 
ATOM     16  C   LIG    1        1.655  17.287  32.640  0.00  0.00    +0.046 A 
ATOM     17  C   LIG    1        2.904  17.120  32.031  0.00  0.00    +0.008 A 
BRANCH  15  18
ATOM     18  O   LIG    1       -0.304  18.638  32.965  0.00  0.00    -0.507 OA
ATOM     19  H   LIG    1       -0.961  18.681  32.252  0.00  0.00    +0.292 HD
ENDBRANCH  15  18
ENDBRANCH   1  12
TORSDOF 4
ENDMDL
MODEL 7
REMARK VINA RESULT:      -7.9      2.322      5.695
REMARK  Name = 
REMARK                            x       y       z     vdW  Elec       q    Type
REMARK                         _______ _______ _______ _____ _____    ______ ____
ROOT
ATOM      1  C   LIG    1        4.774  17.884  30.405  0.00  0.00    +0.015 C 
ATOM      2  C   LIG    1        5.320  16.429  30.482  0.00  0.00    +0.021 C 
ATOM      3  C   LIG    1        5.858  18.738  31.120  0.00  0.00    +0.021 C 
ENDROOT
BRANCH   1   7
ATOM      4  C   LIG    1        0.933  18.493  32.386  0.00  0.00    +0.117 A 
ATOM      5  C   LIG    1        1.653  17.337  32.643  0.00  0.00    +0.046 A 
ATOM      6  C   LIG    1        2.895  17.132  32.033  0.00  0.00    +0.008 A 
ATOM      7  C   LIG    1        3.435  18.088  31.155  0.00  0.00    -0.037 A 
ATOM      8  C   LIG    1        2.680  19.258  30.924  0.00  0.00    +0.008 A 
ATOM      9  C   LIG    1        1.439  19.464  31.533  0.00  0.00    +0.046 A 
BRANCH   4  10
ATOM     10  O   LIG    1       -0.281  18.641  32.987  0.00  0.00    -0.507 OA
ATOM     11  H   LIG    1       -0.562  17.777  33.329  0.00  0.00    +0.292 HD
ENDBRANCH   4  10
ENDBRANCH   1   7
BRANCH   1  12
ATOM     12  C   LIG    1        4.576  18.262  28.914  0.00  0.00    -0.037 A 
ATOM     13  C   LIG    1        4.028  17.321  28.017  0.00  0.00    +0.008 A 
ATOM     14  C   LIG    1        3.760  17.652  26.687  0.00  0.00    +0.046 A 
ATOM     15  C   LIG    1        4.014  18.937  26.236  0.00  0.00    +0.117 A 
ATOM     16  C   LIG    1        4.552  19.892  27.089  0.00  0.00    +0.046 A 
ATOM     17  C   LIG    1        4.836  19.553  28.418  0.00  0.00    +0.008 A 
BRANCH  15  18
ATOM     18  O   LIG    1        3.703  19.232  24.942  0.00  0.00    -0.507 OA
ATOM     19  H   LIG    1        3.124  18.533  24.598  0.00  0.00    +0.292 HD
ENDBRANCH  15  18
ENDBRANCH   1  12
TORSDOF 4
ENDMDL
MODEL 8
REMARK VINA RESULT:      -7.8      1.162      1.802
REMARK  Name = 
REMARK                            x       y       z     vdW  Elec       q    Type
REMARK                         _______ _______ _______ _____ _____    ______ ____
ROOT
ATOM      1  C   LIG    1        4.087  18.248  27.856  0.00  0.00    +0.015 C 
ATOM      2  C   LIG    1        4.397  16.775  27.462  0.00  0.00    +0.021 C 
ATOM      3  C   LIG    1        3.094  18.735  26.764  0.00  0.00    +0.021 C 
ENDROOT
BRANCH   1   7
ATOM      4  C   LIG    1        7.662  20.753  27.827  0.00  0.00    +0.117 A 
ATOM      5  C   LIG    1        6.938  20.590  26.656  0.00  0.00    +0.046 A 
ATOM      6  C   LIG    1        5.778  19.807  26.649  0.00  0.00    +0.008 A 
ATOM      7  C   LIG    1        5.327  19.175  27.821  0.00  0.00    -0.037 A 
ATOM      8  C   LIG    1        6.082  19.370  28.997  0.00  0.00    +0.008 A 
ATOM      9  C   LIG    1        7.241  20.153  29.005  0.00  0.00    +0.046 A 
BRANCH   4  10
ATOM     10  O   LIG    1        8.795  21.508  27.782  0.00  0.00    -0.507 OA
ATOM     11  H   LIG    1        9.525  20.988  28.157  0.00  0.00    +0.292 HD
ENDBRANCH   4  10
ENDBRANCH   1   7
BRANCH   1  12
ATOM     12  C   LIG    1        3.489  18.265  29.286  0.00  0.00    -0.037 A 
ATOM     13  C   LIG    1        2.596  19.290  29.661  0.00  0.00    +0.008 A 
ATOM     14  C   LIG    1        1.975  19.294  30.913  0.00  0.00    +0.046 A 
ATOM     15  C   LIG    1        2.219  18.260  31.802  0.00  0.00    +0.117 A 
ATOM     16  C   LIG    1        3.092  17.233  31.468  0.00  0.00    +0.046 A 
ATOM     17  C   LIG    1        3.726  17.240  30.220  0.00  0.00    +0.008 A 
BRANCH  15  18
ATOM     18  O   LIG    1        1.565  18.280  32.998  0.00  0.00    -0.507 OA
ATOM     19  H   LIG    1        0.609  18.301  32.825  0.00  0.00    +0.292 HD
ENDBRANCH  15  18
ENDBRANCH   1  12
TORSDOF 4
ENDMDL
MODEL 9
REMARK VINA RESULT:      -7.7      2.534      3.645
REMARK  Name = 
REMARK                            x       y       z     vdW  Elec       q    Type
REMARK                         _______ _______ _______ _____ _____    ______ ____
ROOT
ATOM      1  C   LIG    1        4.875  17.512  30.681  0.00  0.00    +0.015 C 
ATOM      2  C   LIG    1        6.072  18.279  31.314  0.00  0.00    +0.021 C 
ATOM      3  C   LIG    1        5.468  16.127  30.298  0.00  0.00    +0.021 C 
ENDROOT
BRANCH   1   7
ATOM      4  C   LIG    1        3.435  19.474  27.058  0.00  0.00    +0.117 A 
ATOM      5  C   LIG    1        3.692  18.113  27.035  0.00  0.00    +0.046 A 
ATOM      6  C   LIG    1        4.136  17.461  28.191  0.00  0.00    +0.008 A 
ATOM      7  C   LIG    1        4.327  18.169  29.391  0.00  0.00    -0.037 A 
ATOM      8  C   LIG    1        4.045  19.553  29.381  0.00  0.00    +0.008 A 
ATOM      9  C   LIG    1        3.601  20.204  28.227  0.00  0.00    +0.046 A 
BRANCH   4  10
ATOM     10  O   LIG    1        3.023  20.070  25.904  0.00  0.00    -0.507 OA
ATOM     11  H   LIG    1        2.081  19.874  25.776  0.00  0.00    +0.292 HD
ENDBRANCH   4  10
ENDBRANCH   1   7
BRANCH   1  12
ATOM     12  C   LIG    1        3.732  17.426  31.724  0.00  0.00    -0.037 A 
ATOM     13  C   LIG    1        2.833  16.340  31.694  0.00  0.00    +0.008 A 
ATOM     14  C   LIG    1        1.841  16.186  32.666  0.00  0.00    +0.046 A 
ATOM     15  C   LIG    1        1.746  17.105  33.698  0.00  0.00    +0.117 A 
ATOM     16  C   LIG    1        2.613  18.188  33.763  0.00  0.00    +0.046 A 
ATOM     17  C   LIG    1        3.595  18.349  32.778  0.00  0.00    +0.008 A 
BRANCH  15  18
ATOM     18  O   LIG    1        0.790  16.900  34.648  0.00  0.00    -0.507 OA
ATOM     19  H   LIG    1       -0.058  17.229  34.308  0.00  0.00    +0.292 HD
ENDBRANCH  15  18
ENDBRANCH   1  12
TORSDOF 4
ENDMDL
