MODEL 1
REMARK VINA RESULT:      -8.2      0.000      0.000
REMARK  Name = 
REMARK                            x       y       z     vdW  Elec       q    Type
REMARK                         _______ _______ _______ _____ _____    ______ ____
ROOT
ATOM      1  C   LIG    1       23.746 -18.036  17.494  0.00  0.00    +0.015 C 
ATOM      2  C   LIG    1       23.404 -19.342  18.268  0.00  0.00    +0.021 C 
ATOM      3  C   LIG    1       24.050 -18.517  16.047  0.00  0.00    +0.021 C 
ENDROOT
BRANCH   1   7
ATOM      4  C   LIG    1       27.310 -16.094  19.099  0.00  0.00    +0.117 A 
ATOM      5  C   LIG    1       27.173 -16.230  17.726  0.00  0.00    +0.046 A 
ATOM      6  C   LIG    1       26.028 -16.833  17.191  0.00  0.00    +0.008 A 
ATOM      7  C   LIG    1       25.003 -17.307  18.028  0.00  0.00    -0.037 A 
ATOM      8  C   LIG    1       25.172 -17.142  19.420  0.00  0.00    +0.008 A 
ATOM      9  C   LIG    1       26.315 -16.540  19.956  0.00  0.00    +0.046 A 
BRANCH   4  10
ATOM     10  O   LIG    1       28.450 -15.520  19.575  0.00  0.00    -0.507 OA
ATOM     11  H   LIG    1       29.074 -16.225  19.812  0.00  0.00    +0.292 HD
ENDBRANCH   4  10
ENDBRANCH   1   7
BRANCH   1  12
ATOM     12  C   LIG    1       22.534 -17.074  17.581  0.00  0.00    -0.037 A 
ATOM     13  C   LIG    1       22.527 -15.881  16.829  0.00  0.00    +0.008 A 
ATOM     14  C   LIG    1       21.419 -15.030  16.820  0.00  0.00    +0.046 A 
ATOM     15  C   LIG    1       20.289 -15.370  17.545  0.00  0.00    +0.117 A 
ATOM     16  C   LIG    1       20.256 -16.536  18.298  0.00  0.00    +0.046 A 
ATOM     17  C   LIG    1       21.375 -17.379  18.319  0.00  0.00    +0.008 A 
BRANCH  15  18
ATOM     18  O   LIG    1       19.215 -14.533  17.480  0.00  0.00    -0.507 OA
ATOM     19  H   LIG    1       18.679 -14.779  16.708  0.00  0.00    +0.292 HD
ENDBRANCH  15  18
ENDBRANCH   1  12
TORSDOF 4
ENDMDL
MODEL 2
REMARK VINA RESULT:      -8.2      0.137      5.561
REMARK  Name = 
REMARK                            x       y       z     vdW  Elec       q    Type
REMARK                         _______ _______ _______ _____ _____    ______ ____
ROOT
ATOM      1  C   LIG    1       23.750 -18.114  17.483  0.00  0.00    +0.015 C 
ATOM      2  C   LIG    1       24.073 -18.611  16.044  0.00  0.00    +0.021 C 
ATOM      3  C   LIG    1       23.363 -19.405  18.257  0.00  0.00    +0.021 C 
ENDROOT
BRANCH   1   7
ATOM      4  C   LIG    1       20.361 -15.363  17.519  0.00  0.00    +0.117 A 
ATOM      5  C   LIG    1       20.306 -16.517  18.284  0.00  0.00    +0.046 A 
ATOM      6  C   LIG    1       21.389 -17.403  18.301  0.00  0.00    +0.008 A 
ATOM      7  C   LIG    1       22.548 -17.140  17.550  0.00  0.00    -0.037 A 
ATOM      8  C   LIG    1       22.575 -15.950  16.790  0.00  0.00    +0.008 A 
ATOM      9  C   LIG    1       21.493 -15.065  16.773  0.00  0.00    +0.046 A 
BRANCH   4  10
ATOM     10  O   LIG    1       19.275 -14.541  17.517  0.00  0.00    -0.507 OA
ATOM     11  H   LIG    1       19.586 -13.621  17.533  0.00  0.00    +0.292 HD
ENDBRANCH   4  10
ENDBRANCH   1   7
BRANCH   1  12
ATOM     12  C   LIG    1       25.003 -17.404  18.056  0.00  0.00    -0.037 A 
ATOM     13  C   LIG    1       26.016 -16.954  17.185  0.00  0.00    +0.008 A 
ATOM     14  C   LIG    1       27.120 -16.239  17.657  0.00  0.00    +0.046 A 
ATOM     15  C   LIG    1       27.218 -15.942  19.006  0.00  0.00    +0.117 A 
ATOM     16  C   LIG    1       26.240 -16.367  19.896  0.00  0.00    +0.046 A 
ATOM     17  C   LIG    1       25.143 -17.098  19.423  0.00  0.00    +0.008 A 
BRANCH  15  18
ATOM     18  O   LIG    1       28.290 -15.210  19.422  0.00  0.00    -0.507 OA
ATOM     19  H   LIG    1       28.455 -15.409  20.358  0.00  0.00    +0.292 HD
ENDBRANCH  15  18
ENDBRANCH   1  12
TORSDOF 4
ENDMDL
MODEL 3
REMARK VINA RESULT:      -8.1      0.445      1.696
REMARK  Name = 
REMARK                            x       y       z     vdW  Elec       q    Type
REMARK                         _______ _______ _______ _____ _____    ______ ____
ROOT
ATOM      1  C   LIG    1       23.745 -17.837  17.521  0.00  0.00    +0.015 C 
ATOM      2  C   LIG    1       23.389 -19.120  18.327  0.00  0.00    +0.021 C 
ATOM      3  C   LIG    1       24.211 -18.371  16.137  0.00  0.00    +0.021 C 
ENDROOT
BRANCH   1   7
ATOM      4  C   LIG    1       27.023 -15.444  19.125  0.00  0.00    +0.117 A 
ATOM      5  C   LIG    1       25.931 -15.724  19.931  0.00  0.00    +0.046 A 
ATOM      6  C   LIG    1       24.879 -16.506  19.442  0.00  0.00    +0.008 A 
ATOM      7  C   LIG    1       24.909 -17.020  18.134  0.00  0.00    -0.037 A 
ATOM      8  C   LIG    1       26.041 -16.723  17.344  0.00  0.00    +0.008 A 
ATOM      9  C   LIG    1       27.093 -15.943  17.832  0.00  0.00    +0.046 A 
BRANCH   4  10
ATOM     10  O   LIG    1       28.015 -14.662  19.636  0.00  0.00    -0.507 OA
ATOM     11  H   LIG    1       28.060 -13.843  19.116  0.00  0.00    +0.292 HD
ENDBRANCH   4  10
ENDBRANCH   1   7
BRANCH   1  12
ATOM     12  C   LIG    1       22.487 -16.935  17.441  0.00  0.00    -0.037 A 
ATOM     13  C   LIG    1       21.313 -17.305  18.130  0.00  0.00    +0.008 A 
ATOM     14  C   LIG    1       20.187 -16.478  18.147  0.00  0.00    +0.046 A 
ATOM     15  C   LIG    1       20.224 -15.256  17.495  0.00  0.00    +0.117 A 
ATOM     16  C   LIG    1       21.362 -14.856  16.808  0.00  0.00    +0.046 A 
ATOM     17  C   LIG    1       22.484 -15.695  16.777  0.00  0.00    +0.008 A 
BRANCH  15  18
ATOM     18  O   LIG    1       19.119 -14.461  17.568  0.00  0.00    -0.507 OA
ATOM     19  H   LIG    1       18.443 -14.920  18.092  0.00  0.00    +0.292 HD
ENDBRANCH  15  18
ENDBRANCH   1  12
TORSDOF 4
ENDMDL
MODEL 4
REMARK VINA RESULT:      -8.0      2.406      3.842
REMARK  Name = 
REMARK                            x       y       z     vdW  Elec       q    Type
REMARK                         _______ _______ _______ _____ _____    ______ ____
ROOT
ATOM      1  C   LIG    1       21.734 -15.234  17.541  0.00  0.00    +0.015 C 
ATOM      2  C   LIG    1       21.553 -14.368  16.261  0.00  0.00    +0.021 C 
ATOM      3  C   LIG    1       22.354 -14.258  18.580  0.00  0.00    +0.021 C 
ENDROOT
BRANCH   1   7
ATOM      4  C   LIG    1       24.445 -18.633  17.158  0.00  0.00    +0.117 A 
ATOM      5  C   LIG    1       23.620 -18.301  16.096  0.00  0.00    +0.046 A 
ATOM      6  C   LIG    1       22.757 -17.203  16.191  0.00  0.00    +0.008 A 
ATOM      7  C   LIG    1       22.712 -16.420  17.358  0.00  0.00    -0.037 A 
ATOM      8  C   LIG    1       23.574 -16.780  18.416  0.00  0.00    +0.008 A 
ATOM      9  C   LIG    1       24.436 -17.877  18.322  0.00  0.00    +0.046 A 
BRANCH   4  10
ATOM     10  O   LIG    1       25.254 -19.722  17.028  0.00  0.00    -0.507 OA
ATOM     11  H   LIG    1       24.699 -20.495  16.835  0.00  0.00    +0.292 HD
ENDBRANCH   4  10
ENDBRANCH   1   7
BRANCH   1  12
ATOM     12  C   LIG    1       20.350 -15.788  17.966  0.00  0.00    -0.037 A 
ATOM     13  C   LIG    1       20.244 -17.098  18.477  0.00  0.00    +0.008 A 
ATOM     14  C   LIG    1       19.028 -17.603  18.945  0.00  0.00    +0.046 A 
ATOM     15  C   LIG    1       17.901 -16.797  18.931  0.00  0.00    +0.117 A 
ATOM     16  C   LIG    1       17.966 -15.501  18.438  0.00  0.00    +0.046 A 
ATOM     17  C   LIG    1       19.182 -15.003  17.953  0.00  0.00    +0.008 A 
BRANCH  15  18
ATOM     18  O   LIG    1       16.743 -17.312  19.432  0.00  0.00    -0.507 OA
ATOM     19  H   LIG    1       16.763 -17.232  20.400  0.00  0.00    +0.292 HD
ENDBRANCH  15  18
ENDBRANCH   1  12
TORSDOF 4
ENDMDL
MODEL 5
REMARK VINA RESULT:      -8.0      2.371      6.299
REMARK  Name = 
REMARK                            x       y       z     vdW  Elec       q    Type
REMARK                         _______ _______ _______ _____ _____    ______ ____
ROOT
ATOM      1  C   LIG    1       21.808 -15.230  17.580  0.00  0.00    +0.015 C 
ATOM      2  C   LIG    1       22.459 -14.202  18.550  0.00  0.00    +0.021 C 
ATOM      3  C   LIG    1       21.528 -14.412  16.288  0.00  0.00    +0.021 C 
ENDROOT
BRANCH   1   7
ATOM      4  C   LIG    1       17.944 -16.789  18.876  0.00  0.00    +0.117 A 
ATOM      5  C   LIG    1       19.072 -17.583  19.005  0.00  0.00    +0.046 A 
ATOM      6  C   LIG    1       20.324 -17.094  18.613  0.00  0.00    +0.008 A 
ATOM      7  C   LIG    1       20.460 -15.798  18.086  0.00  0.00    -0.037 A 
ATOM      8  C   LIG    1       19.291 -15.014  17.979  0.00  0.00    +0.008 A 
ATOM      9  C   LIG    1       18.041 -15.501  18.371  0.00  0.00    +0.046 A 
BRANCH   4  10
ATOM     10  O   LIG    1       16.744 -17.314  19.252  0.00  0.00    -0.507 OA
ATOM     11  H   LIG    1       16.872 -17.819  20.071  0.00  0.00    +0.292 HD
ENDBRANCH   4  10
ENDBRANCH   1   7
BRANCH   1  12
ATOM     12  C   LIG    1       22.797 -16.404  17.363  0.00  0.00    -0.037 A 
ATOM     13  C   LIG    1       23.700 -16.761  18.387  0.00  0.00    +0.008 A 
ATOM     14  C   LIG    1       24.549 -17.863  18.259  0.00  0.00    +0.046 A 
ATOM     15  C   LIG    1       24.493 -18.641  17.115  0.00  0.00    +0.117 A 
ATOM     16  C   LIG    1       23.617 -18.323  16.086  0.00  0.00    +0.046 A 
ATOM     17  C   LIG    1       22.779 -17.208  16.208  0.00  0.00    +0.008 A 
BRANCH  15  18
ATOM     18  O   LIG    1       25.310 -19.730  17.045  0.00  0.00    -0.507 OA
ATOM     19  H   LIG    1       24.777 -20.498  16.782  0.00  0.00    +0.292 HD
ENDBRANCH  15  18
ENDBRANCH   1  12
TORSDOF 4
ENDMDL
MODEL 6
REMARK VINA RESULT:      -8.0      1.835      2.042
REMARK  Name = 
REMARK                            x       y       z     vdW  Elec       q    Type
REMARK                         _______ _______ _______ _____ _____    ______ ____
ROOT
ATOM      1  C   LIG    1       24.137 -16.296  17.858  0.00  0.00    +0.015 C 
ATOM      2  C   LIG    1       24.173 -17.767  18.365  0.00  0.00    +0.021 C 
ATOM      3  C   LIG    1       24.698 -16.376  16.411  0.00  0.00    +0.021 C 
ENDROOT
BRANCH   1   7
ATOM      4  C   LIG    1       26.811 -13.664  20.087  0.00  0.00    +0.117 A 
ATOM      5  C   LIG    1       25.792 -13.110  19.330  0.00  0.00    +0.046 A 
ATOM      6  C   LIG    1       24.911 -13.938  18.623  0.00  0.00    +0.008 A 
ATOM      7  C   LIG    1       25.043 -15.337  18.669  0.00  0.00    -0.037 A 
ATOM      8  C   LIG    1       26.086 -15.866  19.458  0.00  0.00    +0.008 A 
ATOM      9  C   LIG    1       26.965 -15.041  20.165  0.00  0.00    +0.046 A 
BRANCH   4  10
ATOM     10  O   LIG    1       27.656 -12.819  20.742  0.00  0.00    -0.507 OA
ATOM     11  H   LIG    1       27.125 -12.146  21.198  0.00  0.00    +0.292 HD
ENDBRANCH   4  10
ENDBRANCH   1   7
BRANCH   1  12
ATOM     12  C   LIG    1       22.676 -15.783  17.925  0.00  0.00    -0.037 A 
ATOM     13  C   LIG    1       22.132 -15.068  16.838  0.00  0.00    +0.008 A 
ATOM     14  C   LIG    1       20.796 -14.660  16.829  0.00  0.00    +0.046 A 
ATOM     15  C   LIG    1       19.974 -14.979  17.898  0.00  0.00    +0.117 A 
ATOM     16  C   LIG    1       20.473 -15.683  18.986  0.00  0.00    +0.046 A 
ATOM     17  C   LIG    1       21.817 -16.076  19.001  0.00  0.00    +0.008 A 
BRANCH  15  18
ATOM     18  O   LIG    1       18.668 -14.597  17.834  0.00  0.00    -0.507 OA
ATOM     19  H   LIG    1       18.448 -14.403  16.908  0.00  0.00    +0.292 HD
ENDBRANCH  15  18
ENDBRANCH   1  12
TORSDOF 4
ENDMDL
MODEL 7
REMARK VINA RESULT:      -7.9      1.785      5.673
REMARK  Name = 
REMARK                            x       y       z     vdW  Elec       q    Type
REMARK                         _______ _______ _______ _____ _____    ______ ____
ROOT
ATOM      1  C   LIG    1       22.951 -16.903  17.506  0.00  0.00    +0.015 C 
ATOM      2  C   LIG    1       23.089 -17.408  16.041  0.00  0.00    +0.021 C 
ATOM      3  C   LIG    1       23.129 -18.183  18.370  0.00  0.00    +0.021 C 
ENDROOT
BRANCH   1   7
ATOM      4  C   LIG    1       19.081 -15.184  18.561  0.00  0.00    +0.117 A 
ATOM      5  C   LIG    1       19.761 -14.695  17.458  0.00  0.00    +0.046 A 
ATOM      6  C   LIG    1       20.995 -15.246  17.091  0.00  0.00    +0.008 A 
ATOM      7  C   LIG    1       21.563 -16.299  17.829  0.00  0.00    -0.037 A 
ATOM      8  C   LIG    1       20.837 -16.780  18.941  0.00  0.00    +0.008 A 
ATOM      9  C   LIG    1       19.605 -16.230  19.307  0.00  0.00    +0.046 A 
BRANCH   4  10
ATOM     10  O   LIG    1       17.893 -14.604  18.892  0.00  0.00    -0.507 OA
ATOM     11  H   LIG    1       17.174 -15.181  18.587  0.00  0.00    +0.292 HD
ENDBRANCH   4  10
ENDBRANCH   1   7
BRANCH   1  12
ATOM     12  C   LIG    1       24.038 -15.829  17.766  0.00  0.00    -0.037 A 
ATOM     13  C   LIG    1       23.769 -14.755  18.641  0.00  0.00    +0.008 A 
ATOM     14  C   LIG    1       24.750 -13.813  18.962  0.00  0.00    +0.046 A 
ATOM     15  C   LIG    1       26.023 -13.941  18.432  0.00  0.00    +0.117 A 
ATOM     16  C   LIG    1       26.326 -14.985  17.568  0.00  0.00    +0.046 A 
ATOM     17  C   LIG    1       25.337 -15.919  17.233  0.00  0.00    +0.008 A 
BRANCH  15  18
ATOM     18  O   LIG    1       26.962 -13.025  18.799  0.00  0.00    -0.507 OA
ATOM     19  H   LIG    1       26.530 -12.338  19.334  0.00  0.00    +0.292 HD
ENDBRANCH  15  18
ENDBRANCH   1  12
TORSDOF 4
ENDMDL
MODEL 8
REMARK VINA RESULT:      -7.9      1.469      2.052
REMARK  Name = 
REMARK                            x       y       z     vdW  Elec       q    Type
REMARK                         _______ _______ _______ _____ _____    ______ ____
ROOT
ATOM      1  C   LIG    1       25.233 -16.918  17.672  0.00  0.00    +0.015 C 
ATOM      2  C   LIG    1       25.152 -18.333  18.313  0.00  0.00    +0.021 C 
ATOM      3  C   LIG    1       25.801 -17.174  16.248  0.00  0.00    +0.021 C 
ENDROOT
BRANCH   1   7
ATOM      4  C   LIG    1       27.844 -14.112  19.760  0.00  0.00    +0.117 A 
ATOM      5  C   LIG    1       27.854 -15.448  20.127  0.00  0.00    +0.046 A 
ATOM      6  C   LIG    1       27.038 -16.367  19.457  0.00  0.00    +0.008 A 
ATOM      7  C   LIG    1       26.200 -15.957  18.405  0.00  0.00    -0.037 A 
ATOM      8  C   LIG    1       26.224 -14.590  18.052  0.00  0.00    +0.008 A 
ATOM      9  C   LIG    1       27.038 -13.671  18.720  0.00  0.00    +0.046 A 
BRANCH   4  10
ATOM     10  O   LIG    1       28.639 -13.250  20.454  0.00  0.00    -0.507 OA
ATOM     11  H   LIG    1       29.564 -13.432  20.223  0.00  0.00    +0.292 HD
ENDBRANCH   4  10
ENDBRANCH   1   7
BRANCH   1  12
ATOM     12  C   LIG    1       23.815 -16.292  17.666  0.00  0.00    -0.037 A 
ATOM     13  C   LIG    1       23.237 -15.873  16.450  0.00  0.00    +0.008 A 
ATOM     14  C   LIG    1       21.931 -15.379  16.394  0.00  0.00    +0.046 A 
ATOM     15  C   LIG    1       21.172 -15.319  17.552  0.00  0.00    +0.117 A 
ATOM     16  C   LIG    1       21.705 -15.724  18.768  0.00  0.00    +0.046 A 
ATOM     17  C   LIG    1       23.020 -16.202  18.824  0.00  0.00    +0.008 A 
BRANCH  15  18
ATOM     18  O   LIG    1       19.889 -14.869  17.450  0.00  0.00    -0.507 OA
ATOM     19  H   LIG    1       19.840 -14.243  16.709  0.00  0.00    +0.292 HD
ENDBRANCH  15  18
ENDBRANCH   1  12
TORSDOF 4
ENDMDL
MODEL 9
REMARK VINA RESULT:      -7.9      1.807      5.882
REMARK  Name = 
REMARK                            x       y       z     vdW  Elec       q    Type
REMARK                         _______ _______ _______ _____ _____    ______ ____
ROOT
ATOM      1  C   LIG    1       24.763 -16.372  17.704  0.00  0.00    +0.015 C 
ATOM      2  C   LIG    1       25.184 -16.687  16.240  0.00  0.00    +0.021 C 
ATOM      3  C   LIG    1       24.892 -17.734  18.441  0.00  0.00    +0.021 C 
ENDROOT
BRANCH   1   7
ATOM      4  C   LIG    1       20.598 -15.094  17.965  0.00  0.00    +0.117 A 
ATOM      5  C   LIG    1       21.213 -15.633  19.084  0.00  0.00    +0.046 A 
ATOM      6  C   LIG    1       22.554 -16.031  19.027  0.00  0.00    +0.008 A 
ATOM      7  C   LIG    1       23.298 -15.891  17.842  0.00  0.00    -0.037 A 
ATOM      8  C   LIG    1       22.643 -15.329  16.725  0.00  0.00    +0.008 A 
ATOM      9  C   LIG    1       21.304 -14.931  16.782  0.00  0.00    +0.046 A 
BRANCH   4  10
ATOM     10  O   LIG    1       19.286 -14.739  18.062  0.00  0.00    -0.507 OA
ATOM     11  H   LIG    1       19.122 -14.002  17.452  0.00  0.00    +0.292 HD
ENDBRANCH   4  10
ENDBRANCH   1   7
BRANCH   1  12
ATOM     12  C   LIG    1       25.705 -15.276  18.267  0.00  0.00    -0.037 A 
ATOM     13  C   LIG    1       27.011 -15.614  18.678  0.00  0.00    +0.008 A 
ATOM     14  C   LIG    1       27.913 -14.641  19.114  0.00  0.00    +0.046 A 
ATOM     15  C   LIG    1       27.533 -13.309  19.125  0.00  0.00    +0.117 A 
ATOM     16  C   LIG    1       26.256 -12.936  18.727  0.00  0.00    +0.046 A 
ATOM     17  C   LIG    1       25.347 -13.916  18.307  0.00  0.00    +0.008 A 
BRANCH  15  18
ATOM     18  O   LIG    1       28.454 -12.386  19.520  0.00  0.00    -0.507 OA
ATOM     19  H   LIG    1       29.244 -12.855  19.835  0.00  0.00    +0.292 HD
ENDBRANCH  15  18
ENDBRANCH   1  12
TORSDOF 4
ENDMDL
