MODEL 1
REMARK VINA RESULT:      -7.7      0.000      0.000
REMARK  Name = 
REMARK                            x       y       z     vdW  Elec       q    Type
REMARK                         _______ _______ _______ _____ _____    ______ ____
ROOT
ATOM      1  C   LIG    1        3.952   7.387  -2.346  0.00  0.00    +0.015 C 
ATOM      2  C   LIG    1        5.134   6.376  -2.380  0.00  0.00    +0.021 C 
ATOM      3  C   LIG    1        4.517   8.610  -1.571  0.00  0.00    +0.021 C 
ENDROOT
BRANCH   1   7
ATOM      4  C   LIG    1        0.435   6.064  -0.127  0.00  0.00    +0.117 A 
ATOM      5  C   LIG    1        0.530   5.777  -1.480  0.00  0.00    +0.046 A 
ATOM      6  C   LIG    1        1.659   6.175  -2.205  0.00  0.00    +0.008 A 
ATOM      7  C   LIG    1        2.711   6.868  -1.580  0.00  0.00    -0.037 A 
ATOM      8  C   LIG    1        2.584   7.134  -0.199  0.00  0.00    +0.008 A 
ATOM      9  C   LIG    1        1.458   6.737   0.526  0.00  0.00    +0.046 A 
BRANCH   4  10
ATOM     10  O   LIG    1       -0.691   5.674   0.534  0.00  0.00    -0.507 OA
ATOM     11  H   LIG    1       -1.377   5.467  -0.122  0.00  0.00    +0.292 HD
ENDBRANCH   4  10
ENDBRANCH   1   7
BRANCH   1  12
ATOM     12  C   LIG    1        3.540   7.718  -3.803  0.00  0.00    -0.037 A 
ATOM     13  C   LIG    1        3.219   9.045  -4.158  0.00  0.00    +0.008 A 
ATOM     14  C   LIG    1        2.921   9.395  -5.477  0.00  0.00    +0.046 A 
ATOM     15  C   LIG    1        2.961   8.429  -6.469  0.00  0.00    +0.117 A 
ATOM     16  C   LIG    1        3.274   7.112  -6.159  0.00  0.00    +0.046 A 
ATOM     17  C   LIG    1        3.556   6.760  -4.833  0.00  0.00    +0.008 A 
BRANCH  15  18
ATOM     18  O   LIG    1        2.703   8.818  -7.749  0.00  0.00    -0.507 OA
ATOM     19  H   LIG    1        3.250   8.286  -8.349  0.00  0.00    +0.292 HD
ENDBRANCH  15  18
ENDBRANCH   1  12
TORSDOF 4
ENDMDL
MODEL 2
REMARK VINA RESULT:      -7.7      0.072      5.525
REMARK  Name = 
REMARK                            x       y       z     vdW  Elec       q    Type
REMARK                         _______ _______ _______ _____ _____    ______ ____
ROOT
ATOM      1  C   LIG    1        3.973   7.382  -2.359  0.00  0.00    +0.015 C 
ATOM      2  C   LIG    1        4.529   8.595  -1.560  0.00  0.00    +0.021 C 
ATOM      3  C   LIG    1        5.161   6.381  -2.412  0.00  0.00    +0.021 C 
ENDROOT
BRANCH   1   7
ATOM      4  C   LIG    1        2.947   8.469  -6.460  0.00  0.00    +0.117 A 
ATOM      5  C   LIG    1        3.256   7.150  -6.166  0.00  0.00    +0.046 A 
ATOM      6  C   LIG    1        3.569   6.778  -4.853  0.00  0.00    +0.008 A 
ATOM      7  C   LIG    1        3.574   7.726  -3.815  0.00  0.00    -0.037 A 
ATOM      8  C   LIG    1        3.244   9.058  -4.150  0.00  0.00    +0.008 A 
ATOM      9  C   LIG    1        2.932   9.430  -5.460  0.00  0.00    +0.046 A 
BRANCH   4  10
ATOM     10  O   LIG    1        2.668   8.789  -7.755  0.00  0.00    -0.507 OA
ATOM     11  H   LIG    1        1.990   9.484  -7.760  0.00  0.00    +0.292 HD
ENDBRANCH   4  10
ENDBRANCH   1   7
BRANCH   1  12
ATOM     12  C   LIG    1        2.731   6.825  -1.618  0.00  0.00    -0.037 A 
ATOM     13  C   LIG    1        2.565   7.073  -0.240  0.00  0.00    +0.008 A 
ATOM     14  C   LIG    1        1.420   6.657   0.444  0.00  0.00    +0.046 A 
ATOM     15  C   LIG    1        0.410   6.005  -0.245  0.00  0.00    +0.117 A 
ATOM     16  C   LIG    1        0.536   5.744  -1.603  0.00  0.00    +0.046 A 
ATOM     17  C   LIG    1        1.692   6.146  -2.282  0.00  0.00    +0.008 A 
BRANCH  15  18
ATOM     18  O   LIG    1       -0.708   5.649   0.449  0.00  0.00    -0.507 OA
ATOM     19  H   LIG    1       -0.834   4.691   0.360  0.00  0.00    +0.292 HD
ENDBRANCH  15  18
ENDBRANCH   1  12
TORSDOF 4
ENDMDL
MODEL 3
REMARK VINA RESULT:      -7.3      2.751      5.579
REMARK  Name = 
REMARK                            x       y       z     vdW  Elec       q    Type
REMARK                         _______ _______ _______ _____ _____    ______ ____
ROOT
ATOM      1  C   LIG    1        3.986   7.593  -4.709  0.00  0.00    +0.015 C 
ATOM      2  C   LIG    1        5.063   7.144  -5.738  0.00  0.00    +0.021 C 
ATOM      3  C   LIG    1        2.662   7.609  -5.522  0.00  0.00    +0.021 C 
ENDROOT
BRANCH   1   7
ATOM      4  C   LIG    1        4.664  11.546  -2.987  0.00  0.00    +0.117 A 
ATOM      5  C   LIG    1        5.323  11.193  -4.154  0.00  0.00    +0.046 A 
ATOM      6  C   LIG    1        5.105   9.937  -4.733  0.00  0.00    +0.008 A 
ATOM      7  C   LIG    1        4.218   9.017  -4.147  0.00  0.00    -0.037 A 
ATOM      8  C   LIG    1        3.556   9.414  -2.965  0.00  0.00    +0.008 A 
ATOM      9  C   LIG    1        3.773  10.668  -2.386  0.00  0.00    +0.046 A 
BRANCH   4  10
ATOM     10  O   LIG    1        4.922  12.771  -2.449  0.00  0.00    -0.507 OA
ATOM     11  H   LIG    1        4.657  13.450  -3.090  0.00  0.00    +0.292 HD
ENDBRANCH   4  10
ENDBRANCH   1   7
BRANCH   1  12
ATOM     12  C   LIG    1        3.974   6.585  -3.531  0.00  0.00    -0.037 A 
ATOM     13  C   LIG    1        5.131   6.410  -2.744  0.00  0.00    +0.008 A 
ATOM     14  C   LIG    1        5.133   5.572  -1.626  0.00  0.00    +0.046 A 
ATOM     15  C   LIG    1        3.970   4.912  -1.262  0.00  0.00    +0.117 A 
ATOM     16  C   LIG    1        2.810   5.061  -2.011  0.00  0.00    +0.046 A 
ATOM     17  C   LIG    1        2.815   5.888  -3.141  0.00  0.00    +0.008 A 
BRANCH  15  18
ATOM     18  O   LIG    1        4.002   4.135  -0.143  0.00  0.00    -0.507 OA
ATOM     19  H   LIG    1        4.775   3.550  -0.196  0.00  0.00    +0.292 HD
ENDBRANCH  15  18
ENDBRANCH   1  12
TORSDOF 4
ENDMDL
MODEL 4
REMARK VINA RESULT:      -7.3      2.753      3.877
REMARK  Name = 
REMARK                            x       y       z     vdW  Elec       q    Type
REMARK                         _______ _______ _______ _____ _____    ______ ____
ROOT
ATOM      1  C   LIG    1        3.949   7.592  -4.742  0.00  0.00    +0.015 C 
ATOM      2  C   LIG    1        2.635   7.571  -5.574  0.00  0.00    +0.021 C 
ATOM      3  C   LIG    1        5.043   7.125  -5.743  0.00  0.00    +0.021 C 
ENDROOT
BRANCH   1   7
ATOM      4  C   LIG    1        4.001   4.927  -1.286  0.00  0.00    +0.117 A 
ATOM      5  C   LIG    1        2.834   5.060  -2.022  0.00  0.00    +0.046 A 
ATOM      6  C   LIG    1        2.802   5.894  -3.145  0.00  0.00    +0.008 A 
ATOM      7  C   LIG    1        3.945   6.608  -3.547  0.00  0.00    -0.037 A 
ATOM      8  C   LIG    1        5.119   6.440  -2.780  0.00  0.00    +0.008 A 
ATOM      9  C   LIG    1        5.152   5.607  -1.659  0.00  0.00    +0.046 A 
BRANCH   4  10
ATOM     10  O   LIG    1        3.980   4.119  -0.189  0.00  0.00    -0.507 OA
ATOM     11  H   LIG    1        4.737   3.513  -0.239  0.00  0.00    +0.292 HD
ENDBRANCH   4  10
ENDBRANCH   1   7
BRANCH   1  12
ATOM     12  C   LIG    1        4.176   9.029  -4.207  0.00  0.00    -0.037 A 
ATOM     13  C   LIG    1        3.523   9.453  -3.032  0.00  0.00    +0.008 A 
ATOM     14  C   LIG    1        3.764  10.711  -2.476  0.00  0.00    +0.046 A 
ATOM     15  C   LIG    1        4.683  11.559  -3.073  0.00  0.00    +0.117 A 
ATOM     16  C   LIG    1        5.347  11.177  -4.231  0.00  0.00    +0.046 A 
ATOM     17  C   LIG    1        5.090   9.922  -4.796  0.00  0.00    +0.008 A 
BRANCH  15  18
ATOM     18  O   LIG    1        4.920  12.763  -2.479  0.00  0.00    -0.507 OA
ATOM     19  H   LIG    1        5.152  12.607  -1.549  0.00  0.00    +0.292 HD
ENDBRANCH  15  18
ENDBRANCH   1  12
TORSDOF 4
ENDMDL
MODEL 5
REMARK VINA RESULT:      -7.3      1.966      3.081
REMARK  Name = 
REMARK                            x       y       z     vdW  Elec       q    Type
REMARK                         _______ _______ _______ _____ _____    ______ ____
ROOT
ATOM      1  C   LIG    1        3.514   6.916  -2.369  0.00  0.00    +0.015 C 
ATOM      2  C   LIG    1        3.423   6.339  -3.811  0.00  0.00    +0.021 C 
ATOM      3  C   LIG    1        4.728   6.179  -1.737  0.00  0.00    +0.021 C 
ENDROOT
BRANCH   1   7
ATOM      4  C   LIG    1        0.005   5.928   0.032  0.00  0.00    +0.117 A 
ATOM      5  C   LIG    1        1.075   6.574   0.630  0.00  0.00    +0.046 A 
ATOM      6  C   LIG    1        2.202   6.917  -0.127  0.00  0.00    +0.008 A 
ATOM      7  C   LIG    1        2.268   6.616  -1.499  0.00  0.00    -0.037 A 
ATOM      8  C   LIG    1        1.156   5.968  -2.077  0.00  0.00    +0.008 A 
ATOM      9  C   LIG    1        0.030   5.626  -1.322  0.00  0.00    +0.046 A 
BRANCH   4  10
ATOM     10  O   LIG    1       -1.062   5.597   0.811  0.00  0.00    -0.507 OA
ATOM     11  H   LIG    1       -1.252   6.341   1.406  0.00  0.00    +0.292 HD
ENDBRANCH   4  10
ENDBRANCH   1   7
BRANCH   1  12
ATOM     12  C   LIG    1        3.704   8.452  -2.459  0.00  0.00    -0.037 A 
ATOM     13  C   LIG    1        3.454   9.120  -3.676  0.00  0.00    +0.008 A 
ATOM     14  C   LIG    1        3.537  10.511  -3.774  0.00  0.00    +0.046 A 
ATOM     15  C   LIG    1        3.848  11.260  -2.650  0.00  0.00    +0.117 A 
ATOM     16  C   LIG    1        4.099  10.638  -1.435  0.00  0.00    +0.046 A 
ATOM     17  C   LIG    1        4.033   9.242  -1.343  0.00  0.00    +0.008 A 
BRANCH  15  18
ATOM     18  O   LIG    1        3.881  12.617  -2.778  0.00  0.00    -0.507 OA
ATOM     19  H   LIG    1        4.795  12.887  -2.961  0.00  0.00    +0.292 HD
ENDBRANCH  15  18
ENDBRANCH   1  12
TORSDOF 4
ENDMDL
MODEL 6
REMARK VINA RESULT:      -7.2      1.901      5.505
REMARK  Name = 
REMARK                            x       y       z     vdW  Elec       q    Type
REMARK                         _______ _______ _______ _____ _____    ______ ____
ROOT
ATOM      1  C   LIG    1        3.835   6.994  -2.674  0.00  0.00    +0.015 C 
ATOM      2  C   LIG    1        5.116   6.303  -2.124  0.00  0.00    +0.021 C 
ATOM      3  C   LIG    1        3.741   6.510  -4.148  0.00  0.00    +0.021 C 
ENDROOT
BRANCH   1   7
ATOM      4  C   LIG    1        3.919  11.357  -2.745  0.00  0.00    +0.117 A 
ATOM      5  C   LIG    1        4.409  10.688  -1.635  0.00  0.00    +0.046 A 
ATOM      6  C   LIG    1        4.409   9.288  -1.600  0.00  0.00    +0.008 A 
ATOM      7  C   LIG    1        3.916   8.540  -2.684  0.00  0.00    -0.037 A 
ATOM      8  C   LIG    1        3.434   9.254  -3.802  0.00  0.00    +0.008 A 
ATOM      9  C   LIG    1        3.434  10.652  -3.837  0.00  0.00    +0.046 A 
BRANCH   4  10
ATOM     10  O   LIG    1        3.921  12.719  -2.726  0.00  0.00    -0.507 OA
ATOM     11  H   LIG    1        3.773  13.039  -3.630  0.00  0.00    +0.292 HD
ENDBRANCH   4  10
ENDBRANCH   1   7
BRANCH   1  12
ATOM     12  C   LIG    1        2.625   6.562  -1.805  0.00  0.00    -0.037 A 
ATOM     13  C   LIG    1        2.630   6.816  -0.418  0.00  0.00    +0.008 A 
ATOM     14  C   LIG    1        1.526   6.514   0.383  0.00  0.00    +0.046 A 
ATOM     15  C   LIG    1        0.388   5.974  -0.195  0.00  0.00    +0.117 A 
ATOM     16  C   LIG    1        0.344   5.711  -1.557  0.00  0.00    +0.046 A 
ATOM     17  C   LIG    1        1.459   5.998  -2.355  0.00  0.00    +0.008 A 
BRANCH  15  18
ATOM     18  O   LIG    1       -0.682   5.730   0.613  0.00  0.00    -0.507 OA
ATOM     19  H   LIG    1       -1.219   6.538   0.667  0.00  0.00    +0.292 HD
ENDBRANCH  15  18
ENDBRANCH   1  12
TORSDOF 4
ENDMDL
MODEL 7
REMARK VINA RESULT:      -6.8      2.670      6.459
REMARK  Name = 
REMARK                            x       y       z     vdW  Elec       q    Type
REMARK                         _______ _______ _______ _____ _____    ______ ____
ROOT
ATOM      1  C   LIG    1        3.570   8.225  -5.330  0.00  0.00    +0.015 C 
ATOM      2  C   LIG    1        2.316   7.854  -6.172  0.00  0.00    +0.021 C 
ATOM      3  C   LIG    1        3.602   9.779  -5.355  0.00  0.00    +0.021 C 
ENDROOT
BRANCH   1   7
ATOM      4  C   LIG    1        7.242   6.663  -7.099  0.00  0.00    +0.117 A 
ATOM      5  C   LIG    1        6.960   8.016  -7.205  0.00  0.00    +0.046 A 
ATOM      6  C   LIG    1        5.798   8.540  -6.628  0.00  0.00    +0.008 A 
ATOM      7  C   LIG    1        4.900   7.711  -5.933  0.00  0.00    -0.037 A 
ATOM      8  C   LIG    1        5.223   6.340  -5.835  0.00  0.00    +0.008 A 
ATOM      9  C   LIG    1        6.384   5.816  -6.411  0.00  0.00    +0.046 A 
BRANCH   4  10
ATOM     10  O   LIG    1        8.374   6.194  -7.693  0.00  0.00    -0.507 OA
ATOM     11  H   LIG    1        9.139   6.631  -7.284  0.00  0.00    +0.292 HD
ENDBRANCH   4  10
ENDBRANCH   1   7
BRANCH   1  12
ATOM     12  C   LIG    1        3.405   7.635  -3.906  0.00  0.00    -0.037 A 
ATOM     13  C   LIG    1        2.642   6.464  -3.714  0.00  0.00    +0.008 A 
ATOM     14  C   LIG    1        2.537   5.859  -2.459  0.00  0.00    +0.046 A 
ATOM     15  C   LIG    1        3.213   6.402  -1.378  0.00  0.00    +0.117 A 
ATOM     16  C   LIG    1        3.975   7.553  -1.527  0.00  0.00    +0.046 A 
ATOM     17  C   LIG    1        4.064   8.168  -2.782  0.00  0.00    +0.008 A 
BRANCH  15  18
ATOM     18  O   LIG    1        3.117   5.761  -0.180  0.00  0.00    -0.507 OA
ATOM     19  H   LIG    1        2.179   5.695   0.061  0.00  0.00    +0.292 HD
ENDBRANCH  15  18
ENDBRANCH   1  12
TORSDOF 4
ENDMDL
MODEL 8
REMARK VINA RESULT:      -6.8      1.916      2.769
REMARK  Name = 
REMARK                            x       y       z     vdW  Elec       q    Type
REMARK                         _______ _______ _______ _____ _____    ______ ____
ROOT
ATOM      1  C   LIG    1        4.275   9.197  -2.293  0.00  0.00    +0.015 C 
ATOM      2  C   LIG    1        5.642   9.930  -2.172  0.00  0.00    +0.021 C 
ATOM      3  C   LIG    1        3.293  10.077  -1.469  0.00  0.00    +0.021 C 
ENDROOT
BRANCH   1   7
ATOM      4  C   LIG    1        4.122   5.183  -0.585  0.00  0.00    +0.117 A 
ATOM      5  C   LIG    1        5.095   5.483  -1.525  0.00  0.00    +0.046 A 
ATOM      6  C   LIG    1        5.173   6.770  -2.070  0.00  0.00    +0.008 A 
ATOM      7  C   LIG    1        4.274   7.776  -1.677  0.00  0.00    -0.037 A 
ATOM      8  C   LIG    1        3.302   7.439  -0.710  0.00  0.00    +0.008 A 
ATOM      9  C   LIG    1        3.224   6.154  -0.164  0.00  0.00    +0.046 A 
BRANCH   4  10
ATOM     10  O   LIG    1        4.071   3.913  -0.096  0.00  0.00    -0.507 OA
ATOM     11  H   LIG    1        3.299   3.839   0.489  0.00  0.00    +0.292 HD
ENDBRANCH   4  10
ENDBRANCH   1   7
BRANCH   1  12
ATOM     12  C   LIG    1        3.898   9.093  -3.793  0.00  0.00    -0.037 A 
ATOM     13  C   LIG    1        4.202   7.919  -4.514  0.00  0.00    +0.008 A 
ATOM     14  C   LIG    1        3.806   7.758  -5.844  0.00  0.00    +0.046 A 
ATOM     15  C   LIG    1        3.079   8.758  -6.469  0.00  0.00    +0.117 A 
ATOM     16  C   LIG    1        2.760   9.927  -5.792  0.00  0.00    +0.046 A 
ATOM     17  C   LIG    1        3.172  10.094  -4.464  0.00  0.00    +0.008 A 
BRANCH  15  18
ATOM     18  O   LIG    1        2.678   8.546  -7.755  0.00  0.00    -0.507 OA
ATOM     19  H   LIG    1        1.719   8.686  -7.805  0.00  0.00    +0.292 HD
ENDBRANCH  15  18
ENDBRANCH   1  12
TORSDOF 4
ENDMDL
MODEL 9
REMARK VINA RESULT:      -6.6      1.756      5.884
REMARK  Name = 
REMARK                            x       y       z     vdW  Elec       q    Type
REMARK                         _______ _______ _______ _____ _____    ______ ____
ROOT
ATOM      1  C   LIG    1        4.515  10.183  -2.288  0.00  0.00    +0.015 C 
ATOM      2  C   LIG    1        4.140  11.604  -1.780  0.00  0.00    +0.021 C 
ATOM      3  C   LIG    1        6.056  10.103  -2.101  0.00  0.00    +0.021 C 
ENDROOT
BRANCH   1   7
ATOM      4  C   LIG    1        3.712   9.408  -6.508  0.00  0.00    +0.117 A 
ATOM      5  C   LIG    1        2.672   9.802  -5.681  0.00  0.00    +0.046 A 
ATOM      6  C   LIG    1        2.913  10.074  -4.329  0.00  0.00    +0.008 A 
ATOM      7  C   LIG    1        4.204   9.955  -3.788  0.00  0.00    -0.037 A 
ATOM      8  C   LIG    1        5.242   9.561  -4.661  0.00  0.00    +0.008 A 
ATOM      9  C   LIG    1        5.003   9.289  -6.011  0.00  0.00    +0.046 A 
BRANCH   4  10
ATOM     10  O   LIG    1        3.428   9.134  -7.812  0.00  0.00    -0.507 OA
ATOM     11  H   LIG    1        3.422   8.170  -7.929  0.00  0.00    +0.292 HD
ENDBRANCH   4  10
ENDBRANCH   1   7
BRANCH   1  12
ATOM     12  C   LIG    1        3.738   9.134  -1.451  0.00  0.00    -0.037 A 
ATOM     13  C   LIG    1        2.699   9.550  -0.593  0.00  0.00    +0.008 A 
ATOM     14  C   LIG    1        1.924   8.629   0.115  0.00  0.00    +0.046 A 
ATOM     15  C   LIG    1        2.160   7.272  -0.041  0.00  0.00    +0.117 A 
ATOM     16  C   LIG    1        3.173   6.824  -0.877  0.00  0.00    +0.046 A 
ATOM     17  C   LIG    1        3.960   7.750  -1.572  0.00  0.00    +0.008 A 
BRANCH  15  18
ATOM     18  O   LIG    1        1.358   6.404   0.637  0.00  0.00    -0.507 OA
ATOM     19  H   LIG    1        1.049   6.839   1.448  0.00  0.00    +0.292 HD
ENDBRANCH  15  18
ENDBRANCH   1  12
TORSDOF 4
ENDMDL
