MODEL 1
REMARK VINA RESULT:      -8.2      0.000      0.000
REMARK  Name = 
REMARK                            x       y       z     vdW  Elec       q    Type
REMARK                         _______ _______ _______ _____ _____    ______ ____
ROOT
ATOM      1  C   LIG    1        2.896  31.951   4.193  0.00  0.00    +0.015 C 
ATOM      2  C   LIG    1        4.109  32.727   4.780  0.00  0.00    +0.021 C 
ATOM      3  C   LIG    1        2.996  32.183   2.660  0.00  0.00    +0.021 C 
ENDROOT
BRANCH   1   7
ATOM      4  C   LIG    1       -0.899  33.553   5.636  0.00  0.00    +0.117 A 
ATOM      5  C   LIG    1       -0.637  33.553   4.275  0.00  0.00    +0.046 A 
ATOM      6  C   LIG    1        0.565  33.026   3.791  0.00  0.00    +0.008 A 
ATOM      7  C   LIG    1        1.524  32.489   4.668  0.00  0.00    -0.037 A 
ATOM      8  C   LIG    1        1.219  32.496   6.047  0.00  0.00    +0.008 A 
ATOM      9  C   LIG    1        0.018  33.021   6.532  0.00  0.00    +0.046 A 
BRANCH   4  10
ATOM     10  O   LIG    1       -2.074  34.094   6.064  0.00  0.00    -0.507 OA
ATOM     11  H   LIG    1       -1.873  34.835   6.658  0.00  0.00    +0.292 HD
ENDBRANCH   4  10
ENDBRANCH   1   7
BRANCH   1  12
ATOM     12  C   LIG    1        3.017  30.459   4.600  0.00  0.00    -0.037 A 
ATOM     13  C   LIG    1        2.056  29.529   4.152  0.00  0.00    +0.008 A 
ATOM     14  C   LIG    1        2.176  28.165   4.430  0.00  0.00    +0.046 A 
ATOM     15  C   LIG    1        3.272  27.705   5.142  0.00  0.00    +0.117 A 
ATOM     16  C   LIG    1        4.239  28.590   5.599  0.00  0.00    +0.046 A 
ATOM     17  C   LIG    1        4.108  29.959   5.334  0.00  0.00    +0.008 A 
BRANCH  15  18
ATOM     18  O   LIG    1        3.373  26.364   5.360  0.00  0.00    -0.507 OA
ATOM     19  H   LIG    1        2.739  26.115   6.052  0.00  0.00    +0.292 HD
ENDBRANCH  15  18
ENDBRANCH   1  12
TORSDOF 4
ENDMDL
MODEL 2
REMARK VINA RESULT:      -8.2      0.156      5.590
REMARK  Name = 
REMARK                            x       y       z     vdW  Elec       q    Type
REMARK                         _______ _______ _______ _____ _____    ______ ____
ROOT
ATOM      1  C   LIG    1        2.858  32.028   4.168  0.00  0.00    +0.015 C 
ATOM      2  C   LIG    1        3.011  32.325   2.649  0.00  0.00    +0.021 C 
ATOM      3  C   LIG    1        4.052  32.773   4.827  0.00  0.00    +0.021 C 
ENDROOT
BRANCH   1   7
ATOM      4  C   LIG    1        3.222  27.833   5.317  0.00  0.00    +0.117 A 
ATOM      5  C   LIG    1        2.123  28.240   4.577  0.00  0.00    +0.046 A 
ATOM      6  C   LIG    1        1.997  29.577   4.182  0.00  0.00    +0.008 A 
ATOM      7  C   LIG    1        2.977  30.526   4.524  0.00  0.00    -0.037 A 
ATOM      8  C   LIG    1        4.087  30.074   5.270  0.00  0.00    +0.008 A 
ATOM      9  C   LIG    1        4.214  28.739   5.664  0.00  0.00    +0.046 A 
BRANCH   4  10
ATOM     10  O   LIG    1        3.293  26.526   5.696  0.00  0.00    -0.507 OA
ATOM     11  H   LIG    1        4.105  26.143   5.328  0.00  0.00    +0.292 HD
ENDBRANCH   4  10
ENDBRANCH   1   7
BRANCH   1  12
ATOM     12  C   LIG    1        1.474  32.546   4.638  0.00  0.00    -0.037 A 
ATOM     13  C   LIG    1        1.180  32.615   6.016  0.00  0.00    +0.008 A 
ATOM     14  C   LIG    1       -0.024  33.151   6.479  0.00  0.00    +0.046 A 
ATOM     15  C   LIG    1       -0.946  33.649   5.573  0.00  0.00    +0.117 A 
ATOM     16  C   LIG    1       -0.692  33.600   4.209  0.00  0.00    +0.046 A 
ATOM     17  C   LIG    1        0.508  33.046   3.746  0.00  0.00    +0.008 A 
BRANCH  15  18
ATOM     18  O   LIG    1       -2.091  34.199   6.066  0.00  0.00    -0.507 OA
ATOM     19  H   LIG    1       -2.006  34.275   7.030  0.00  0.00    +0.292 HD
ENDBRANCH  15  18
ENDBRANCH   1  12
TORSDOF 4
ENDMDL
MODEL 3
REMARK VINA RESULT:      -8.1      0.226      5.565
REMARK  Name = 
REMARK                            x       y       z     vdW  Elec       q    Type
REMARK                         _______ _______ _______ _____ _____    ______ ____
ROOT
ATOM      1  C   LIG    1        2.879  32.077   4.091  0.00  0.00    +0.015 C 
ATOM      2  C   LIG    1        2.893  32.238   2.544  0.00  0.00    +0.021 C 
ATOM      3  C   LIG    1        4.169  32.804   4.564  0.00  0.00    +0.021 C 
ENDROOT
BRANCH   1   7
ATOM      4  C   LIG    1        3.092  27.883   5.281  0.00  0.00    +0.117 A 
ATOM      5  C   LIG    1        4.042  28.772   5.759  0.00  0.00    +0.046 A 
ATOM      6  C   LIG    1        3.979  30.125   5.405  0.00  0.00    +0.008 A 
ATOM      7  C   LIG    1        2.959  30.605   4.565  0.00  0.00    -0.037 A 
ATOM      8  C   LIG    1        2.004  29.673   4.105  0.00  0.00    +0.008 A 
ATOM      9  C   LIG    1        2.065  28.322   4.459  0.00  0.00    +0.046 A 
BRANCH   4  10
ATOM     10  O   LIG    1        3.204  26.573   5.636  0.00  0.00    -0.507 OA
ATOM     11  H   LIG    1        2.600  26.052   5.083  0.00  0.00    +0.292 HD
ENDBRANCH   4  10
ENDBRANCH   1   7
BRANCH   1  12
ATOM     12  C   LIG    1        1.577  32.711   4.645  0.00  0.00    -0.037 A 
ATOM     13  C   LIG    1        0.636  33.274   3.757  0.00  0.00    +0.008 A 
ATOM     14  C   LIG    1       -0.583  33.781   4.212  0.00  0.00    +0.046 A 
ATOM     15  C   LIG    1       -0.894  33.713   5.560  0.00  0.00    +0.117 A 
ATOM     16  C   LIG    1        0.005  33.164   6.465  0.00  0.00    +0.046 A 
ATOM     17  C   LIG    1        1.235  32.672   6.009  0.00  0.00    +0.008 A 
BRANCH  15  18
ATOM     18  O   LIG    1       -2.109  34.182   5.959  0.00  0.00    -0.507 OA
ATOM     19  H   LIG    1       -2.040  34.472   6.883  0.00  0.00    +0.292 HD
ENDBRANCH  15  18
ENDBRANCH   1  12
TORSDOF 4
ENDMDL
MODEL 4
REMARK VINA RESULT:      -7.9      1.332      5.465
REMARK  Name = 
REMARK                            x       y       z     vdW  Elec       q    Type
REMARK                         _______ _______ _______ _____ _____    ______ ____
ROOT
ATOM      1  C   LIG    1        2.566  32.003   4.377  0.00  0.00    +0.015 C 
ATOM      2  C   LIG    1        3.178  32.145   2.954  0.00  0.00    +0.021 C 
ATOM      3  C   LIG    1        3.747  32.322   5.335  0.00  0.00    +0.021 C 
ENDROOT
BRANCH   1   7
ATOM      4  C   LIG    1        1.151  28.012   5.433  0.00  0.00    +0.117 A 
ATOM      5  C   LIG    1        0.493  28.724   4.442  0.00  0.00    +0.046 A 
ATOM      6  C   LIG    1        0.943  29.997   4.075  0.00  0.00    +0.008 A 
ATOM      7  C   LIG    1        2.063  30.574   4.699  0.00  0.00    -0.037 A 
ATOM      8  C   LIG    1        2.715  29.817   5.696  0.00  0.00    +0.008 A 
ATOM      9  C   LIG    1        2.266  28.545   6.063  0.00  0.00    +0.046 A 
BRANCH   4  10
ATOM     10  O   LIG    1        0.665  26.784   5.771  0.00  0.00    -0.507 OA
ATOM     11  H   LIG    1        1.009  26.549   6.648  0.00  0.00    +0.292 HD
ENDBRANCH   4  10
ENDBRANCH   1   7
BRANCH   1  12
ATOM     12  C   LIG    1        1.380  32.993   4.510  0.00  0.00    -0.037 A 
ATOM     13  C   LIG    1        0.885  33.654   3.366  0.00  0.00    +0.008 A 
ATOM     14  C   LIG    1       -0.232  34.490   3.434  0.00  0.00    +0.046 A 
ATOM     15  C   LIG    1       -0.888  34.662   4.642  0.00  0.00    +0.117 A 
ATOM     16  C   LIG    1       -0.431  34.027   5.789  0.00  0.00    +0.046 A 
ATOM     17  C   LIG    1        0.699  33.203   5.723  0.00  0.00    +0.008 A 
BRANCH  15  18
ATOM     18  O   LIG    1       -1.996  35.454   4.658  0.00  0.00    -0.507 OA
ATOM     19  H   LIG    1       -1.848  36.204   4.060  0.00  0.00    +0.292 HD
ENDBRANCH  15  18
ENDBRANCH   1  12
TORSDOF 4
ENDMDL
MODEL 5
REMARK VINA RESULT:      -7.8      1.952      2.178
REMARK  Name = 
REMARK                            x       y       z     vdW  Elec       q    Type
REMARK                         _______ _______ _______ _____ _____    ______ ____
ROOT
ATOM      1  C   LIG    1        2.530  32.362   4.258  0.00  0.00    +0.015 C 
ATOM      2  C   LIG    1        3.734  32.648   5.201  0.00  0.00    +0.021 C 
ATOM      3  C   LIG    1        3.161  32.302   2.839  0.00  0.00    +0.021 C 
ENDROOT
BRANCH   1   7
ATOM      4  C   LIG    1       -0.386  35.609   4.194  0.00  0.00    +0.117 A 
ATOM      5  C   LIG    1       -0.747  34.363   3.705  0.00  0.00    +0.046 A 
ATOM      6  C   LIG    1        0.167  33.304   3.735  0.00  0.00    +0.008 A 
ATOM      7  C   LIG    1        1.460  33.480   4.258  0.00  0.00    -0.037 A 
ATOM      8  C   LIG    1        1.790  34.759   4.757  0.00  0.00    +0.008 A 
ATOM      9  C   LIG    1        0.878  35.817   4.728  0.00  0.00    +0.046 A 
BRANCH   4  10
ATOM     10  O   LIG    1       -1.301  36.615   4.127  0.00  0.00    -0.507 OA
ATOM     11  H   LIG    1       -1.135  37.231   4.859  0.00  0.00    +0.292 HD
ENDBRANCH   4  10
ENDBRANCH   1   7
BRANCH   1  12
ATOM     12  C   LIG    1        1.864  31.031   4.693  0.00  0.00    -0.037 A 
ATOM     13  C   LIG    1        1.797  29.950   3.789  0.00  0.00    +0.008 A 
ATOM     14  C   LIG    1        1.277  28.711   4.171  0.00  0.00    +0.046 A 
ATOM     15  C   LIG    1        0.836  28.524   5.470  0.00  0.00    +0.117 A 
ATOM     16  C   LIG    1        0.887  29.563   6.390  0.00  0.00    +0.046 A 
ATOM     17  C   LIG    1        1.392  30.810   6.000  0.00  0.00    +0.008 A 
BRANCH  15  18
ATOM     18  O   LIG    1        0.372  27.289   5.815  0.00  0.00    -0.507 OA
ATOM     19  H   LIG    1       -0.420  27.400   6.365  0.00  0.00    +0.292 HD
ENDBRANCH  15  18
ENDBRANCH   1  12
TORSDOF 4
ENDMDL
MODEL 6
REMARK VINA RESULT:      -7.2      1.397      5.800
REMARK  Name = 
REMARK                            x       y       z     vdW  Elec       q    Type
REMARK                         _______ _______ _______ _____ _____    ______ ____
ROOT
ATOM      1  C   LIG    1        2.409  30.938   6.101  0.00  0.00    +0.015 C 
ATOM      2  C   LIG    1        3.680  31.826   6.231  0.00  0.00    +0.021 C 
ATOM      3  C   LIG    1        1.969  30.682   7.570  0.00  0.00    +0.021 C 
ENDROOT
BRANCH   1   7
ATOM      4  C   LIG    1        3.209  27.017   4.359  0.00  0.00    +0.117 A 
ATOM      5  C   LIG    1        1.968  27.603   4.168  0.00  0.00    +0.046 A 
ATOM      6  C   LIG    1        1.698  28.869   4.702  0.00  0.00    +0.008 A 
ATOM      7  C   LIG    1        2.674  29.565   5.436  0.00  0.00    -0.037 A 
ATOM      8  C   LIG    1        3.929  28.942   5.603  0.00  0.00    +0.008 A 
ATOM      9  C   LIG    1        4.200  27.679   5.070  0.00  0.00    +0.046 A 
BRANCH   4  10
ATOM     10  O   LIG    1        3.420  25.776   3.839  0.00  0.00    -0.507 OA
ATOM     11  H   LIG    1        3.251  25.811   2.883  0.00  0.00    +0.292 HD
ENDBRANCH   4  10
ENDBRANCH   1   7
BRANCH   1  12
ATOM     12  C   LIG    1        1.351  31.704   5.266  0.00  0.00    -0.037 A 
ATOM     13  C   LIG    1        0.012  31.759   5.708  0.00  0.00    +0.008 A 
ATOM     14  C   LIG    1       -0.951  32.506   5.025  0.00  0.00    +0.046 A 
ATOM     15  C   LIG    1       -0.587  33.229   3.900  0.00  0.00    +0.117 A 
ATOM     16  C   LIG    1        0.721  33.200   3.435  0.00  0.00    +0.046 A 
ATOM     17  C   LIG    1        1.681  32.437   4.111  0.00  0.00    +0.008 A 
BRANCH  15  18
ATOM     18  O   LIG    1       -1.546  33.976   3.285  0.00  0.00    -0.507 OA
ATOM     19  H   LIG    1       -1.953  33.439   2.585  0.00  0.00    +0.292 HD
ENDBRANCH  15  18
ENDBRANCH   1  12
TORSDOF 4
ENDMDL
MODEL 7
REMARK VINA RESULT:      -7.1      1.359      2.230
REMARK  Name = 
REMARK                            x       y       z     vdW  Elec       q    Type
REMARK                         _______ _______ _______ _____ _____    ______ ____
ROOT
ATOM      1  C   LIG    1        2.526  31.010   6.006  0.00  0.00    +0.015 C 
ATOM      2  C   LIG    1        2.169  30.785   7.503  0.00  0.00    +0.021 C 
ATOM      3  C   LIG    1        3.798  31.902   6.045  0.00  0.00    +0.021 C 
ENDROOT
BRANCH   1   7
ATOM      4  C   LIG    1       -0.604  33.210   3.904  0.00  0.00    +0.117 A 
ATOM      5  C   LIG    1        0.706  33.306   3.462  0.00  0.00    +0.046 A 
ATOM      6  C   LIG    1        1.721  32.593   4.110  0.00  0.00    +0.008 A 
ATOM      7  C   LIG    1        1.434  31.771   5.214  0.00  0.00    -0.037 A 
ATOM      8  C   LIG    1        0.088  31.688   5.630  0.00  0.00    +0.008 A 
ATOM      9  C   LIG    1       -0.927  32.399   4.983  0.00  0.00    +0.046 A 
BRANCH   4  10
ATOM     10  O   LIG    1       -1.556  33.937   3.255  0.00  0.00    -0.507 OA
ATOM     11  H   LIG    1       -1.183  34.806   3.037  0.00  0.00    +0.292 HD
ENDBRANCH   4  10
ENDBRANCH   1   7
BRANCH   1  12
ATOM     12  C   LIG    1        2.760  29.631   5.338  0.00  0.00    -0.037 A 
ATOM     13  C   LIG    1        3.919  28.888   5.646  0.00  0.00    +0.008 A 
ATOM     14  C   LIG    1        4.124  27.608   5.127  0.00  0.00    +0.046 A 
ATOM     15  C   LIG    1        3.163  27.039   4.307  0.00  0.00    +0.117 A 
ATOM     16  C   LIG    1        2.009  27.738   3.981  0.00  0.00    +0.046 A 
ATOM     17  C   LIG    1        1.813  29.028   4.490  0.00  0.00    +0.008 A 
BRANCH  15  18
ATOM     18  O   LIG    1        3.383  25.773   3.852  0.00  0.00    -0.507 OA
ATOM     19  H   LIG    1        2.770  25.598   3.119  0.00  0.00    +0.292 HD
ENDBRANCH  15  18
ENDBRANCH   1  12
TORSDOF 4
ENDMDL
MODEL 8
REMARK VINA RESULT:      -6.7      1.843      5.875
REMARK  Name = 
REMARK                            x       y       z     vdW  Elec       q    Type
REMARK                         _______ _______ _______ _____ _____    ______ ____
ROOT
ATOM      1  C   LIG    1        1.482  30.494   6.623  0.00  0.00    +0.015 C 
ATOM      2  C   LIG    1        2.261  30.964   7.884  0.00  0.00    +0.021 C 
ATOM      3  C   LIG    1        0.085  30.082   7.167  0.00  0.00    +0.021 C 
ENDROOT
BRANCH   1   7
ATOM      4  C   LIG    1        3.152  27.035   4.549  0.00  0.00    +0.117 A 
ATOM      5  C   LIG    1        4.009  27.965   5.115  0.00  0.00    +0.046 A 
ATOM      6  C   LIG    1        3.494  29.071   5.801  0.00  0.00    +0.008 A 
ATOM      7  C   LIG    1        2.106  29.258   5.930  0.00  0.00    -0.037 A 
ATOM      8  C   LIG    1        1.263  28.286   5.350  0.00  0.00    +0.008 A 
ATOM      9  C   LIG    1        1.777  27.181   4.665  0.00  0.00    +0.046 A 
BRANCH   4  10
ATOM     10  O   LIG    1        3.698  25.986   3.873  0.00  0.00    -0.507 OA
ATOM     11  H   LIG    1        4.646  25.948   4.080  0.00  0.00    +0.292 HD
ENDBRANCH   4  10
ENDBRANCH   1   7
BRANCH   1  12
ATOM     12  C   LIG    1        1.427  31.663   5.607  0.00  0.00    -0.037 A 
ATOM     13  C   LIG    1        0.271  31.860   4.823  0.00  0.00    +0.008 A 
ATOM     14  C   LIG    1        0.154  32.949   3.956  0.00  0.00    +0.046 A 
ATOM     15  C   LIG    1        1.182  33.874   3.875  0.00  0.00    +0.117 A 
ATOM     16  C   LIG    1        2.336  33.716   4.632  0.00  0.00    +0.046 A 
ATOM     17  C   LIG    1        2.458  32.613   5.487  0.00  0.00    +0.008 A 
BRANCH  15  18
ATOM     18  O   LIG    1        1.014  34.944   3.047  0.00  0.00    -0.507 OA
ATOM     19  H   LIG    1        0.903  34.617   2.140  0.00  0.00    +0.292 HD
ENDBRANCH  15  18
ENDBRANCH   1  12
TORSDOF 4
ENDMDL
MODEL 9
REMARK VINA RESULT:      -6.6      1.799      5.964
REMARK  Name = 
REMARK                            x       y       z     vdW  Elec       q    Type
REMARK                         _______ _______ _______ _____ _____    ______ ____
ROOT
ATOM      1  C   LIG    1        0.732  30.413   5.668  0.00  0.00    +0.015 C 
ATOM      2  C   LIG    1        0.163  30.046   7.069  0.00  0.00    +0.021 C 
ATOM      3  C   LIG    1        0.022  29.430   4.696  0.00  0.00    +0.021 C 
ENDROOT
BRANCH   1   7
ATOM      4  C   LIG    1        5.008  29.667   5.219  0.00  0.00    +0.117 A 
ATOM      5  C   LIG    1        4.511  30.935   4.964  0.00  0.00    +0.046 A 
ATOM      6  C   LIG    1        3.146  31.200   5.121  0.00  0.00    +0.008 A 
ATOM      7  C   LIG    1        2.259  30.193   5.539  0.00  0.00    -0.037 A 
ATOM      8  C   LIG    1        2.801  28.916   5.799  0.00  0.00    +0.008 A 
ATOM      9  C   LIG    1        4.165  28.650   5.643  0.00  0.00    +0.046 A 
BRANCH   4  10
ATOM     10  O   LIG    1        6.341  29.450   5.034  0.00  0.00    -0.507 OA
ATOM     11  H   LIG    1        6.789  30.311   4.989  0.00  0.00    +0.292 HD
ENDBRANCH   4  10
ENDBRANCH   1   7
BRANCH   1  12
ATOM     12  C   LIG    1        0.415  31.903   5.378  0.00  0.00    -0.037 A 
ATOM     13  C   LIG    1        0.128  32.317   4.061  0.00  0.00    +0.008 A 
ATOM     14  C   LIG    1       -0.240  33.634   3.774  0.00  0.00    +0.046 A 
ATOM     15  C   LIG    1       -0.352  34.554   4.803  0.00  0.00    +0.117 A 
ATOM     16  C   LIG    1       -0.079  34.184   6.113  0.00  0.00    +0.046 A 
ATOM     17  C   LIG    1        0.307  32.868   6.397  0.00  0.00    +0.008 A 
BRANCH  15  18
ATOM     18  O   LIG    1       -0.752  35.818   4.487  0.00  0.00    -0.507 OA
ATOM     19  H   LIG    1       -1.397  36.112   5.151  0.00  0.00    +0.292 HD
ENDBRANCH  15  18
ENDBRANCH   1  12
TORSDOF 4
ENDMDL
