MODEL 1
REMARK VINA RESULT:      -7.5      0.000      0.000
REMARK  Name = 
REMARK                            x       y       z     vdW  Elec       q    Type
REMARK                         _______ _______ _______ _____ _____    ______ ____
ROOT
ATOM      1  C   LIG    1      -47.152   9.592 -42.760  0.00  0.00    +0.015 C 
ATOM      2  C   LIG    1      -47.689   8.234 -43.296  0.00  0.00    +0.021 C 
ATOM      3  C   LIG    1      -45.975   9.197 -41.825  0.00  0.00    +0.021 C 
ENDROOT
BRANCH   1   7
ATOM      4  C   LIG    1      -49.977  11.793 -40.265  0.00  0.00    +0.117 A 
ATOM      5  C   LIG    1      -49.534  12.360 -41.449  0.00  0.00    +0.046 A 
ATOM      6  C   LIG    1      -48.643  11.663 -42.273  0.00  0.00    +0.008 A 
ATOM      7  C   LIG    1      -48.185  10.382 -41.918  0.00  0.00    -0.037 A 
ATOM      8  C   LIG    1      -48.664   9.831 -40.710  0.00  0.00    +0.008 A 
ATOM      9  C   LIG    1      -49.554  10.527 -39.887  0.00  0.00    +0.046 A 
BRANCH   4  10
ATOM     10  O   LIG    1      -50.828  12.517 -39.485  0.00  0.00    -0.507 OA
ATOM     11  H   LIG    1      -51.688  12.067 -39.470  0.00  0.00    +0.292 HD
ENDBRANCH   4  10
ENDBRANCH   1   7
BRANCH   1  12
ATOM     12  C   LIG    1      -46.716  10.464 -43.965  0.00  0.00    -0.037 A 
ATOM     13  C   LIG    1      -47.386  10.344 -45.199  0.00  0.00    +0.008 A 
ATOM     14  C   LIG    1      -47.074  11.169 -46.283  0.00  0.00    +0.046 A 
ATOM     15  C   LIG    1      -46.102  12.145 -46.142  0.00  0.00    +0.117 A 
ATOM     16  C   LIG    1      -45.420  12.296 -44.942  0.00  0.00    +0.046 A 
ATOM     17  C   LIG    1      -45.722  11.456 -43.863  0.00  0.00    +0.008 A 
BRANCH  15  18
ATOM     18  O   LIG    1      -45.854  12.956 -47.210  0.00  0.00    -0.507 OA
ATOM     19  H   LIG    1      -45.934  12.429 -48.022  0.00  0.00    +0.292 HD
ENDBRANCH  15  18
ENDBRANCH   1  12
TORSDOF 4
ENDMDL
MODEL 2
REMARK VINA RESULT:      -7.4      1.607      2.707
REMARK  Name = 
REMARK                            x       y       z     vdW  Elec       q    Type
REMARK                         _______ _______ _______ _____ _____    ______ ____
ROOT
ATOM      1  C   LIG    1      -47.440  10.809 -43.779  0.00  0.00    +0.015 C 
ATOM      2  C   LIG    1      -48.140  11.046 -45.148  0.00  0.00    +0.021 C 
ATOM      3  C   LIG    1      -47.228   9.270 -43.720  0.00  0.00    +0.021 C 
ENDROOT
BRANCH   1   7
ATOM      4  C   LIG    1      -49.980  12.005 -40.438  0.00  0.00    +0.117 A 
ATOM      5  C   LIG    1      -49.356  10.769 -40.405  0.00  0.00    +0.046 A 
ATOM      6  C   LIG    1      -48.522  10.374 -41.458  0.00  0.00    +0.008 A 
ATOM      7  C   LIG    1      -48.301  11.219 -42.560  0.00  0.00    -0.037 A 
ATOM      8  C   LIG    1      -48.945  12.475 -42.555  0.00  0.00    +0.008 A 
ATOM      9  C   LIG    1      -49.778  12.870 -41.504  0.00  0.00    +0.046 A 
BRANCH   4  10
ATOM     10  O   LIG    1      -50.798  12.339 -39.401  0.00  0.00    -0.507 OA
ATOM     11  H   LIG    1      -51.108  11.521 -38.978  0.00  0.00    +0.292 HD
ENDBRANCH   4  10
ENDBRANCH   1   7
BRANCH   1  12
ATOM     12  C   LIG    1      -46.116  11.615 -43.751  0.00  0.00    -0.037 A 
ATOM     13  C   LIG    1      -45.283  11.559 -42.615  0.00  0.00    +0.008 A 
ATOM     14  C   LIG    1      -44.046  12.207 -42.584  0.00  0.00    +0.046 A 
ATOM     15  C   LIG    1      -43.609  12.903 -43.700  0.00  0.00    +0.117 A 
ATOM     16  C   LIG    1      -44.400  12.979 -44.839  0.00  0.00    +0.046 A 
ATOM     17  C   LIG    1      -45.648  12.344 -44.860  0.00  0.00    +0.008 A 
BRANCH  15  18
ATOM     18  O   LIG    1      -42.380  13.488 -43.645  0.00  0.00    -0.507 OA
ATOM     19  H   LIG    1      -42.245  13.998 -44.460  0.00  0.00    +0.292 HD
ENDBRANCH  15  18
ENDBRANCH   1  12
TORSDOF 4
ENDMDL
MODEL 3
REMARK VINA RESULT:      -7.4      0.317      5.566
REMARK  Name = 
REMARK                            x       y       z     vdW  Elec       q    Type
REMARK                         _______ _______ _______ _____ _____    ______ ____
ROOT
ATOM      1  C   LIG    1      -47.014   9.759 -42.838  0.00  0.00    +0.015 C 
ATOM      2  C   LIG    1      -45.740   9.617 -41.956  0.00  0.00    +0.021 C 
ATOM      3  C   LIG    1      -47.393   8.296 -43.204  0.00  0.00    +0.021 C 
ENDROOT
BRANCH   1   7
ATOM      4  C   LIG    1      -46.191  11.922 -46.538  0.00  0.00    +0.117 A 
ATOM      5  C   LIG    1      -47.156  10.927 -46.535  0.00  0.00    +0.046 A 
ATOM      6  C   LIG    1      -47.448  10.235 -45.354  0.00  0.00    +0.008 A 
ATOM      7  C   LIG    1      -46.776  10.534 -44.156  0.00  0.00    -0.037 A 
ATOM      8  C   LIG    1      -45.807  11.561 -44.194  0.00  0.00    +0.008 A 
ATOM      9  C   LIG    1      -45.515  12.252 -45.373  0.00  0.00    +0.046 A 
BRANCH   4  10
ATOM     10  O   LIG    1      -45.926  12.555 -47.715  0.00  0.00    -0.507 OA
ATOM     11  H   LIG    1      -46.449  12.133 -48.416  0.00  0.00    +0.292 HD
ENDBRANCH   4  10
ENDBRANCH   1   7
BRANCH   1  12
ATOM     12  C   LIG    1      -48.107  10.491 -42.017  0.00  0.00    -0.037 A 
ATOM     13  C   LIG    1      -48.603   9.910 -40.831  0.00  0.00    +0.008 A 
ATOM     14  C   LIG    1      -49.529  10.577 -40.024  0.00  0.00    +0.046 A 
ATOM     15  C   LIG    1      -49.957  11.846 -40.377  0.00  0.00    +0.117 A 
ATOM     16  C   LIG    1      -49.490  12.452 -41.537  0.00  0.00    +0.046 A 
ATOM     17  C   LIG    1      -48.576  11.775 -42.353  0.00  0.00    +0.008 A 
BRANCH  15  18
ATOM     18  O   LIG    1      -50.830  12.479 -39.544  0.00  0.00    -0.507 OA
ATOM     19  H   LIG    1      -50.340  12.798 -38.769  0.00  0.00    +0.292 HD
ENDBRANCH  15  18
ENDBRANCH   1  12
TORSDOF 4
ENDMDL
MODEL 4
REMARK VINA RESULT:      -7.4      1.580      5.646
REMARK  Name = 
REMARK                            x       y       z     vdW  Elec       q    Type
REMARK                         _______ _______ _______ _____ _____    ______ ____
ROOT
ATOM      1  C   LIG    1      -47.441  10.711 -43.731  0.00  0.00    +0.015 C 
ATOM      2  C   LIG    1      -47.310   9.161 -43.706  0.00  0.00    +0.021 C 
ATOM      3  C   LIG    1      -48.126  11.017 -45.092  0.00  0.00    +0.021 C 
ENDROOT
BRANCH   1   7
ATOM      4  C   LIG    1      -43.678  12.923 -43.710  0.00  0.00    +0.117 A 
ATOM      5  C   LIG    1      -44.056  12.217 -42.579  0.00  0.00    +0.046 A 
ATOM      6  C   LIG    1      -45.249  11.486 -42.572  0.00  0.00    +0.008 A 
ATOM      7  C   LIG    1      -46.081  11.452 -43.704  0.00  0.00    -0.037 A 
ATOM      8  C   LIG    1      -45.661  12.174 -44.842  0.00  0.00    +0.008 A 
ATOM      9  C   LIG    1      -44.469  12.904 -44.850  0.00  0.00    +0.046 A 
BRANCH   4  10
ATOM     10  O   LIG    1      -42.519  13.637 -43.664  0.00  0.00    -0.507 OA
ATOM     11  H   LIG    1      -41.863  13.126 -43.162  0.00  0.00    +0.292 HD
ENDBRANCH   4  10
ENDBRANCH   1   7
BRANCH   1  12
ATOM     12  C   LIG    1      -48.279  11.159 -42.505  0.00  0.00    -0.037 A 
ATOM     13  C   LIG    1      -48.927  12.411 -42.516  0.00  0.00    +0.008 A 
ATOM     14  C   LIG    1      -49.755  12.813 -41.465  0.00  0.00    +0.046 A 
ATOM     15  C   LIG    1      -49.967  11.959 -40.395  0.00  0.00    +0.117 A 
ATOM     16  C   LIG    1      -49.348  10.717 -40.349  0.00  0.00    +0.046 A 
ATOM     17  C   LIG    1      -48.505  10.324 -41.395  0.00  0.00    +0.008 A 
BRANCH  15  18
ATOM     18  O   LIG    1      -50.812  12.372 -39.409  0.00  0.00    -0.507 OA
ATOM     19  H   LIG    1      -50.552  13.266 -39.134  0.00  0.00    +0.292 HD
ENDBRANCH  15  18
ENDBRANCH   1  12
TORSDOF 4
ENDMDL
MODEL 5
REMARK VINA RESULT:      -7.3      2.333      3.730
REMARK  Name = 
REMARK                            x       y       z     vdW  Elec       q    Type
REMARK                         _______ _______ _______ _____ _____    ______ ____
ROOT
ATOM      1  C   LIG    1      -47.364  10.784 -43.658  0.00  0.00    +0.015 C 
ATOM      2  C   LIG    1      -46.001  11.533 -43.700  0.00  0.00    +0.021 C 
ATOM      3  C   LIG    1      -48.085  11.227 -44.962  0.00  0.00    +0.021 C 
ENDROOT
BRANCH   1   7
ATOM      4  C   LIG    1      -49.994  11.947 -40.375  0.00  0.00    +0.117 A 
ATOM      5  C   LIG    1      -49.330  10.732 -40.314  0.00  0.00    +0.046 A 
ATOM      6  C   LIG    1      -48.467  10.349 -41.347  0.00  0.00    +0.008 A 
ATOM      7  C   LIG    1      -48.258  11.184 -42.459  0.00  0.00    -0.037 A 
ATOM      8  C   LIG    1      -48.942  12.418 -42.484  0.00  0.00    +0.008 A 
ATOM      9  C   LIG    1      -49.804  12.802 -41.452  0.00  0.00    +0.046 A 
BRANCH   4  10
ATOM     10  O   LIG    1      -50.840  12.269 -39.357  0.00  0.00    -0.507 OA
ATOM     11  H   LIG    1      -51.701  12.508 -39.736  0.00  0.00    +0.292 HD
ENDBRANCH   4  10
ENDBRANCH   1   7
BRANCH   1  12
ATOM     12  C   LIG    1      -47.091   9.259 -43.593  0.00  0.00    -0.037 A 
ATOM     13  C   LIG    1      -47.975   8.359 -44.224  0.00  0.00    +0.008 A 
ATOM     14  C   LIG    1      -47.720   6.986 -44.255  0.00  0.00    +0.046 A 
ATOM     15  C   LIG    1      -46.563   6.492 -43.675  0.00  0.00    +0.117 A 
ATOM     16  C   LIG    1      -45.667   7.346 -43.045  0.00  0.00    +0.046 A 
ATOM     17  C   LIG    1      -45.935   8.720 -43.000  0.00  0.00    +0.008 A 
BRANCH  15  18
ATOM     18  O   LIG    1      -46.330   5.151 -43.760  0.00  0.00    -0.507 OA
ATOM     19  H   LIG    1      -45.407   4.983 -43.512  0.00  0.00    +0.292 HD
ENDBRANCH  15  18
ENDBRANCH   1  12
TORSDOF 4
ENDMDL
MODEL 6
REMARK VINA RESULT:      -7.3      2.331      5.548
REMARK  Name = 
REMARK                            x       y       z     vdW  Elec       q    Type
REMARK                         _______ _______ _______ _____ _____    ______ ____
ROOT
ATOM      1  C   LIG    1      -47.382  10.805 -43.675  0.00  0.00    +0.015 C 
ATOM      2  C   LIG    1      -48.113  11.257 -44.971  0.00  0.00    +0.021 C 
ATOM      3  C   LIG    1      -46.015  11.544 -43.729  0.00  0.00    +0.021 C 
ENDROOT
BRANCH   1   7
ATOM      4  C   LIG    1      -46.606   6.510 -43.662  0.00  0.00    +0.117 A 
ATOM      5  C   LIG    1      -45.733   7.358 -43.000  0.00  0.00    +0.046 A 
ATOM      6  C   LIG    1      -45.974   8.737 -42.976  0.00  0.00    +0.008 A 
ATOM      7  C   LIG    1      -47.100   9.284 -43.616  0.00  0.00    -0.037 A 
ATOM      8  C   LIG    1      -47.974   8.389 -44.271  0.00  0.00    +0.008 A 
ATOM      9  C   LIG    1      -47.734   7.013 -44.295  0.00  0.00    +0.046 A 
BRANCH   4  10
ATOM     10  O   LIG    1      -46.321   5.178 -43.676  0.00  0.00    -0.507 OA
ATOM     11  H   LIG    1      -46.552   4.805 -42.809  0.00  0.00    +0.292 HD
ENDBRANCH   4  10
ENDBRANCH   1   7
BRANCH   1  12
ATOM     12  C   LIG    1      -48.248  11.201 -42.452  0.00  0.00    -0.037 A 
ATOM     13  C   LIG    1      -48.942  12.429 -42.449  0.00  0.00    +0.008 A 
ATOM     14  C   LIG    1      -49.795  12.784 -41.401  0.00  0.00    +0.046 A 
ATOM     15  C   LIG    1      -49.987  11.905 -40.348  0.00  0.00    +0.117 A 
ATOM     16  C   LIG    1      -49.323  10.686 -40.314  0.00  0.00    +0.046 A 
ATOM     17  C   LIG    1      -48.454  10.341 -41.357  0.00  0.00    +0.008 A 
BRANCH  15  18
ATOM     18  O   LIG    1      -50.856  12.270 -39.364  0.00  0.00    -0.507 OA
ATOM     19  H   LIG    1      -51.121  13.192 -39.514  0.00  0.00    +0.292 HD
ENDBRANCH  15  18
ENDBRANCH   1  12
TORSDOF 4
ENDMDL
MODEL 7
REMARK VINA RESULT:      -7.2      2.100      2.817
REMARK  Name = 
REMARK                            x       y       z     vdW  Elec       q    Type
REMARK                         _______ _______ _______ _____ _____    ______ ____
ROOT
ATOM      1  C   LIG    1      -46.930   9.253 -42.599  0.00  0.00    +0.015 C 
ATOM      2  C   LIG    1      -46.429   8.005 -41.817  0.00  0.00    +0.021 C 
ATOM      3  C   LIG    1      -45.664  10.140 -42.758  0.00  0.00    +0.021 C 
ENDROOT
BRANCH   1   7
ATOM      4  C   LIG    1      -49.860  11.556 -40.328  0.00  0.00    +0.117 A 
ATOM      5  C   LIG    1      -49.363  12.073 -41.514  0.00  0.00    +0.046 A 
ATOM      6  C   LIG    1      -48.438  11.342 -42.267  0.00  0.00    +0.008 A 
ATOM      7  C   LIG    1      -47.998  10.077 -41.839  0.00  0.00    -0.037 A 
ATOM      8  C   LIG    1      -48.532   9.577 -40.632  0.00  0.00    +0.008 A 
ATOM      9  C   LIG    1      -49.457  10.307 -39.879  0.00  0.00    +0.046 A 
BRANCH   4  10
ATOM     10  O   LIG    1      -50.744  12.312 -39.618  0.00  0.00    -0.507 OA
ATOM     11  H   LIG    1      -50.423  12.383 -38.704  0.00  0.00    +0.292 HD
ENDBRANCH   4  10
ENDBRANCH   1   7
BRANCH   1  12
ATOM     12  C   LIG    1      -47.527   8.785 -43.951  0.00  0.00    -0.037 A 
ATOM     13  C   LIG    1      -48.196   7.546 -44.033  0.00  0.00    +0.008 A 
ATOM     14  C   LIG    1      -48.817   7.129 -45.213  0.00  0.00    +0.046 A 
ATOM     15  C   LIG    1      -48.799   7.954 -46.326  0.00  0.00    +0.117 A 
ATOM     16  C   LIG    1      -48.152   9.182 -46.284  0.00  0.00    +0.046 A 
ATOM     17  C   LIG    1      -47.515   9.591 -45.105  0.00  0.00    +0.008 A 
BRANCH  15  18
ATOM     18  O   LIG    1      -49.448   7.528 -47.445  0.00  0.00    -0.507 OA
ATOM     19  H   LIG    1      -49.719   8.306 -47.960  0.00  0.00    +0.292 HD
ENDBRANCH  15  18
ENDBRANCH   1  12
TORSDOF 4
ENDMDL
MODEL 8
REMARK VINA RESULT:      -7.0      1.909      2.893
REMARK  Name = 
REMARK                            x       y       z     vdW  Elec       q    Type
REMARK                         _______ _______ _______ _____ _____    ______ ____
ROOT
ATOM      1  C   LIG    1      -46.673  11.159 -44.422  0.00  0.00    +0.015 C 
ATOM      2  C   LIG    1      -47.147  11.073 -45.902  0.00  0.00    +0.021 C 
ATOM      3  C   LIG    1      -46.320   9.693 -44.047  0.00  0.00    +0.021 C 
ENDROOT
BRANCH   1   7
ATOM      4  C   LIG    1      -49.663  12.529 -41.553  0.00  0.00    +0.117 A 
ATOM      5  C   LIG    1      -49.441  13.267 -42.705  0.00  0.00    +0.046 A 
ATOM      6  C   LIG    1      -48.501  12.834 -43.647  0.00  0.00    +0.008 A 
ATOM      7  C   LIG    1      -47.769  11.651 -43.445  0.00  0.00    -0.037 A 
ATOM      8  C   LIG    1      -48.028  10.920 -42.266  0.00  0.00    +0.008 A 
ATOM      9  C   LIG    1      -48.967  11.351 -41.325  0.00  0.00    +0.046 A 
BRANCH   4  10
ATOM     10  O   LIG    1      -50.574  12.999 -40.655  0.00  0.00    -0.507 OA
ATOM     11  H   LIG    1      -51.351  12.418 -40.673  0.00  0.00    +0.292 HD
ENDBRANCH   4  10
ENDBRANCH   1   7
BRANCH   1  12
ATOM     12  C   LIG    1      -45.462  12.124 -44.344  0.00  0.00    -0.037 A 
ATOM     13  C   LIG    1      -44.537  12.007 -43.286  0.00  0.00    +0.008 A 
ATOM     14  C   LIG    1      -43.392  12.805 -43.226  0.00  0.00    +0.046 A 
ATOM     15  C   LIG    1      -43.140  13.719 -44.236  0.00  0.00    +0.117 A 
ATOM     16  C   LIG    1      -44.027  13.863 -45.295  0.00  0.00    +0.046 A 
ATOM     17  C   LIG    1      -45.183  13.074 -45.344  0.00  0.00    +0.008 A 
BRANCH  15  18
ATOM     18  O   LIG    1      -41.993  14.451 -44.162  0.00  0.00    -0.507 OA
ATOM     19  H   LIG    1      -41.884  14.938 -44.994  0.00  0.00    +0.292 HD
ENDBRANCH  15  18
ENDBRANCH   1  12
TORSDOF 4
ENDMDL
MODEL 9
REMARK VINA RESULT:      -6.4      2.856      6.228
REMARK  Name = 
REMARK                            x       y       z     vdW  Elec       q    Type
REMARK                         _______ _______ _______ _____ _____    ______ ____
ROOT
ATOM      1  C   LIG    1      -44.512  11.632 -44.425  0.00  0.00    +0.015 C 
ATOM      2  C   LIG    1      -43.743  10.404 -43.858  0.00  0.00    +0.021 C 
ATOM      3  C   LIG    1      -44.814  11.247 -45.900  0.00  0.00    +0.021 C 
ENDROOT
BRANCH   1   7
ATOM      4  C   LIG    1      -42.041  15.230 -44.435  0.00  0.00    +0.117 A 
ATOM      5  C   LIG    1      -43.005  15.067 -45.417  0.00  0.00    +0.046 A 
ATOM      6  C   LIG    1      -43.821  13.929 -45.420  0.00  0.00    +0.008 A 
ATOM      7  C   LIG    1      -43.680  12.938 -44.434  0.00  0.00    -0.037 A 
ATOM      8  C   LIG    1      -42.695  13.141 -43.443  0.00  0.00    +0.008 A 
ATOM      9  C   LIG    1      -41.881  14.277 -43.439  0.00  0.00    +0.046 A 
BRANCH   4  10
ATOM     10  O   LIG    1      -41.257  16.343 -44.484  0.00  0.00    -0.507 OA
ATOM     11  H   LIG    1      -40.399  16.132 -44.080  0.00  0.00    +0.292 HD
ENDBRANCH   4  10
ENDBRANCH   1   7
BRANCH   1  12
ATOM     12  C   LIG    1      -45.787  11.856 -43.573  0.00  0.00    -0.037 A 
ATOM     13  C   LIG    1      -46.999  12.210 -44.202  0.00  0.00    +0.008 A 
ATOM     14  C   LIG    1      -48.186  12.341 -43.477  0.00  0.00    +0.046 A 
ATOM     15  C   LIG    1      -48.186  12.098 -42.113  0.00  0.00    +0.117 A 
ATOM     16  C   LIG    1      -47.014  11.746 -41.458  0.00  0.00    +0.046 A 
ATOM     17  C   LIG    1      -45.821  11.632 -42.184  0.00  0.00    +0.008 A 
BRANCH  15  18
ATOM     18  O   LIG    1      -49.372  12.198 -41.448  0.00  0.00    -0.507 OA
ATOM     19  H   LIG    1      -49.435  13.087 -41.063  0.00  0.00    +0.292 HD
ENDBRANCH  15  18
ENDBRANCH   1  12
TORSDOF 4
ENDMDL
