MODEL 1
REMARK VINA RESULT:      -8.4      0.000      0.000
REMARK  Name = 
REMARK                            x       y       z     vdW  Elec       q    Type
REMARK                         _______ _______ _______ _____ _____    ______ ____
ROOT
ATOM      1  C   LIG    1       23.358 -27.574 -11.763  0.00  0.00    +0.015 C 
ATOM      2  C   LIG    1       22.318 -26.654 -11.062  0.00  0.00    +0.021 C 
ATOM      3  C   LIG    1       22.646 -28.033 -13.066  0.00  0.00    +0.021 C 
ENDROOT
BRANCH   1   7
ATOM      4  C   LIG    1       24.399 -31.215  -9.593  0.00  0.00    +0.117 A 
ATOM      5  C   LIG    1       25.033 -30.026  -9.266  0.00  0.00    +0.046 A 
ATOM      6  C   LIG    1       24.700 -28.844  -9.937  0.00  0.00    +0.008 A 
ATOM      7  C   LIG    1       23.721 -28.839 -10.947  0.00  0.00    -0.037 A 
ATOM      8  C   LIG    1       23.089 -30.065 -11.246  0.00  0.00    +0.008 A 
ATOM      9  C   LIG    1       23.421 -31.246 -10.576  0.00  0.00    +0.046 A 
BRANCH   4  10
ATOM     10  O   LIG    1       24.770 -32.344  -8.927  0.00  0.00    -0.507 OA
ATOM     11  H   LIG    1       25.586 -32.685  -9.330  0.00  0.00    +0.292 HD
ENDBRANCH   4  10
ENDBRANCH   1   7
BRANCH   1  12
ATOM     12  C   LIG    1       24.650 -26.757 -12.022  0.00  0.00    -0.037 A 
ATOM     13  C   LIG    1       25.696 -27.319 -12.783  0.00  0.00    +0.008 A 
ATOM     14  C   LIG    1       26.840 -26.585 -13.105  0.00  0.00    +0.046 A 
ATOM     15  C   LIG    1       26.947 -25.267 -12.691  0.00  0.00    +0.117 A 
ATOM     16  C   LIG    1       25.938 -24.678 -11.941  0.00  0.00    +0.046 A 
ATOM     17  C   LIG    1       24.800 -25.422 -11.605  0.00  0.00    +0.008 A 
BRANCH  15  18
ATOM     18  O   LIG    1       28.061 -24.572 -13.058  0.00  0.00    -0.507 OA
ATOM     19  H   LIG    1       28.839 -25.130 -12.897  0.00  0.00    +0.292 HD
ENDBRANCH  15  18
ENDBRANCH   1  12
TORSDOF 4
ENDMDL
MODEL 2
REMARK VINA RESULT:      -8.4      0.063      5.502
REMARK  Name = 
REMARK                            x       y       z     vdW  Elec       q    Type
REMARK                         _______ _______ _______ _____ _____    ______ ____
ROOT
ATOM      1  C   LIG    1       23.335 -27.590 -11.789  0.00  0.00    +0.015 C 
ATOM      2  C   LIG    1       22.593 -28.053 -13.076  0.00  0.00    +0.021 C 
ATOM      3  C   LIG    1       22.319 -26.654 -11.077  0.00  0.00    +0.021 C 
ENDROOT
BRANCH   1   7
ATOM      4  C   LIG    1       26.948 -25.330 -12.730  0.00  0.00    +0.117 A 
ATOM      5  C   LIG    1       25.934 -24.718 -12.011  0.00  0.00    +0.046 A 
ATOM      6  C   LIG    1       24.775 -25.431 -11.683  0.00  0.00    +0.008 A 
ATOM      7  C   LIG    1       24.620 -26.773 -12.071  0.00  0.00    -0.037 A 
ATOM      8  C   LIG    1       25.678 -27.368 -12.793  0.00  0.00    +0.008 A 
ATOM      9  C   LIG    1       26.835 -26.656 -13.121  0.00  0.00    +0.046 A 
BRANCH   4  10
ATOM     10  O   LIG    1       28.049 -24.591 -13.044  0.00  0.00    -0.507 OA
ATOM     11  H   LIG    1       27.769 -23.674 -13.200  0.00  0.00    +0.292 HD
ENDBRANCH   4  10
ENDBRANCH   1   7
BRANCH   1  12
ATOM     12  C   LIG    1       23.710 -28.841 -10.954  0.00  0.00    -0.037 A 
ATOM     13  C   LIG    1       23.131 -30.090 -11.261  0.00  0.00    +0.008 A 
ATOM     14  C   LIG    1       23.505 -31.254 -10.584  0.00  0.00    +0.046 A 
ATOM     15  C   LIG    1       24.481 -31.192  -9.603  0.00  0.00    +0.117 A 
ATOM     16  C   LIG    1       25.076 -29.981  -9.274  0.00  0.00    +0.046 A 
ATOM     17  C   LIG    1       24.687 -28.813  -9.942  0.00  0.00    +0.008 A 
BRANCH  15  18
ATOM     18  O   LIG    1       24.846 -32.354  -8.993  0.00  0.00    -0.507 OA
ATOM     19  H   LIG    1       24.452 -32.374  -8.106  0.00  0.00    +0.292 HD
ENDBRANCH  15  18
ENDBRANCH   1  12
TORSDOF 4
ENDMDL
MODEL 3
REMARK VINA RESULT:      -7.9      1.065      1.447
REMARK  Name = 
REMARK                            x       y       z     vdW  Elec       q    Type
REMARK                         _______ _______ _______ _____ _____    ______ ____
ROOT
ATOM      1  C   LIG    1       23.216 -27.815 -11.618  0.00  0.00    +0.015 C 
ATOM      2  C   LIG    1       21.985 -27.428 -10.750  0.00  0.00    +0.021 C 
ATOM      3  C   LIG    1       22.612 -28.153 -13.010  0.00  0.00    +0.021 C 
ENDROOT
BRANCH   1   7
ATOM      4  C   LIG    1       25.218 -31.379 -10.087  0.00  0.00    +0.117 A 
ATOM      5  C   LIG    1       25.139 -31.182 -11.456  0.00  0.00    +0.046 A 
ATOM      6  C   LIG    1       24.518 -30.036 -11.967  0.00  0.00    +0.008 A 
ATOM      7  C   LIG    1       23.968 -29.069 -11.107  0.00  0.00    -0.037 A 
ATOM      8  C   LIG    1       24.076 -29.297  -9.718  0.00  0.00    +0.008 A 
ATOM      9  C   LIG    1       24.697 -30.441  -9.208  0.00  0.00    +0.046 A 
BRANCH   4  10
ATOM     10  O   LIG    1       25.814 -32.518  -9.636  0.00  0.00    -0.507 OA
ATOM     11  H   LIG    1       26.418 -32.283  -8.912  0.00  0.00    +0.292 HD
ENDBRANCH   4  10
ENDBRANCH   1   7
BRANCH   1  12
ATOM     12  C   LIG    1       24.200 -26.618 -11.647  0.00  0.00    -0.037 A 
ATOM     13  C   LIG    1       25.582 -26.848 -11.808  0.00  0.00    +0.008 A 
ATOM     14  C   LIG    1       26.489 -25.792 -11.920  0.00  0.00    +0.046 A 
ATOM     15  C   LIG    1       26.027 -24.486 -11.896  0.00  0.00    +0.117 A 
ATOM     16  C   LIG    1       24.673 -24.219 -11.741  0.00  0.00    +0.046 A 
ATOM     17  C   LIG    1       23.768 -25.279 -11.611  0.00  0.00    +0.008 A 
BRANCH  15  18
ATOM     18  O   LIG    1       26.938 -23.484 -12.048  0.00  0.00    -0.507 OA
ATOM     19  H   LIG    1       26.825 -23.095 -12.930  0.00  0.00    +0.292 HD
ENDBRANCH  15  18
ENDBRANCH   1  12
TORSDOF 4
ENDMDL
MODEL 4
REMARK VINA RESULT:      -7.9      2.583      3.290
REMARK  Name = 
REMARK                            x       y       z     vdW  Elec       q    Type
REMARK                         _______ _______ _______ _____ _____    ______ ____
ROOT
ATOM      1  C   LIG    1       24.802 -27.394 -11.731  0.00  0.00    +0.015 C 
ATOM      2  C   LIG    1       23.503 -27.531 -10.886  0.00  0.00    +0.021 C 
ATOM      3  C   LIG    1       24.562 -28.322 -12.955  0.00  0.00    +0.021 C 
ENDROOT
BRANCH   1   7
ATOM      4  C   LIG    1       28.471 -28.755  -9.799  0.00  0.00    +0.117 A 
ATOM      5  C   LIG    1       27.663 -27.836  -9.148  0.00  0.00    +0.046 A 
ATOM      6  C   LIG    1       26.472 -27.402  -9.742  0.00  0.00    +0.008 A 
ATOM      7  C   LIG    1       26.075 -27.887 -11.001  0.00  0.00    -0.037 A 
ATOM      8  C   LIG    1       26.917 -28.829 -11.630  0.00  0.00    +0.008 A 
ATOM      9  C   LIG    1       28.106 -29.264 -11.037  0.00  0.00    +0.046 A 
BRANCH   4  10
ATOM     10  O   LIG    1       29.630 -29.134  -9.191  0.00  0.00    -0.507 OA
ATOM     11  H   LIG    1       29.427 -29.398  -8.279  0.00  0.00    +0.292 HD
ENDBRANCH   4  10
ENDBRANCH   1   7
BRANCH   1  12
ATOM     12  C   LIG    1       24.990 -25.904 -12.116  0.00  0.00    -0.037 A 
ATOM     13  C   LIG    1       23.974 -24.970 -11.825  0.00  0.00    +0.008 A 
ATOM     14  C   LIG    1       24.141 -23.607 -12.084  0.00  0.00    +0.046 A 
ATOM     15  C   LIG    1       25.337 -23.152 -12.616  0.00  0.00    +0.117 A 
ATOM     16  C   LIG    1       26.360 -24.041 -12.915  0.00  0.00    +0.046 A 
ATOM     17  C   LIG    1       26.184 -25.409 -12.672  0.00  0.00    +0.008 A 
BRANCH  15  18
ATOM     18  O   LIG    1       25.475 -21.811 -12.818  0.00  0.00    -0.507 OA
ATOM     19  H   LIG    1       24.619 -21.385 -12.653  0.00  0.00    +0.292 HD
ENDBRANCH  15  18
ENDBRANCH   1  12
TORSDOF 4
ENDMDL
MODEL 5
REMARK VINA RESULT:      -7.9      2.591      5.457
REMARK  Name = 
REMARK                            x       y       z     vdW  Elec       q    Type
REMARK                         _______ _______ _______ _____ _____    ______ ____
ROOT
ATOM      1  C   LIG    1       24.806 -27.398 -11.701  0.00  0.00    +0.015 C 
ATOM      2  C   LIG    1       24.556 -28.306 -12.939  0.00  0.00    +0.021 C 
ATOM      3  C   LIG    1       23.504 -27.529 -10.862  0.00  0.00    +0.021 C 
ENDROOT
BRANCH   1   7
ATOM      4  C   LIG    1       25.300 -23.147 -12.556  0.00  0.00    +0.117 A 
ATOM      5  C   LIG    1       26.334 -24.022 -12.850  0.00  0.00    +0.046 A 
ATOM      6  C   LIG    1       26.188 -25.392 -12.601  0.00  0.00    +0.008 A 
ATOM      7  C   LIG    1       24.998 -25.903 -12.054  0.00  0.00    -0.037 A 
ATOM      8  C   LIG    1       23.962 -24.984 -11.777  0.00  0.00    +0.008 A 
ATOM      9  C   LIG    1       24.107 -23.617 -12.025  0.00  0.00    +0.046 A 
BRANCH   4  10
ATOM     10  O   LIG    1       25.494 -21.820 -12.796  0.00  0.00    -0.507 OA
ATOM     11  H   LIG    1       26.434 -21.678 -12.998  0.00  0.00    +0.292 HD
ENDBRANCH   4  10
ENDBRANCH   1   7
BRANCH   1  12
ATOM     12  C   LIG    1       26.070 -27.905 -10.960  0.00  0.00    -0.037 A 
ATOM     13  C   LIG    1       26.929 -28.830 -11.588  0.00  0.00    +0.008 A 
ATOM     14  C   LIG    1       28.118 -29.247 -10.985  0.00  0.00    +0.046 A 
ATOM     15  C   LIG    1       28.480 -28.727  -9.753  0.00  0.00    +0.117 A 
ATOM     16  C   LIG    1       27.661 -27.813  -9.104  0.00  0.00    +0.046 A 
ATOM     17  C   LIG    1       26.461 -27.410  -9.702  0.00  0.00    +0.008 A 
BRANCH  15  18
ATOM     18  O   LIG    1       29.666 -29.129  -9.215  0.00  0.00    -0.507 OA
ATOM     19  H   LIG    1       30.373 -28.943  -9.854  0.00  0.00    +0.292 HD
ENDBRANCH  15  18
ENDBRANCH   1  12
TORSDOF 4
ENDMDL
MODEL 6
REMARK VINA RESULT:      -7.8      2.265      6.050
REMARK  Name = 
REMARK                            x       y       z     vdW  Elec       q    Type
REMARK                         _______ _______ _______ _____ _____    ______ ____
ROOT
ATOM      1  C   LIG    1       25.979 -27.070 -11.225  0.00  0.00    +0.015 C 
ATOM      2  C   LIG    1       26.259 -27.168  -9.697  0.00  0.00    +0.021 C 
ATOM      3  C   LIG    1       27.241 -27.689 -11.887  0.00  0.00    +0.021 C 
ENDROOT
BRANCH   1   7
ATOM      4  C   LIG    1       25.495 -22.939 -12.547  0.00  0.00    +0.117 A 
ATOM      5  C   LIG    1       26.752 -23.521 -12.588  0.00  0.00    +0.046 A 
ATOM      6  C   LIG    1       26.925 -24.850 -12.187  0.00  0.00    +0.008 A 
ATOM      7  C   LIG    1       25.834 -25.617 -11.739  0.00  0.00    -0.037 A 
ATOM      8  C   LIG    1       24.567 -24.995 -11.720  0.00  0.00    +0.008 A 
ATOM      9  C   LIG    1       24.394 -23.668 -12.121  0.00  0.00    +0.046 A 
BRANCH   4  10
ATOM     10  O   LIG    1       25.378 -21.636 -12.929  0.00  0.00    -0.507 OA
ATOM     11  H   LIG    1       25.004 -21.611 -13.825  0.00  0.00    +0.292 HD
ENDBRANCH   4  10
ENDBRANCH   1   7
BRANCH   1  12
ATOM     12  C   LIG    1       24.674 -27.845 -11.542  0.00  0.00    -0.037 A 
ATOM     13  C   LIG    1       24.429 -28.302 -12.853  0.00  0.00    +0.008 A 
ATOM     14  C   LIG    1       23.304 -29.072 -13.159  0.00  0.00    +0.046 A 
ATOM     15  C   LIG    1       22.417 -29.419 -12.154  0.00  0.00    +0.117 A 
ATOM     16  C   LIG    1       22.625 -28.989 -10.850  0.00  0.00    +0.046 A 
ATOM     17  C   LIG    1       23.743 -28.203 -10.548  0.00  0.00    +0.008 A 
BRANCH  15  18
ATOM     18  O   LIG    1       21.353 -30.204 -12.485  0.00  0.00    -0.507 OA
ATOM     19  H   LIG    1       21.005 -29.906 -13.341  0.00  0.00    +0.292 HD
ENDBRANCH  15  18
ENDBRANCH   1  12
TORSDOF 4
ENDMDL
MODEL 7
REMARK VINA RESULT:      -7.7      2.230      3.409
REMARK  Name = 
REMARK                            x       y       z     vdW  Elec       q    Type
REMARK                         _______ _______ _______ _____ _____    ______ ____
ROOT
ATOM      1  C   LIG    1       26.046 -27.160 -11.237  0.00  0.00    +0.015 C 
ATOM      2  C   LIG    1       27.380 -27.748 -11.780  0.00  0.00    +0.021 C 
ATOM      3  C   LIG    1       26.217 -27.185  -9.692  0.00  0.00    +0.021 C 
ENDROOT
BRANCH   1   7
ATOM      4  C   LIG    1       22.451 -29.456 -12.158  0.00  0.00    +0.117 A 
ATOM      5  C   LIG    1       23.298 -29.081 -13.189  0.00  0.00    +0.046 A 
ATOM      6  C   LIG    1       24.466 -28.362 -12.912  0.00  0.00    +0.008 A 
ATOM      7  C   LIG    1       24.801 -28.008 -11.593  0.00  0.00    -0.037 A 
ATOM      8  C   LIG    1       23.920 -28.415 -10.568  0.00  0.00    +0.008 A 
ATOM      9  C   LIG    1       22.754 -29.135 -10.843  0.00  0.00    +0.046 A 
BRANCH   4  10
ATOM     10  O   LIG    1       21.315 -30.139 -12.476  0.00  0.00    -0.507 OA
ATOM     11  H   LIG    1       20.843 -29.645 -13.166  0.00  0.00    +0.292 HD
ENDBRANCH   4  10
ENDBRANCH   1   7
BRANCH   1  12
ATOM     12  C   LIG    1       25.862 -25.733 -11.814  0.00  0.00    -0.037 A 
ATOM     13  C   LIG    1       24.668 -25.023 -11.565  0.00  0.00    +0.008 A 
ATOM     14  C   LIG    1       24.498 -23.706 -12.000  0.00  0.00    +0.046 A 
ATOM     15  C   LIG    1       25.529 -23.068 -12.670  0.00  0.00    +0.117 A 
ATOM     16  C   LIG    1       26.719 -23.733 -12.933  0.00  0.00    +0.046 A 
ATOM     17  C   LIG    1       26.881 -25.059 -12.512  0.00  0.00    +0.008 A 
BRANCH  15  18
ATOM     18  O   LIG    1       25.339 -21.771 -13.044  0.00  0.00    -0.507 OA
ATOM     19  H   LIG    1       24.412 -21.659 -13.307  0.00  0.00    +0.292 HD
ENDBRANCH  15  18
ENDBRANCH   1  12
TORSDOF 4
ENDMDL
MODEL 8
REMARK VINA RESULT:      -7.7      2.620      5.637
REMARK  Name = 
REMARK                            x       y       z     vdW  Elec       q    Type
REMARK                         _______ _______ _______ _____ _____    ______ ____
ROOT
ATOM      1  C   LIG    1       24.854 -27.283 -11.661  0.00  0.00    +0.015 C 
ATOM      2  C   LIG    1       24.492 -28.221 -12.848  0.00  0.00    +0.021 C 
ATOM      3  C   LIG    1       23.641 -27.397 -10.697  0.00  0.00    +0.021 C 
ENDROOT
BRANCH   1   7
ATOM      4  C   LIG    1       25.230 -23.051 -12.664  0.00  0.00    +0.117 A 
ATOM      5  C   LIG    1       26.272 -23.914 -12.965  0.00  0.00    +0.046 A 
ATOM      6  C   LIG    1       26.163 -25.278 -12.670  0.00  0.00    +0.008 A 
ATOM      7  C   LIG    1       25.003 -25.796 -12.067  0.00  0.00    -0.037 A 
ATOM      8  C   LIG    1       23.958 -24.890 -11.783  0.00  0.00    +0.008 A 
ATOM      9  C   LIG    1       24.066 -23.528 -12.078  0.00  0.00    +0.046 A 
BRANCH   4  10
ATOM     10  O   LIG    1       25.388 -21.729 -12.951  0.00  0.00    -0.507 OA
ATOM     11  H   LIG    1       24.901 -21.210 -12.290  0.00  0.00    +0.292 HD
ENDBRANCH   4  10
ENDBRANCH   1   7
BRANCH   1  12
ATOM     12  C   LIG    1       26.187 -27.767 -11.034  0.00  0.00    -0.037 A 
ATOM     13  C   LIG    1       26.558 -27.327  -9.746  0.00  0.00    +0.008 A 
ATOM     14  C   LIG    1       27.711 -27.804  -9.117  0.00  0.00    +0.046 A 
ATOM     15  C   LIG    1       28.500 -28.747  -9.755  0.00  0.00    +0.117 A 
ATOM     16  C   LIG    1       28.167 -29.205 -11.023  0.00  0.00    +0.046 A 
ATOM     17  C   LIG    1       27.021 -28.712 -11.660  0.00  0.00    +0.008 A 
BRANCH  15  18
ATOM     18  O   LIG    1       29.594 -29.217  -9.092  0.00  0.00    -0.507 OA
ATOM     19  H   LIG    1       29.374 -29.291  -8.149  0.00  0.00    +0.292 HD
ENDBRANCH  15  18
ENDBRANCH   1  12
TORSDOF 4
ENDMDL
MODEL 9
REMARK VINA RESULT:      -7.3      1.826      6.060
REMARK  Name = 
REMARK                            x       y       z     vdW  Elec       q    Type
REMARK                         _______ _______ _______ _____ _____    ______ ____
ROOT
ATOM      1  C   LIG    1       27.038 -28.124 -10.259  0.00  0.00    +0.015 C 
ATOM      2  C   LIG    1       27.549 -27.871  -8.811  0.00  0.00    +0.021 C 
ATOM      3  C   LIG    1       28.296 -28.616 -11.028  0.00  0.00    +0.021 C 
ENDROOT
BRANCH   1   7
ATOM      4  C   LIG    1       25.545 -24.614 -12.381  0.00  0.00    +0.117 A 
ATOM      5  C   LIG    1       25.010 -24.937 -11.144  0.00  0.00    +0.046 A 
ATOM      6  C   LIG    1       25.488 -26.047 -10.439  0.00  0.00    +0.008 A 
ATOM      7  C   LIG    1       26.515 -26.850 -10.966  0.00  0.00    -0.037 A 
ATOM      8  C   LIG    1       27.044 -26.486 -12.223  0.00  0.00    +0.008 A 
ATOM      9  C   LIG    1       26.567 -25.377 -12.928  0.00  0.00    +0.046 A 
BRANCH   4  10
ATOM     10  O   LIG    1       25.035 -23.537 -13.040  0.00  0.00    -0.507 OA
ATOM     11  H   LIG    1       24.723 -23.830 -13.912  0.00  0.00    +0.292 HD
ENDBRANCH   4  10
ENDBRANCH   1   7
BRANCH   1  12
ATOM     12  C   LIG    1       25.898 -29.173 -10.207  0.00  0.00    -0.037 A 
ATOM     13  C   LIG    1       25.032 -29.325 -11.310  0.00  0.00    +0.008 A 
ATOM     14  C   LIG    1       24.045 -30.313 -11.332  0.00  0.00    +0.046 A 
ATOM     15  C   LIG    1       23.921 -31.182 -10.260  0.00  0.00    +0.117 A 
ATOM     16  C   LIG    1       24.756 -31.065  -9.157  0.00  0.00    +0.046 A 
ATOM     17  C   LIG    1       25.733 -30.062  -9.129  0.00  0.00    +0.008 A 
BRANCH  15  18
ATOM     18  O   LIG    1       22.972 -32.157 -10.337  0.00  0.00    -0.507 OA
ATOM     19  H   LIG    1       22.461 -32.026 -11.152  0.00  0.00    +0.292 HD
ENDBRANCH  15  18
ENDBRANCH   1  12
TORSDOF 4
ENDMDL
