MODEL 1
REMARK VINA RESULT:      -8.2      0.000      0.000
REMARK  Name = 
REMARK                            x       y       z     vdW  Elec       q    Type
REMARK                         _______ _______ _______ _____ _____    ______ ____
ROOT
ATOM      1  C   LIG    1       17.987  48.008  15.415  0.00  0.00    +0.015 C 
ATOM      2  C   LIG    1       17.795  46.475  15.605  0.00  0.00    +0.021 C 
ATOM      3  C   LIG    1       16.855  48.417  14.431  0.00  0.00    +0.021 C 
ENDROOT
BRANCH   1   7
ATOM      4  C   LIG    1       21.781  48.980  13.488  0.00  0.00    +0.117 A 
ATOM      5  C   LIG    1       20.907  50.004  13.820  0.00  0.00    +0.046 A 
ATOM      6  C   LIG    1       19.694  49.714  14.456  0.00  0.00    +0.008 A 
ATOM      7  C   LIG    1       19.341  48.390  14.770  0.00  0.00    -0.037 A 
ATOM      8  C   LIG    1       20.259  47.374  14.426  0.00  0.00    +0.008 A 
ATOM      9  C   LIG    1       21.471  47.662  13.791  0.00  0.00    +0.046 A 
BRANCH   4  10
ATOM     10  O   LIG    1       22.940  49.307  12.852  0.00  0.00    -0.507 OA
ATOM     11  H   LIG    1       23.633  49.430  13.521  0.00  0.00    +0.292 HD
ENDBRANCH   4  10
ENDBRANCH   1   7
BRANCH   1  12
ATOM     12  C   LIG    1       17.880  48.697  16.799  0.00  0.00    -0.037 A 
ATOM     13  C   LIG    1       17.275  49.967  16.907  0.00  0.00    +0.008 A 
ATOM     14  C   LIG    1       17.088  50.583  18.147  0.00  0.00    +0.046 A 
ATOM     15  C   LIG    1       17.482  49.930  19.303  0.00  0.00    +0.117 A 
ATOM     16  C   LIG    1       18.080  48.679  19.238  0.00  0.00    +0.046 A 
ATOM     17  C   LIG    1       18.282  48.070  17.993  0.00  0.00    +0.008 A 
BRANCH  15  18
ATOM     18  O   LIG    1       17.247  50.547  20.495  0.00  0.00    -0.507 OA
ATOM     19  H   LIG    1       16.295  50.728  20.566  0.00  0.00    +0.292 HD
ENDBRANCH  15  18
ENDBRANCH   1  12
TORSDOF 4
ENDMDL
MODEL 2
REMARK VINA RESULT:      -8.2      0.040      5.765
REMARK  Name = 
REMARK                            x       y       z     vdW  Elec       q    Type
REMARK                         _______ _______ _______ _____ _____    ______ ____
ROOT
ATOM      1  C   LIG    1       17.968  47.999  15.417  0.00  0.00    +0.015 C 
ATOM      2  C   LIG    1       16.840  48.392  14.421  0.00  0.00    +0.021 C 
ATOM      3  C   LIG    1       17.789  46.467  15.613  0.00  0.00    +0.021 C 
ENDROOT
BRANCH   1   7
ATOM      4  C   LIG    1       17.456  49.939  19.294  0.00  0.00    +0.117 A 
ATOM      5  C   LIG    1       18.017  48.673  19.238  0.00  0.00    +0.046 A 
ATOM      6  C   LIG    1       18.207  48.041  18.004  0.00  0.00    +0.008 A 
ATOM      7  C   LIG    1       17.838  48.675  16.804  0.00  0.00    -0.037 A 
ATOM      8  C   LIG    1       17.279  49.968  16.898  0.00  0.00    +0.008 A 
ATOM      9  C   LIG    1       17.089  50.599  18.130  0.00  0.00    +0.046 A 
BRANCH   4  10
ATOM     10  O   LIG    1       17.271  50.506  20.518  0.00  0.00    -0.507 OA
ATOM     11  H   LIG    1       16.340  50.770  20.598  0.00  0.00    +0.292 HD
ENDBRANCH   4  10
ENDBRANCH   1   7
BRANCH   1  12
ATOM     12  C   LIG    1       19.335  48.386  14.798  0.00  0.00    -0.037 A 
ATOM     13  C   LIG    1       20.257  47.378  14.444  0.00  0.00    +0.008 A 
ATOM     14  C   LIG    1       21.464  47.684  13.811  0.00  0.00    +0.046 A 
ATOM     15  C   LIG    1       21.760  49.001  13.499  0.00  0.00    +0.117 A 
ATOM     16  C   LIG    1       20.878  50.020  13.830  0.00  0.00    +0.046 A 
ATOM     17  C   LIG    1       19.676  49.714  14.481  0.00  0.00    +0.008 A 
BRANCH  15  18
ATOM     18  O   LIG    1       22.929  49.254  12.846  0.00  0.00    -0.507 OA
ATOM     19  H   LIG    1       23.311  48.408  12.558  0.00  0.00    +0.292 HD
ENDBRANCH  15  18
ENDBRANCH   1  12
TORSDOF 4
ENDMDL
MODEL 3
REMARK VINA RESULT:      -8.1      0.143      1.176
REMARK  Name = 
REMARK                            x       y       z     vdW  Elec       q    Type
REMARK                         _______ _______ _______ _____ _____    ______ ____
ROOT
ATOM      1  C   LIG    1       17.903  47.929  15.454  0.00  0.00    +0.015 C 
ATOM      2  C   LIG    1       17.709  46.402  15.675  0.00  0.00    +0.021 C 
ATOM      3  C   LIG    1       16.760  48.323  14.477  0.00  0.00    +0.021 C 
ENDROOT
BRANCH   1   7
ATOM      4  C   LIG    1       21.723  49.066  13.676  0.00  0.00    +0.117 A 
ATOM      5  C   LIG    1       21.454  47.726  13.902  0.00  0.00    +0.046 A 
ATOM      6  C   LIG    1       20.227  47.339  14.454  0.00  0.00    +0.008 A 
ATOM      7  C   LIG    1       19.250  48.295  14.785  0.00  0.00    -0.037 A 
ATOM      8  C   LIG    1       19.555  49.650  14.531  0.00  0.00    +0.008 A 
ATOM      9  C   LIG    1       20.780  50.037  13.980  0.00  0.00    +0.046 A 
BRANCH   4  10
ATOM     10  O   LIG    1       22.938  49.398  13.156  0.00  0.00    -0.507 OA
ATOM     11  H   LIG    1       23.628  48.984  13.700  0.00  0.00    +0.292 HD
ENDBRANCH   4  10
ENDBRANCH   1   7
BRANCH   1  12
ATOM     12  C   LIG    1       17.815  48.645  16.826  0.00  0.00    -0.037 A 
ATOM     13  C   LIG    1       17.272  49.944  16.907  0.00  0.00    +0.008 A 
ATOM     14  C   LIG    1       17.102  50.589  18.135  0.00  0.00    +0.046 A 
ATOM     15  C   LIG    1       17.451  49.935  19.306  0.00  0.00    +0.117 A 
ATOM     16  C   LIG    1       17.987  48.655  19.267  0.00  0.00    +0.046 A 
ATOM     17  C   LIG    1       18.173  48.018  18.034  0.00  0.00    +0.008 A 
BRANCH  15  18
ATOM     18  O   LIG    1       17.234  50.581  20.486  0.00  0.00    -0.507 OA
ATOM     19  H   LIG    1       17.981  50.400  21.079  0.00  0.00    +0.292 HD
ENDBRANCH  15  18
ENDBRANCH   1  12
TORSDOF 4
ENDMDL
MODEL 4
REMARK VINA RESULT:      -7.7      2.498      3.825
REMARK  Name = 
REMARK                            x       y       z     vdW  Elec       q    Type
REMARK                         _______ _______ _______ _____ _____    ______ ____
ROOT
ATOM      1  C   LIG    1       18.345  48.547  16.116  0.00  0.00    +0.015 C 
ATOM      2  C   LIG    1       17.766  49.862  16.712  0.00  0.00    +0.021 C 
ATOM      3  C   LIG    1       18.869  47.764  17.352  0.00  0.00    +0.021 C 
ENDROOT
BRANCH   1   7
ATOM      4  C   LIG    1       21.649  49.073  13.312  0.00  0.00    +0.117 A 
ATOM      5  C   LIG    1       20.960  50.187  13.764  0.00  0.00    +0.046 A 
ATOM      6  C   LIG    1       19.910  50.042  14.678  0.00  0.00    +0.008 A 
ATOM      7  C   LIG    1       19.537  48.772  15.153  0.00  0.00    -0.037 A 
ATOM      8  C   LIG    1       20.268  47.661  14.679  0.00  0.00    +0.008 A 
ATOM      9  C   LIG    1       21.316  47.805  13.767  0.00  0.00    +0.046 A 
BRANCH   4  10
ATOM     10  O   LIG    1       22.650  49.261  12.407  0.00  0.00    -0.507 OA
ATOM     11  H   LIG    1       22.254  49.346  11.524  0.00  0.00    +0.292 HD
ENDBRANCH   4  10
ENDBRANCH   1   7
BRANCH   1  12
ATOM     12  C   LIG    1       17.217  47.808  15.351  0.00  0.00    -0.037 A 
ATOM     13  C   LIG    1       16.606  48.419  14.237  0.00  0.00    +0.008 A 
ATOM     14  C   LIG    1       15.643  47.752  13.475  0.00  0.00    +0.046 A 
ATOM     15  C   LIG    1       15.292  46.452  13.802  0.00  0.00    +0.117 A 
ATOM     16  C   LIG    1       15.872  45.816  14.891  0.00  0.00    +0.046 A 
ATOM     17  C   LIG    1       16.824  46.493  15.664  0.00  0.00    +0.008 A 
BRANCH  15  18
ATOM     18  O   LIG    1       14.378  45.821  13.012  0.00  0.00    -0.507 OA
ATOM     19  H   LIG    1       13.944  46.486  12.452  0.00  0.00    +0.292 HD
ENDBRANCH  15  18
ENDBRANCH   1  12
TORSDOF 4
ENDMDL
MODEL 5
REMARK VINA RESULT:      -7.7      2.492      5.656
REMARK  Name = 
REMARK                            x       y       z     vdW  Elec       q    Type
REMARK                         _______ _______ _______ _____ _____    ______ ____
ROOT
ATOM      1  C   LIG    1       18.398  48.557  16.112  0.00  0.00    +0.015 C 
ATOM      2  C   LIG    1       18.915  47.774  17.352  0.00  0.00    +0.021 C 
ATOM      3  C   LIG    1       17.790  49.858  16.706  0.00  0.00    +0.021 C 
ENDROOT
BRANCH   1   7
ATOM      4  C   LIG    1       15.320  46.521  13.782  0.00  0.00    +0.117 A 
ATOM      5  C   LIG    1       15.912  45.860  14.847  0.00  0.00    +0.046 A 
ATOM      6  C   LIG    1       16.887  46.503  15.618  0.00  0.00    +0.008 A 
ATOM      7  C   LIG    1       17.281  47.821  15.331  0.00  0.00    -0.037 A 
ATOM      8  C   LIG    1       16.650  48.467  14.246  0.00  0.00    +0.008 A 
ATOM      9  C   LIG    1       15.676  47.826  13.476  0.00  0.00    +0.046 A 
BRANCH   4  10
ATOM     10  O   LIG    1       14.390  45.849  13.047  0.00  0.00    -0.507 OA
ATOM     11  H   LIG    1       13.527  45.945  13.482  0.00  0.00    +0.292 HD
ENDBRANCH   4  10
ENDBRANCH   1   7
BRANCH   1  12
ATOM     12  C   LIG    1       19.591  48.815  15.155  0.00  0.00    -0.037 A 
ATOM     13  C   LIG    1       20.336  47.729  14.651  0.00  0.00    +0.008 A 
ATOM     14  C   LIG    1       21.365  47.917  13.725  0.00  0.00    +0.046 A 
ATOM     15  C   LIG    1       21.651  49.193  13.269  0.00  0.00    +0.117 A 
ATOM     16  C   LIG    1       20.939  50.288  13.740  0.00  0.00    +0.046 A 
ATOM     17  C   LIG    1       19.920  50.099  14.682  0.00  0.00    +0.008 A 
BRANCH  15  18
ATOM     18  O   LIG    1       22.635  49.331  12.336  0.00  0.00    -0.507 OA
ATOM     19  H   LIG    1       22.719  50.272  12.113  0.00  0.00    +0.292 HD
ENDBRANCH  15  18
ENDBRANCH   1  12
TORSDOF 4
ENDMDL
MODEL 6
REMARK VINA RESULT:      -7.6      2.619      5.528
REMARK  Name = 
REMARK                            x       y       z     vdW  Elec       q    Type
REMARK                         _______ _______ _______ _____ _____    ______ ____
ROOT
ATOM      1  C   LIG    1       18.488  48.426  15.600  0.00  0.00    +0.015 C 
ATOM      2  C   LIG    1       19.663  47.411  15.703  0.00  0.00    +0.021 C 
ATOM      3  C   LIG    1       19.054  49.580  14.726  0.00  0.00    +0.021 C 
ENDROOT
BRANCH   1   7
ATOM      4  C   LIG    1       17.426  50.089  19.493  0.00  0.00    +0.117 A 
ATOM      5  C   LIG    1       17.098  50.791  18.344  0.00  0.00    +0.046 A 
ATOM      6  C   LIG    1       17.413  50.265  17.085  0.00  0.00    +0.008 A 
ATOM      7  C   LIG    1       18.061  49.024  16.963  0.00  0.00    -0.037 A 
ATOM      8  C   LIG    1       18.371  48.332  18.154  0.00  0.00    +0.008 A 
ATOM      9  C   LIG    1       18.057  48.856  19.411  0.00  0.00    +0.046 A 
BRANCH   4  10
ATOM     10  O   LIG    1       17.118  50.648  20.696  0.00  0.00    -0.507 OA
ATOM     11  H   LIG    1       17.140  49.952  21.373  0.00  0.00    +0.292 HD
ENDBRANCH   4  10
ENDBRANCH   1   7
BRANCH   1  12
ATOM     12  C   LIG    1       17.269  47.711  14.962  0.00  0.00    -0.037 A 
ATOM     13  C   LIG    1       16.494  48.377  13.990  0.00  0.00    +0.008 A 
ATOM     14  C   LIG    1       15.438  47.738  13.336  0.00  0.00    +0.046 A 
ATOM     15  C   LIG    1       15.153  46.414  13.626  0.00  0.00    +0.117 A 
ATOM     16  C   LIG    1       15.895  45.724  14.576  0.00  0.00    +0.046 A 
ATOM     17  C   LIG    1       16.941  46.372  15.244  0.00  0.00    +0.008 A 
BRANCH  15  18
ATOM     18  O   LIG    1       14.141  45.814  12.939  0.00  0.00    -0.507 OA
ATOM     19  H   LIG    1       14.473  44.982  12.565  0.00  0.00    +0.292 HD
ENDBRANCH  15  18
ENDBRANCH   1  12
TORSDOF 4
ENDMDL
MODEL 7
REMARK VINA RESULT:      -7.6      2.597      3.969
REMARK  Name = 
REMARK                            x       y       z     vdW  Elec       q    Type
REMARK                         _______ _______ _______ _____ _____    ______ ____
ROOT
ATOM      1  C   LIG    1       18.648  48.480  15.375  0.00  0.00    +0.015 C 
ATOM      2  C   LIG    1       19.245  49.654  14.547  0.00  0.00    +0.021 C 
ATOM      3  C   LIG    1       19.757  47.392  15.351  0.00  0.00    +0.021 C 
ENDROOT
BRANCH   1   7
ATOM      4  C   LIG    1       14.991  46.720  13.767  0.00  0.00    +0.117 A 
ATOM      5  C   LIG    1       15.364  47.993  13.367  0.00  0.00    +0.046 A 
ATOM      6  C   LIG    1       16.542  48.568  13.855  0.00  0.00    +0.008 A 
ATOM      7  C   LIG    1       17.367  47.869  14.755  0.00  0.00    -0.037 A 
ATOM      8  C   LIG    1       16.963  46.571  15.133  0.00  0.00    +0.008 A 
ATOM      9  C   LIG    1       15.786  45.996  14.645  0.00  0.00    +0.046 A 
BRANCH   4  10
ATOM     10  O   LIG    1       13.826  46.209  13.281  0.00  0.00    -0.507 OA
ATOM     11  H   LIG    1       13.228  46.044  14.028  0.00  0.00    +0.292 HD
ENDBRANCH   4  10
ENDBRANCH   1   7
BRANCH   1  12
ATOM     12  C   LIG    1       18.318  48.994  16.800  0.00  0.00    -0.037 A 
ATOM     13  C   LIG    1       17.536  50.156  16.965  0.00  0.00    +0.008 A 
ATOM     14  C   LIG    1       17.152  50.603  18.232  0.00  0.00    +0.046 A 
ATOM     15  C   LIG    1       17.524  49.882  19.354  0.00  0.00    +0.117 A 
ATOM     16  C   LIG    1       18.293  48.732  19.233  0.00  0.00    +0.046 A 
ATOM     17  C   LIG    1       18.692  48.296  17.963  0.00  0.00    +0.008 A 
BRANCH  15  18
ATOM     18  O   LIG    1       17.097  50.329  20.569  0.00  0.00    -0.507 OA
ATOM     19  H   LIG    1       17.099  51.300  20.558  0.00  0.00    +0.292 HD
ENDBRANCH  15  18
ENDBRANCH   1  12
TORSDOF 4
ENDMDL
MODEL 8
REMARK VINA RESULT:      -7.3      1.841      2.251
REMARK  Name = 
REMARK                            x       y       z     vdW  Elec       q    Type
REMARK                         _______ _______ _______ _____ _____    ______ ____
ROOT
ATOM      1  C   LIG    1       17.650  47.780  15.561  0.00  0.00    +0.015 C 
ATOM      2  C   LIG    1       17.459  46.298  15.127  0.00  0.00    +0.021 C 
ATOM      3  C   LIG    1       16.957  48.601  14.438  0.00  0.00    +0.021 C 
ENDROOT
BRANCH   1   7
ATOM      4  C   LIG    1       21.789  49.160  15.694  0.00  0.00    +0.117 A 
ATOM      5  C   LIG    1       21.230  48.583  16.823  0.00  0.00    +0.046 A 
ATOM      6  C   LIG    1       19.911  48.117  16.795  0.00  0.00    +0.008 A 
ATOM      7  C   LIG    1       19.133  48.221  15.629  0.00  0.00    -0.037 A 
ATOM      8  C   LIG    1       19.737  48.805  14.494  0.00  0.00    +0.008 A 
ATOM      9  C   LIG    1       21.055  49.271  14.521  0.00  0.00    +0.046 A 
BRANCH   4  10
ATOM     10  O   LIG    1       23.070  49.618  15.773  0.00  0.00    -0.507 OA
ATOM     11  H   LIG    1       23.468  49.570  14.889  0.00  0.00    +0.292 HD
ENDBRANCH   4  10
ENDBRANCH   1   7
BRANCH   1  12
ATOM     12  C   LIG    1       17.005  47.976  16.956  0.00  0.00    -0.037 A 
ATOM     13  C   LIG    1       16.451  46.872  17.637  0.00  0.00    +0.008 A 
ATOM     14  C   LIG    1       15.933  46.995  18.929  0.00  0.00    +0.046 A 
ATOM     15  C   LIG    1       15.981  48.222  19.571  0.00  0.00    +0.117 A 
ATOM     16  C   LIG    1       16.519  49.332  18.935  0.00  0.00    +0.046 A 
ATOM     17  C   LIG    1       17.022  49.210  17.633  0.00  0.00    +0.008 A 
BRANCH  15  18
ATOM     18  O   LIG    1       15.502  48.293  20.845  0.00  0.00    -0.507 OA
ATOM     19  H   LIG    1       15.885  49.074  21.276  0.00  0.00    +0.292 HD
ENDBRANCH  15  18
ENDBRANCH   1  12
TORSDOF 4
ENDMDL
MODEL 9
REMARK VINA RESULT:      -6.2      2.036      6.102
REMARK  Name = 
REMARK                            x       y       z     vdW  Elec       q    Type
REMARK                         _______ _______ _______ _____ _____    ______ ____
ROOT
ATOM      1  C   LIG    1       20.105  49.360  16.652  0.00  0.00    +0.015 C 
ATOM      2  C   LIG    1       21.372  49.538  17.537  0.00  0.00    +0.021 C 
ATOM      3  C   LIG    1       19.668  50.812  16.311  0.00  0.00    +0.021 C 
ENDROOT
BRANCH   1   7
ATOM      4  C   LIG    1       16.728  47.371  18.575  0.00  0.00    +0.117 A 
ATOM      5  C   LIG    1       18.016  47.079  18.995  0.00  0.00    +0.046 A 
ATOM      6  C   LIG    1       19.111  47.720  18.405  0.00  0.00    +0.008 A 
ATOM      7  C   LIG    1       18.928  48.667  17.382  0.00  0.00    -0.037 A 
ATOM      8  C   LIG    1       17.602  48.948  16.987  0.00  0.00    +0.008 A 
ATOM      9  C   LIG    1       16.508  48.308  17.576  0.00  0.00    +0.046 A 
BRANCH   4  10
ATOM     10  O   LIG    1       15.695  46.708  19.165  0.00  0.00    -0.507 OA
ATOM     11  H   LIG    1       15.075  47.363  19.526  0.00  0.00    +0.292 HD
ENDBRANCH   4  10
ENDBRANCH   1   7
BRANCH   1  12
ATOM     12  C   LIG    1       20.483  48.521  15.405  0.00  0.00    -0.037 A 
ATOM     13  C   LIG    1       21.557  48.925  14.585  0.00  0.00    +0.008 A 
ATOM     14  C   LIG    1       21.978  48.152  13.500  0.00  0.00    +0.046 A 
ATOM     15  C   LIG    1       21.346  46.949  13.230  0.00  0.00    +0.117 A 
ATOM     16  C   LIG    1       20.285  46.517  14.014  0.00  0.00    +0.046 A 
ATOM     17  C   LIG    1       19.854  47.302  15.091  0.00  0.00    +0.008 A 
BRANCH  15  18
ATOM     18  O   LIG    1       21.811  46.206  12.186  0.00  0.00    -0.507 OA
ATOM     19  H   LIG    1       21.743  45.266  12.423  0.00  0.00    +0.292 HD
ENDBRANCH  15  18
ENDBRANCH   1  12
TORSDOF 4
ENDMDL
