REMARK  Name = 
REMARK                            x       y       z     vdW  Elec       q    Type
REMARK                         _______ _______ _______ _____ _____    ______ ____
ROOT
ATOM      1  C   LIG    1        6.599   0.214  -0.640  0.00  0.00    +0.015 C 
ATOM      2  C   LIG    1        7.328  -1.160  -0.671  0.00  0.00    +0.021 C 
ATOM      3  C   LIG    1        7.291   0.989   0.516  0.00  0.00    +0.021 C 
ENDROOT
BRANCH   1   7
ATOM      4  C   LIG    1        2.316   0.018   0.177  0.00  0.00    +0.117 A 
ATOM      5  C   LIG    1        3.044  -1.158   0.091  0.00  0.00    +0.046 A 
ATOM      6  C   LIG    1        4.422  -1.116  -0.151  0.00  0.00    +0.008 A 
ATOM      7  C   LIG    1        5.090   0.111  -0.309  0.00  0.00    -0.037 A 
ATOM      8  C   LIG    1        4.319   1.289  -0.205  0.00  0.00    +0.008 A 
ATOM      9  C   LIG    1        2.943   1.248   0.037  0.00  0.00    +0.046 A 
BRANCH   4  10
ATOM     10  O   LIG    1        0.974  -0.072   0.394  0.00  0.00    -0.507 OA
ATOM     11  H   LIG    1        0.598   0.823   0.369  0.00  0.00    +0.292 HD
ENDBRANCH   4  10
ENDBRANCH   1   7
BRANCH   1  12
ATOM     12  C   LIG    1        6.763   0.895  -2.023  0.00  0.00    -0.037 A 
ATOM     13  C   LIG    1        6.402   0.200  -3.196  0.00  0.00    +0.008 A 
ATOM     14  C   LIG    1        6.460   0.809  -4.452  0.00  0.00    +0.046 A 
ATOM     15  C   LIG    1        6.858   2.132  -4.554  0.00  0.00    +0.117 A 
ATOM     16  C   LIG    1        7.220   2.850  -3.422  0.00  0.00    +0.046 A 
ATOM     17  C   LIG    1        7.178   2.232  -2.166  0.00  0.00    +0.008 A 
BRANCH  15  18
ATOM     18  O   LIG    1        6.864   2.702  -5.792  0.00  0.00    -0.507 OA
ATOM     19  H   LIG    1        7.084   3.643  -5.697  0.00  0.00    +0.292 HD
ENDBRANCH  15  18
ENDBRANCH   1  12
TORSDOF 4
