MODEL 1
REMARK VINA RESULT:      -6.5      0.000      0.000
REMARK  Name = 
REMARK                            x       y       z     vdW  Elec       q    Type
REMARK                         _______ _______ _______ _____ _____    ______ ____
ROOT
ATOM      1  O   LIG    1       -3.034  -3.625  17.543  0.00  0.00    -0.293 OA
ATOM      2  C   LIG    1       -3.895  -3.914  16.713  0.00  0.00    +0.157 C 
ATOM      3  C   LIG    1       -5.010  -2.965  16.302  0.00  0.00    +0.083 C 
ATOM      4  C   LIG    1       -6.225  -3.750  15.755  0.00  0.00    +0.043 C 
ATOM      5  C   LIG    1       -5.784  -4.683  14.648  0.00  0.00    -0.044 C 
ATOM      6  C   LIG    1       -6.464  -5.030  13.526  0.00  0.00    -0.055 C 
ATOM      7  C   LIG    1       -5.688  -5.746  12.418  0.00  0.00    +0.020 C 
ATOM      8  C   LIG    1       -4.195  -6.084  12.644  0.00  0.00    +0.013 C 
ATOM      9  C   LIG    1       -3.562  -5.082  13.579  0.00  0.00    +0.036 C 
ATOM     10  C   LIG    1       -6.362  -6.927  11.623  0.00  0.00    +0.006 C 
ATOM     11  C   LIG    1       -6.021  -8.001  10.559  0.00  0.00    +0.008 C 
ATOM     12  C   LIG    1       -6.732  -7.380   9.269  0.00  0.00    +0.049 C 
ATOM     13  C   LIG    1       -7.584  -6.155   9.833  0.00  0.00    +0.132 C 
ATOM     14  C   LIG    1       -7.870  -6.665  11.286  0.00  0.00    +0.012 C 
ATOM     15  C   LIG    1       -8.766  -7.974  11.191  0.00  0.00    +0.015 C 
ATOM     16  C   LIG    1       -8.577  -5.970  12.480  0.00  0.00    +0.023 C 
ATOM     17  C   LIG    1       -7.960  -4.815  13.290  0.00  0.00    +0.046 C 
ATOM     18  C   LIG    1       -4.393  -5.113  14.819  0.00  0.00    -0.041 C 
ATOM     19  C   LIG    1       -3.838  -5.255  16.034  0.00  0.00    +0.050 C 
ENDROOT
BRANCH  17  20
ATOM     20  C   LIG    1       -8.656  -3.547  12.764  0.00  0.00    -0.040 A 
ATOM     21  C   LIG    1       -7.957  -2.325  12.831  0.00  0.00    +0.006 A 
ATOM     22  C   LIG    1       -8.627  -1.093  13.009  0.00  0.00    +0.023 A 
ATOM     23  C   LIG    1      -10.021  -1.012  13.149  0.00  0.00    +0.029 A 
ATOM     24  C   LIG    1      -10.701  -2.221  12.937  0.00  0.00    +0.023 A 
ATOM     25  C   LIG    1      -10.040  -3.446  12.698  0.00  0.00    +0.006 A 
BRANCH  23  26
ATOM     26  N   LIG    1      -10.668   0.159  13.556  0.00  0.00    -0.336 N 
ATOM     27  C   LIG    1       -9.886   1.305  14.013  0.00  0.00    +0.129 C 
ATOM     28  C   LIG    1      -11.991   0.485  13.026  0.00  0.00    +0.129 C 
ENDBRANCH  23  26
ENDBRANCH  17  20
BRANCH  13  29
ATOM     29  C   LIG    1       -8.643  -5.714   8.960  0.00  0.00    -0.067 C 
ATOM     30  C   LIG    1       -9.650  -5.162   8.654  0.00  0.00    -0.103 C 
ATOM     31  C   LIG    1      -10.874  -4.490   8.282  0.00  0.00    +0.106 C 
ENDBRANCH  13  29
BRANCH  13  32
ATOM     32  O   LIG    1       -6.693  -5.021   9.791  0.00  0.00    -0.376 OA
ATOM     33  H   LIG    1       -5.790  -5.355   9.648  0.00  0.00    +0.211 HD
ENDBRANCH  13  32
TORSDOF 4
ENDMDL
MODEL 2
REMARK VINA RESULT:      -5.3     11.825     13.881
REMARK  Name = 
REMARK                            x       y       z     vdW  Elec       q    Type
REMARK                         _______ _______ _______ _____ _____    ______ ____
ROOT
ATOM      1  O   LIG    1       -5.499   8.308  14.315  0.00  0.00    -0.293 OA
ATOM      2  C   LIG    1       -6.416   8.395  13.501  0.00  0.00    +0.157 C 
ATOM      3  C   LIG    1       -6.193   8.460  11.997  0.00  0.00    +0.083 C 
ATOM      4  C   LIG    1       -7.386   9.150  11.295  0.00  0.00    +0.043 C 
ATOM      5  C   LIG    1       -8.682   8.472  11.688  0.00  0.00    -0.044 C 
ATOM      6  C   LIG    1       -9.785   8.269  10.924  0.00  0.00    -0.055 C 
ATOM      7  C   LIG    1      -10.844   7.299  11.451  0.00  0.00    +0.020 C 
ATOM      8  C   LIG    1      -10.639   6.640  12.835  0.00  0.00    +0.013 C 
ATOM      9  C   LIG    1       -9.167   6.499  13.140  0.00  0.00    +0.036 C 
ATOM     10  C   LIG    1      -12.374   7.629  11.266  0.00  0.00    +0.006 C 
ATOM     11  C   LIG    1      -13.770   7.098  11.678  0.00  0.00    +0.008 C 
ATOM     12  C   LIG    1      -14.253   6.435  10.306  0.00  0.00    +0.049 C 
ATOM     13  C   LIG    1      -13.162   6.891   9.235  0.00  0.00    +0.132 C 
ATOM     14  C   LIG    1      -12.709   8.250   9.867  0.00  0.00    +0.012 C 
ATOM     15  C   LIG    1      -13.949   9.244   9.862  0.00  0.00    +0.015 C 
ATOM     16  C   LIG    1      -11.598   9.244   9.438  0.00  0.00    +0.023 C 
ATOM     17  C   LIG    1      -10.091   8.970   9.599  0.00  0.00    +0.046 C 
ATOM     18  C   LIG    1       -8.601   7.875  13.024  0.00  0.00    -0.041 C 
ATOM     19  C   LIG    1       -7.837   8.404  13.994  0.00  0.00    +0.050 C 
ENDROOT
BRANCH  17  20
ATOM     20  C   LIG    1       -9.608   8.571   8.192  0.00  0.00    -0.040 A 
ATOM     21  C   LIG    1       -8.364   7.923   8.072  0.00  0.00    +0.006 A 
ATOM     22  C   LIG    1       -7.546   8.085   6.931  0.00  0.00    +0.023 A 
ATOM     23  C   LIG    1       -7.912   8.915   5.860  0.00  0.00    +0.029 A 
ATOM     24  C   LIG    1       -9.213   9.435   5.941  0.00  0.00    +0.023 A 
ATOM     25  C   LIG    1      -10.059   9.225   7.052  0.00  0.00    +0.006 A 
BRANCH  23  26
ATOM     26  N   LIG    1       -7.018   9.266   4.843  0.00  0.00    -0.336 N 
ATOM     27  C   LIG    1       -5.586   9.340   5.122  0.00  0.00    +0.129 C 
ATOM     28  C   LIG    1       -7.365   9.011   3.445  0.00  0.00    +0.129 C 
ENDBRANCH  23  26
ENDBRANCH  17  20
BRANCH  13  29
ATOM     29  C   LIG    1      -13.598   6.798   7.864  0.00  0.00    -0.067 C 
ATOM     30  C   LIG    1      -13.653   7.085   6.711  0.00  0.00    -0.103 C 
ATOM     31  C   LIG    1      -13.719   7.433   5.311  0.00  0.00    +0.106 C 
ENDBRANCH  13  29
BRANCH  13  32
ATOM     32  O   LIG    1      -12.141   5.873   9.276  0.00  0.00    -0.376 OA
ATOM     33  H   LIG    1      -11.313   6.265   8.948  0.00  0.00    +0.211 HD
ENDBRANCH  13  32
TORSDOF 4
ENDMDL
MODEL 3
REMARK VINA RESULT:      -5.0     10.927     13.475
REMARK  Name = 
REMARK                            x       y       z     vdW  Elec       q    Type
REMARK                         _______ _______ _______ _____ _____    ______ ____
ROOT
ATOM      1  O   LIG    1       -8.279   9.176  20.723  0.00  0.00    -0.293 OA
ATOM      2  C   LIG    1       -8.955   9.050  19.704  0.00  0.00    +0.157 C 
ATOM      3  C   LIG    1       -8.379   9.154  18.301  0.00  0.00    +0.083 C 
ATOM      4  C   LIG    1       -9.475   9.554  17.285  0.00  0.00    +0.043 C 
ATOM      5  C   LIG    1      -10.650   8.604  17.390  0.00  0.00    -0.044 C 
ATOM      6  C   LIG    1      -11.452   8.153  16.392  0.00  0.00    -0.055 C 
ATOM      7  C   LIG    1      -12.374   6.973  16.702  0.00  0.00    +0.020 C 
ATOM      8  C   LIG    1      -12.389   6.385  18.132  0.00  0.00    +0.013 C 
ATOM      9  C   LIG    1      -11.048   6.580  18.797  0.00  0.00    +0.036 C 
ATOM     10  C   LIG    1      -13.841   6.949  16.127  0.00  0.00    +0.006 C 
ATOM     11  C   LIG    1      -15.146   6.119  16.215  0.00  0.00    +0.008 C 
ATOM     12  C   LIG    1      -15.110   5.356  14.810  0.00  0.00    +0.049 C 
ATOM     13  C   LIG    1      -13.910   6.041  14.015  0.00  0.00    +0.132 C 
ATOM     14  C   LIG    1      -13.937   7.470  14.653  0.00  0.00    +0.012 C 
ATOM     15  C   LIG    1      -15.320   8.160  14.281  0.00  0.00    +0.015 C 
ATOM     16  C   LIG    1      -12.995   8.687  14.448  0.00  0.00    +0.023 C 
ATOM     17  C   LIG    1      -11.556   8.760  14.992  0.00  0.00    +0.046 C 
ATOM     18  C   LIG    1      -10.783   8.048  18.739  0.00  0.00    -0.041 C 
ATOM     19  C   LIG    1      -10.422   8.741  19.832  0.00  0.00    +0.050 C 
ENDROOT
BRANCH  17  20
ATOM     20  C   LIG    1      -10.658   8.472  13.774  0.00  0.00    -0.040 A 
ATOM     21  C   LIG    1      -11.049   8.984  12.521  0.00  0.00    +0.006 A 
ATOM     22  C   LIG    1      -10.744   8.314  11.315  0.00  0.00    +0.023 A 
ATOM     23  C   LIG    1      -10.053   7.093  11.290  0.00  0.00    +0.029 A 
ATOM     24  C   LIG    1       -9.554   6.679  12.535  0.00  0.00    +0.023 A 
ATOM     25  C   LIG    1       -9.804   7.378  13.737  0.00  0.00    +0.006 A 
BRANCH  23  26
ATOM     26  N   LIG    1       -9.952   6.310  10.136  0.00  0.00    -0.336 N 
ATOM     27  C   LIG    1       -8.921   6.604   9.143  0.00  0.00    +0.129 C 
ATOM     28  C   LIG    1      -10.424   4.926  10.148  0.00  0.00    +0.129 C 
ENDBRANCH  23  26
ENDBRANCH  17  20
BRANCH  13  29
ATOM     29  C   LIG    1      -13.953   5.845  12.587  0.00  0.00    -0.067 C 
ATOM     30  C   LIG    1      -13.855   6.137  11.439  0.00  0.00    -0.103 C 
ATOM     31  C   LIG    1      -13.735   6.492  10.043  0.00  0.00    +0.106 C 
ENDBRANCH  13  29
BRANCH  13  32
ATOM     32  O   LIG    1      -12.737   5.279  14.369  0.00  0.00    -0.376 OA
ATOM     33  H   LIG    1      -13.017   4.367  14.559  0.00  0.00    +0.211 HD
ENDBRANCH  13  32
TORSDOF 4
ENDMDL
MODEL 4
REMARK VINA RESULT:      -5.0     12.339     15.303
REMARK  Name = 
REMARK                            x       y       z     vdW  Elec       q    Type
REMARK                         _______ _______ _______ _____ _____    ______ ____
ROOT
ATOM      1  O   LIG    1      -14.103   5.577  13.032  0.00  0.00    -0.293 OA
ATOM      2  C   LIG    1      -14.370   5.522  14.231  0.00  0.00    +0.157 C 
ATOM      3  C   LIG    1      -15.076   4.338  14.875  0.00  0.00    +0.083 C 
ATOM      4  C   LIG    1      -15.796   4.769  16.173  0.00  0.00    +0.043 C 
ATOM      5  C   LIG    1      -14.824   5.472  17.098  0.00  0.00    -0.044 C 
ATOM      6  C   LIG    1      -14.781   5.431  18.454  0.00  0.00    -0.055 C 
ATOM      7  C   LIG    1      -13.528   5.978  19.140  0.00  0.00    +0.020 C 
ATOM      8  C   LIG    1      -12.403   6.592  18.274  0.00  0.00    +0.013 C 
ATOM      9  C   LIG    1      -12.382   5.953  16.906  0.00  0.00    +0.036 C 
ATOM     10  C   LIG    1      -13.662   6.815  20.468  0.00  0.00    +0.006 C 
ATOM     11  C   LIG    1      -12.798   7.648  21.449  0.00  0.00    +0.008 C 
ATOM     12  C   LIG    1      -12.685   6.635  22.680  0.00  0.00    +0.049 C 
ATOM     13  C   LIG    1      -13.703   5.459  22.325  0.00  0.00    +0.132 C 
ATOM     14  C   LIG    1      -14.738   6.246  21.454  0.00  0.00    +0.012 C 
ATOM     15  C   LIG    1      -15.441   7.336  22.371  0.00  0.00    +0.015 C 
ATOM     16  C   LIG    1      -15.981   5.750  20.668  0.00  0.00    +0.023 C 
ATOM     17  C   LIG    1      -15.904   4.932  19.365  0.00  0.00    +0.046 C 
ATOM     18  C   LIG    1      -13.755   6.144  16.354  0.00  0.00    -0.041 C 
ATOM     19  C   LIG    1      -13.956   6.655  15.128  0.00  0.00    +0.050 C 
ENDROOT
BRANCH  17  20
ATOM     20  C   LIG    1      -16.194   3.482  19.791  0.00  0.00    -0.040 A 
ATOM     21  C   LIG    1      -17.299   3.241  20.632  0.00  0.00    +0.006 A 
ATOM     22  C   LIG    1      -17.305   2.184  21.569  0.00  0.00    +0.023 A 
ATOM     23  C   LIG    1      -16.209   1.324  21.735  0.00  0.00    +0.029 A 
ATOM     24  C   LIG    1      -15.183   1.495  20.793  0.00  0.00    +0.023 A 
ATOM     25  C   LIG    1      -15.199   2.512  19.812  0.00  0.00    +0.006 A 
BRANCH  23  26
ATOM     26  N   LIG    1      -16.109   0.432  22.808  0.00  0.00    -0.336 N 
ATOM     27  C   LIG    1      -14.812   0.187  23.435  0.00  0.00    +0.129 C 
ATOM     28  C   LIG    1      -17.268   0.188  23.665  0.00  0.00    +0.129 C 
ENDBRANCH  23  26
ENDBRANCH  17  20
BRANCH  13  29
ATOM     29  C   LIG    1      -14.110   4.662  23.455  0.00  0.00    -0.067 C 
ATOM     30  C   LIG    1      -14.859   4.070  24.164  0.00  0.00    -0.103 C 
ATOM     31  C   LIG    1      -15.769   3.350  25.024  0.00  0.00    +0.106 C 
ENDBRANCH  13  29
BRANCH  13  32
ATOM     32  O   LIG    1      -12.929   4.503  21.570  0.00  0.00    -0.376 OA
ATOM     33  H   LIG    1      -12.201   4.193  22.136  0.00  0.00    +0.211 HD
ENDBRANCH  13  32
TORSDOF 4
ENDMDL
MODEL 5
REMARK VINA RESULT:      -4.9     11.668     14.171
REMARK  Name = 
REMARK                            x       y       z     vdW  Elec       q    Type
REMARK                         _______ _______ _______ _____ _____    ______ ____
ROOT
ATOM      1  O   LIG    1       -8.711   9.062   3.244  0.00  0.00    -0.293 OA
ATOM      2  C   LIG    1       -9.074   8.935   4.411  0.00  0.00    +0.157 C 
ATOM      3  C   LIG    1      -10.398   8.301   4.810  0.00  0.00    +0.083 C 
ATOM      4  C   LIG    1      -10.850   8.802   6.201  0.00  0.00    +0.043 C 
ATOM      5  C   LIG    1       -9.745   8.587   7.214  0.00  0.00    -0.044 C 
ATOM      6  C   LIG    1       -9.865   8.256   8.525  0.00  0.00    -0.055 C 
ATOM      7  C   LIG    1       -8.602   7.801   9.260  0.00  0.00    +0.020 C 
ATOM      8  C   LIG    1       -7.254   7.788   8.502  0.00  0.00    +0.013 C 
ATOM      9  C   LIG    1       -7.480   7.553   7.027  0.00  0.00    +0.036 C 
ATOM     10  C   LIG    1       -8.347   8.265  10.744  0.00  0.00    +0.006 C 
ATOM     11  C   LIG    1       -7.259   8.203  11.845  0.00  0.00    +0.008 C 
ATOM     12  C   LIG    1       -7.881   7.098  12.818  0.00  0.00    +0.049 C 
ATOM     13  C   LIG    1       -9.354   6.856  12.258  0.00  0.00    +0.132 C 
ATOM     14  C   LIG    1       -9.642   8.260  11.626  0.00  0.00    +0.012 C 
ATOM     15  C   LIG    1       -9.656   9.341  12.790  0.00  0.00    +0.015 C 
ATOM     16  C   LIG    1      -10.856   8.769  10.805  0.00  0.00    +0.023 C 
ATOM     17  C   LIG    1      -11.148   8.349   9.352  0.00  0.00    +0.046 C 
ATOM     18  C   LIG    1       -8.419   8.627   6.591  0.00  0.00    -0.041 C 
ATOM     19  C   LIG    1       -8.162   9.392   5.517  0.00  0.00    +0.050 C 
ENDROOT
BRANCH  17  20
ATOM     20  C   LIG    1      -12.273   7.304   9.462  0.00  0.00    -0.040 A 
ATOM     21  C   LIG    1      -13.065   7.054   8.323  0.00  0.00    +0.006 A 
ATOM     22  C   LIG    1      -14.422   6.675   8.429  0.00  0.00    +0.023 A 
ATOM     23  C   LIG    1      -15.069   6.544   9.666  0.00  0.00    +0.029 A 
ATOM     24  C   LIG    1      -14.226   6.660  10.782  0.00  0.00    +0.023 A 
ATOM     25  C   LIG    1      -12.854   6.978  10.681  0.00  0.00    +0.006 A 
BRANCH  23  26
ATOM     26  N   LIG    1      -16.456   6.402   9.778  0.00  0.00    -0.336 N 
ATOM     27  C   LIG    1      -17.280   6.302   8.576  0.00  0.00    +0.129 C 
ATOM     28  C   LIG    1      -17.035   5.796  10.977  0.00  0.00    +0.129 C 
ENDBRANCH  23  26
ENDBRANCH  17  20
BRANCH  13  29
ATOM     29  C   LIG    1      -10.258   6.249  13.202  0.00  0.00    -0.067 C 
ATOM     30  C   LIG    1      -11.254   6.125  13.841  0.00  0.00    -0.103 C 
ATOM     31  C   LIG    1      -12.464   5.975  14.616  0.00  0.00    +0.106 C 
ENDBRANCH  13  29
BRANCH  13  32
ATOM     32  O   LIG    1       -9.221   5.805  11.279  0.00  0.00    -0.376 OA
ATOM     33  H   LIG    1      -10.025   5.260  11.313  0.00  0.00    +0.211 HD
ENDBRANCH  13  32
TORSDOF 4
ENDMDL
MODEL 6
REMARK VINA RESULT:      -4.5      8.828     13.800
REMARK  Name = 
REMARK                            x       y       z     vdW  Elec       q    Type
REMARK                         _______ _______ _______ _____ _____    ______ ____
ROOT
ATOM      1  O   LIG    1      -18.562   9.548  11.282  0.00  0.00    -0.293 OA
ATOM      2  C   LIG    1      -17.465   9.129  11.647  0.00  0.00    +0.157 C 
ATOM      3  C   LIG    1      -17.224   8.493  13.007  0.00  0.00    +0.083 C 
ATOM      4  C   LIG    1      -15.739   8.621  13.418  0.00  0.00    +0.043 C 
ATOM      5  C   LIG    1      -14.849   8.069  12.324  0.00  0.00    -0.044 C 
ATOM      6  C   LIG    1      -13.676   7.399  12.458  0.00  0.00    -0.055 C 
ATOM      7  C   LIG    1      -13.122   6.684  11.225  0.00  0.00    +0.020 C 
ATOM      8  C   LIG    1      -13.886   6.795   9.884  0.00  0.00    +0.013 C 
ATOM      9  C   LIG    1      -15.363   6.987  10.133  0.00  0.00    +0.036 C 
ATOM     10  C   LIG    1      -11.574   6.707  10.931  0.00  0.00    +0.006 C 
ATOM     11  C   LIG    1      -10.557   6.279   9.843  0.00  0.00    +0.008 C 
ATOM     12  C   LIG    1       -9.908   4.990  10.532  0.00  0.00    +0.049 C 
ATOM     13  C   LIG    1      -10.479   5.003  12.021  0.00  0.00    +0.132 C 
ATOM     14  C   LIG    1      -10.697   6.540  12.219  0.00  0.00    +0.012 C 
ATOM     15  C   LIG    1       -9.282   7.261  12.155  0.00  0.00    +0.015 C 
ATOM     16  C   LIG    1      -11.320   7.329  13.401  0.00  0.00    +0.023 C 
ATOM     17  C   LIG    1      -12.825   7.341  13.728  0.00  0.00    +0.046 C 
ATOM     18  C   LIG    1      -15.468   8.196  11.002  0.00  0.00    -0.041 C 
ATOM     19  C   LIG    1      -16.298   9.208  10.701  0.00  0.00    +0.050 C 
ENDROOT
BRANCH  17  20
ATOM     20  C   LIG    1      -12.979   6.379  14.919  0.00  0.00    -0.040 A 
ATOM     21  C   LIG    1      -14.243   5.802  15.153  0.00  0.00    +0.006 A 
ATOM     22  C   LIG    1      -14.682   5.474  16.456  0.00  0.00    +0.023 A 
ATOM     23  C   LIG    1      -13.900   5.719  17.594  0.00  0.00    +0.029 A 
ATOM     24  C   LIG    1      -12.595   6.161  17.323  0.00  0.00    +0.023 A 
ATOM     25  C   LIG    1      -12.129   6.432  16.017  0.00  0.00    +0.006 A 
BRANCH  23  26
ATOM     26  N   LIG    1      -14.410   5.620  18.893  0.00  0.00    -0.336 N 
ATOM     27  C   LIG    1      -13.509   5.705  20.040  0.00  0.00    +0.129 C 
ATOM     28  C   LIG    1      -15.796   5.999  19.165  0.00  0.00    +0.129 C 
ENDBRANCH  23  26
ENDBRANCH  17  20
BRANCH  13  29
ATOM     29  C   LIG    1       -9.716   4.217  12.958  0.00  0.00    -0.067 C 
ATOM     30  C   LIG    1       -9.530   3.479  13.872  0.00  0.00    -0.103 C 
ATOM     31  C   LIG    1       -9.304   2.582  14.982  0.00  0.00    +0.106 C 
ENDBRANCH  13  29
BRANCH  13  32
ATOM     32  O   LIG    1      -11.711   4.254  11.962  0.00  0.00    -0.376 OA
ATOM     33  H   LIG    1      -12.048   4.160  12.870  0.00  0.00    +0.211 HD
ENDBRANCH  13  32
TORSDOF 4
ENDMDL
MODEL 7
REMARK VINA RESULT:      -4.4     11.774     13.559
REMARK  Name = 
REMARK                            x       y       z     vdW  Elec       q    Type
REMARK                         _______ _______ _______ _____ _____    ______ ____
ROOT
ATOM      1  O   LIG    1      -13.116   7.549  20.604  0.00  0.00    -0.293 OA
ATOM      2  C   LIG    1      -12.782   7.375  19.434  0.00  0.00    +0.157 C 
ATOM      3  C   LIG    1      -13.747   6.919  18.349  0.00  0.00    +0.083 C 
ATOM      4  C   LIG    1      -12.987   6.226  17.195  0.00  0.00    +0.043 C 
ATOM      5  C   LIG    1      -11.882   7.127  16.685  0.00  0.00    -0.044 C 
ATOM      6  C   LIG    1      -11.439   7.267  15.410  0.00  0.00    -0.055 C 
ATOM      7  C   LIG    1      -10.525   8.455  15.103  0.00  0.00    +0.020 C 
ATOM      8  C   LIG    1      -10.111   9.402  16.253  0.00  0.00    +0.013 C 
ATOM      9  C   LIG    1      -11.180   9.438  17.318  0.00  0.00    +0.036 C 
ATOM     10  C   LIG    1       -9.300   8.273  14.128  0.00  0.00    +0.006 C 
ATOM     11  C   LIG    1       -8.070   9.051  13.595  0.00  0.00    +0.008 C 
ATOM     12  C   LIG    1       -8.562   9.411  12.118  0.00  0.00    +0.049 C 
ATOM     13  C   LIG    1       -9.911   8.581  11.932  0.00  0.00    +0.132 C 
ATOM     14  C   LIG    1       -9.625   7.374  12.887  0.00  0.00    +0.012 C 
ATOM     15  C   LIG    1       -8.385   6.563  12.312  0.00  0.00    +0.015 C 
ATOM     16  C   LIG    1      -10.524   6.181  13.306  0.00  0.00    +0.023 C 
ATOM     17  C   LIG    1      -11.729   6.305  14.256  0.00  0.00    +0.046 C 
ATOM     18  C   LIG    1      -11.379   8.019  17.733  0.00  0.00    -0.041 C 
ATOM     19  C   LIG    1      -11.361   7.655  19.027  0.00  0.00    +0.050 C 
ENDROOT
BRANCH  17  20
ATOM     20  C   LIG    1      -12.963   6.288  13.336  0.00  0.00    -0.040 A 
ATOM     21  C   LIG    1      -12.806   5.813  12.019  0.00  0.00    +0.006 A 
ATOM     22  C   LIG    1      -13.584   6.312  10.949  0.00  0.00    +0.023 A 
ATOM     23  C   LIG    1      -14.542   7.321  11.127  0.00  0.00    +0.029 A 
ATOM     24  C   LIG    1      -14.776   7.676  12.465  0.00  0.00    +0.023 A 
ATOM     25  C   LIG    1      -14.044   7.135  13.545  0.00  0.00    +0.006 A 
BRANCH  23  26
ATOM     26  N   LIG    1      -15.144   7.983  10.053  0.00  0.00    -0.336 N 
ATOM     27  C   LIG    1      -15.106   9.442   9.979  0.00  0.00    +0.129 C 
ATOM     28  C   LIG    1      -15.297   7.302   8.768  0.00  0.00    +0.129 C 
ENDBRANCH  23  26
ENDBRANCH  17  20
BRANCH  13  29
ATOM     29  C   LIG    1      -10.307   8.387  10.560  0.00  0.00    -0.067 C 
ATOM     30  C   LIG    1      -10.995   8.486   9.594  0.00  0.00    -0.103 C 
ATOM     31  C   LIG    1      -11.830   8.607   8.421  0.00  0.00    +0.106 C 
ENDBRANCH  13  29
BRANCH  13  32
ATOM     32  O   LIG    1      -10.960   9.450  12.408  0.00  0.00    -0.376 OA
ATOM     33  H   LIG    1      -11.632   9.521  11.708  0.00  0.00    +0.211 HD
ENDBRANCH  13  32
TORSDOF 4
ENDMDL
MODEL 8
REMARK VINA RESULT:      -4.2     12.540     15.310
REMARK  Name = 
REMARK                            x       y       z     vdW  Elec       q    Type
REMARK                         _______ _______ _______ _____ _____    ______ ____
ROOT
ATOM      1  O   LIG    1      -16.168   5.408  11.888  0.00  0.00    -0.293 OA
ATOM      2  C   LIG    1      -16.066   5.584  13.101  0.00  0.00    +0.157 C 
ATOM      3  C   LIG    1      -16.691   4.658  14.134  0.00  0.00    +0.083 C 
ATOM      4  C   LIG    1      -16.926   5.403  15.468  0.00  0.00    +0.043 C 
ATOM      5  C   LIG    1      -15.639   6.051  15.934  0.00  0.00    -0.044 C 
ATOM      6  C   LIG    1      -15.195   6.209  17.207  0.00  0.00    -0.055 C 
ATOM      7  C   LIG    1      -13.734   6.619  17.403  0.00  0.00    +0.020 C 
ATOM      8  C   LIG    1      -12.853   6.882  16.159  0.00  0.00    +0.013 C 
ATOM      9  C   LIG    1      -13.327   6.050  14.991  0.00  0.00    +0.036 C 
ATOM     10  C   LIG    1      -13.353   7.658  18.524  0.00  0.00    +0.006 C 
ATOM     11  C   LIG    1      -12.135   8.460  19.048  0.00  0.00    +0.008 C 
ATOM     12  C   LIG    1      -11.788   7.642  20.376  0.00  0.00    +0.049 C 
ATOM     13  C   LIG    1      -13.007   6.628  20.552  0.00  0.00    +0.132 C 
ATOM     14  C   LIG    1      -14.147   7.448  19.859  0.00  0.00    +0.012 C 
ATOM     15  C   LIG    1      -14.395   8.773  20.700  0.00  0.00    +0.015 C 
ATOM     16  C   LIG    1      -15.621   7.071  19.556  0.00  0.00    +0.023 C 
ATOM     17  C   LIG    1      -16.045   6.065  18.470  0.00  0.00    +0.046 C 
ATOM     18  C   LIG    1      -14.766   6.399  14.810  0.00  0.00    -0.041 C 
ATOM     19  C   LIG    1      -15.259   6.747  13.609  0.00  0.00    +0.050 C 
ENDROOT
BRANCH  17  20
ATOM     20  C   LIG    1      -16.378   4.772  19.237  0.00  0.00    -0.040 A 
ATOM     21  C   LIG    1      -16.592   4.856  20.627  0.00  0.00    +0.006 A 
ATOM     22  C   LIG    1      -16.266   3.791  21.496  0.00  0.00    +0.023 A 
ATOM     23  C   LIG    1      -15.691   2.597  21.036  0.00  0.00    +0.029 A 
ATOM     24  C   LIG    1      -15.619   2.484  19.638  0.00  0.00    +0.023 A 
ATOM     25  C   LIG    1      -16.002   3.522  18.760  0.00  0.00    +0.006 A 
BRANCH  23  26
ATOM     26  N   LIG    1      -15.151   1.640  21.901  0.00  0.00    -0.336 N 
ATOM     27  C   LIG    1      -15.998   0.573  22.429  0.00  0.00    +0.129 C 
ATOM     28  C   LIG    1      -13.724   1.329  21.846  0.00  0.00    +0.129 C 
ENDBRANCH  23  26
ENDBRANCH  17  20
BRANCH  13  29
ATOM     29  C   LIG    1      -13.153   6.099  21.884  0.00  0.00    -0.067 C 
ATOM     30  C   LIG    1      -13.078   5.294  22.757  0.00  0.00    -0.103 C 
ATOM     31  C   LIG    1      -12.986   4.317  23.817  0.00  0.00    +0.106 C 
ENDBRANCH  13  29
BRANCH  13  32
ATOM     32  O   LIG    1      -12.626   5.446  19.818  0.00  0.00    -0.376 OA
ATOM     33  H   LIG    1      -11.867   5.042  20.274  0.00  0.00    +0.211 HD
ENDBRANCH  13  32
TORSDOF 4
ENDMDL
MODEL 9
REMARK VINA RESULT:      -4.2      6.742     11.679
REMARK  Name = 
REMARK                            x       y       z     vdW  Elec       q    Type
REMARK                         _______ _______ _______ _____ _____    ______ ____
ROOT
ATOM      1  O   LIG    1      -10.469  -1.486  13.045  0.00  0.00    -0.293 OA
ATOM      2  C   LIG    1      -10.868  -0.324  12.995  0.00  0.00    +0.157 C 
ATOM      3  C   LIG    1      -12.261   0.100  13.433  0.00  0.00    +0.083 C 
ATOM      4  C   LIG    1      -12.684   1.409  12.727  0.00  0.00    +0.043 C 
ATOM      5  C   LIG    1      -11.630   2.476  12.939  0.00  0.00    -0.044 C 
ATOM      6  C   LIG    1      -11.813   3.811  13.100  0.00  0.00    -0.055 C 
ATOM      7  C   LIG    1      -10.623   4.635  13.598  0.00  0.00    +0.020 C 
ATOM      8  C   LIG    1       -9.270   3.928  13.845  0.00  0.00    +0.013 C 
ATOM      9  C   LIG    1       -9.489   2.484  14.225  0.00  0.00    +0.036 C 
ATOM     10  C   LIG    1      -10.349   6.064  12.994  0.00  0.00    +0.006 C 
ATOM     11  C   LIG    1       -9.296   7.200  13.043  0.00  0.00    +0.008 C 
ATOM     12  C   LIG    1      -10.056   8.272  13.953  0.00  0.00    +0.049 C 
ATOM     13  C   LIG    1      -11.536   7.695  14.100  0.00  0.00    +0.132 C 
ATOM     14  C   LIG    1      -11.654   6.898  12.757  0.00  0.00    +0.012 C 
ATOM     15  C   LIG    1      -11.573   7.930  11.552  0.00  0.00    +0.015 C 
ATOM     16  C   LIG    1      -12.787   5.984  12.221  0.00  0.00    +0.023 C 
ATOM     17  C   LIG    1      -13.094   4.580  12.774  0.00  0.00    +0.046 C 
ATOM     18  C   LIG    1      -10.296   1.897  13.115  0.00  0.00    -0.041 C 
ATOM     19  C   LIG    1       -9.934   0.752  12.512  0.00  0.00    +0.050 C 
ENDROOT
BRANCH  17  20
ATOM     20  C   LIG    1      -14.330   4.770  13.673  0.00  0.00    -0.040 A 
ATOM     21  C   LIG    1      -14.166   5.441  14.901  0.00  0.00    +0.006 A 
ATOM     22  C   LIG    1      -14.959   5.133  16.029  0.00  0.00    +0.023 A 
ATOM     23  C   LIG    1      -15.941   4.132  16.003  0.00  0.00    +0.029 A 
ATOM     24  C   LIG    1      -16.180   3.579  14.735  0.00  0.00    +0.023 A 
ATOM     25  C   LIG    1      -15.432   3.928  13.590  0.00  0.00    +0.006 A 
BRANCH  23  26
ATOM     26  N   LIG    1      -16.564   3.660  17.163  0.00  0.00    -0.336 N 
ATOM     27  C   LIG    1      -17.395   2.460  17.109  0.00  0.00    +0.129 C 
ATOM     28  C   LIG    1      -15.987   3.954  18.474  0.00  0.00    +0.129 C 
ENDBRANCH  23  26
ENDBRANCH  17  20
BRANCH  13  29
ATOM     29  C   LIG    1      -12.520   8.672  14.493  0.00  0.00    -0.067 C 
ATOM     30  C   LIG    1      -13.578   9.074  14.859  0.00  0.00    -0.103 C 
ATOM     31  C   LIG    1      -14.863   9.562  15.304  0.00  0.00    +0.106 C 
ENDBRANCH  13  29
BRANCH  13  32
ATOM     32  O   LIG    1      -11.499   6.847  15.267  0.00  0.00    -0.376 OA
ATOM     33  H   LIG    1      -10.724   6.263  15.189  0.00  0.00    +0.211 HD
ENDBRANCH  13  32
TORSDOF 4
ENDMDL
