MODEL 1
REMARK VINA RESULT:      -5.4      0.000      0.000
REMARK  Name = 
REMARK                            x       y       z     vdW  Elec       q    Type
REMARK                         _______ _______ _______ _____ _____    ______ ____
ROOT
ATOM      1  O   LIG    1       53.997  45.141  30.926  0.00  0.00    -0.293 OA
ATOM      2  C   LIG    1       55.183  45.463  30.932  0.00  0.00    +0.157 C 
ATOM      3  C   LIG    1       56.133  45.132  32.073  0.00  0.00    +0.083 C 
ATOM      4  C   LIG    1       57.318  46.125  32.107  0.00  0.00    +0.043 C 
ATOM      5  C   LIG    1       57.992  46.176  30.751  0.00  0.00    -0.044 C 
ATOM      6  C   LIG    1       59.312  46.335  30.479  0.00  0.00    -0.055 C 
ATOM      7  C   LIG    1       59.781  46.051  29.051  0.00  0.00    +0.020 C 
ATOM      8  C   LIG    1       58.737  45.651  27.982  0.00  0.00    +0.013 C 
ATOM      9  C   LIG    1       57.570  44.939  28.624  0.00  0.00    +0.036 C 
ATOM     10  C   LIG    1       60.865  46.977  28.381  0.00  0.00    +0.006 C 
ATOM     11  C   LIG    1       61.567  47.204  27.018  0.00  0.00    +0.008 C 
ATOM     12  C   LIG    1       63.004  46.569  27.314  0.00  0.00    +0.049 C 
ATOM     13  C   LIG    1       63.000  46.283  28.883  0.00  0.00    +0.132 C 
ATOM     14  C   LIG    1       62.011  47.399  29.362  0.00  0.00    +0.012 C 
ATOM     15  C   LIG    1       62.663  48.815  29.052  0.00  0.00    +0.015 C 
ATOM     16  C   LIG    1       61.433  47.699  30.770  0.00  0.00    +0.023 C 
ATOM     17  C   LIG    1       60.371  46.828  31.467  0.00  0.00    +0.046 C 
ATOM     18  C   LIG    1       57.055  45.875  29.666  0.00  0.00    -0.041 C 
ATOM     19  C   LIG    1       55.751  46.191  29.744  0.00  0.00    +0.050 C 
ENDROOT
BRANCH  17  20
ATOM     20  C   LIG    1       61.156  45.995  32.496  0.00  0.00    -0.040 A 
ATOM     21  C   LIG    1       61.010  46.310  33.862  0.00  0.00    +0.006 A 
ATOM     22  C   LIG    1       62.061  46.121  34.786  0.00  0.00    +0.023 A 
ATOM     23  C   LIG    1       63.318  45.630  34.402  0.00  0.00    +0.029 A 
ATOM     24  C   LIG    1       63.392  45.192  33.070  0.00  0.00    +0.023 A 
ATOM     25  C   LIG    1       62.323  45.322  32.156  0.00  0.00    +0.006 A 
BRANCH  23  26
ATOM     26  N   LIG    1       64.429  45.660  35.251  0.00  0.00    -0.336 N 
ATOM     27  C   LIG    1       65.766  45.419  34.713  0.00  0.00    +0.129 C 
ATOM     28  C   LIG    1       64.389  46.453  36.478  0.00  0.00    +0.129 C 
ENDBRANCH  23  26
ENDBRANCH  17  20
BRANCH  13  29
ATOM     29  C   LIG    1       64.310  46.129  29.463  0.00  0.00    -0.067 C 
ATOM     30  C   LIG    1       65.169  45.616  30.108  0.00  0.00    -0.103 C 
ATOM     31  C   LIG    1       66.211  44.994  30.891  0.00  0.00    +0.106 C 
ENDBRANCH  13  29
BRANCH  13  32
ATOM     32  O   LIG    1       62.469  44.950  29.025  0.00  0.00    -0.376 OA
ATOM     33  H   LIG    1       61.939  44.752  28.233  0.00  0.00    +0.211 HD
ENDBRANCH  13  32
TORSDOF 4
ENDMDL
MODEL 2
REMARK VINA RESULT:      -4.2      2.806      7.181
REMARK  Name = 
REMARK                            x       y       z     vdW  Elec       q    Type
REMARK                         _______ _______ _______ _____ _____    ______ ____
ROOT
ATOM      1  O   LIG    1       64.465  41.938  27.639  0.00  0.00    -0.293 OA
ATOM      2  C   LIG    1       64.080  42.817  28.408  0.00  0.00    +0.157 C 
ATOM      3  C   LIG    1       62.689  43.429  28.347  0.00  0.00    +0.083 C 
ATOM      4  C   LIG    1       62.684  44.844  28.973  0.00  0.00    +0.043 C 
ATOM      5  C   LIG    1       63.265  44.796  30.370  0.00  0.00    -0.044 C 
ATOM      6  C   LIG    1       62.898  45.526  31.454  0.00  0.00    -0.055 C 
ATOM      7  C   LIG    1       63.427  45.083  32.819  0.00  0.00    +0.020 C 
ATOM      8  C   LIG    1       64.384  43.870  32.898  0.00  0.00    +0.013 C 
ATOM      9  C   LIG    1       64.110  42.907  31.768  0.00  0.00    +0.036 C 
ATOM     10  C   LIG    1       63.886  46.162  33.872  0.00  0.00    +0.006 C 
ATOM     11  C   LIG    1       64.562  46.263  35.263  0.00  0.00    +0.008 C 
ATOM     12  C   LIG    1       63.303  46.618  36.182  0.00  0.00    +0.049 C 
ATOM     13  C   LIG    1       62.122  46.904  35.149  0.00  0.00    +0.132 C 
ATOM     14  C   LIG    1       62.949  47.416  33.922  0.00  0.00    +0.012 C 
ATOM     15  C   LIG    1       63.673  48.770  34.334  0.00  0.00    +0.015 C 
ATOM     16  C   LIG    1       62.496  47.808  32.490  0.00  0.00    +0.023 C 
ATOM     17  C   LIG    1       62.042  46.793  31.425  0.00  0.00    +0.046 C 
ATOM     18  C   LIG    1       64.239  43.711  30.518  0.00  0.00    -0.041 C 
ATOM     19  C   LIG    1       65.004  43.299  29.493  0.00  0.00    +0.050 C 
ENDROOT
BRANCH  17  20
ATOM     20  C   LIG    1       60.505  46.888  31.417  0.00  0.00    -0.040 A 
ATOM     21  C   LIG    1       59.788  46.199  32.415  0.00  0.00    +0.006 A 
ATOM     22  C   LIG    1       58.497  45.675  32.178  0.00  0.00    +0.023 A 
ATOM     23  C   LIG    1       57.860  45.789  30.933  0.00  0.00    +0.029 A 
ATOM     24  C   LIG    1       58.533  46.598  30.004  0.00  0.00    +0.023 A 
ATOM     25  C   LIG    1       59.796  47.177  30.258  0.00  0.00    +0.006 A 
BRANCH  23  26
ATOM     26  N   LIG    1       56.697  45.080  30.616  0.00  0.00    -0.336 N 
ATOM     27  C   LIG    1       55.539  45.141  31.505  0.00  0.00    +0.129 C 
ATOM     28  C   LIG    1       56.392  44.763  29.222  0.00  0.00    +0.129 C 
ENDBRANCH  23  26
ENDBRANCH  17  20
BRANCH  13  29
ATOM     29  C   LIG    1       61.024  47.662  35.695  0.00  0.00    -0.067 C 
ATOM     30  C   LIG    1       60.444  48.334  36.486  0.00  0.00    -0.103 C 
ATOM     31  C   LIG    1       59.741  49.152  37.447  0.00  0.00    +0.106 C 
ENDBRANCH  13  29
BRANCH  13  32
ATOM     32  O   LIG    1       61.497  45.624  34.922  0.00  0.00    -0.376 OA
ATOM     33  H   LIG    1       62.189  44.942  34.958  0.00  0.00    +0.211 HD
ENDBRANCH  13  32
TORSDOF 4
ENDMDL
MODEL 3
REMARK VINA RESULT:      -3.7      2.732      6.714
REMARK  Name = 
REMARK                            x       y       z     vdW  Elec       q    Type
REMARK                         _______ _______ _______ _____ _____    ______ ____
ROOT
ATOM      1  O   LIG    1       64.520  46.288  37.519  0.00  0.00    -0.293 OA
ATOM      2  C   LIG    1       64.097  46.086  36.382  0.00  0.00    +0.157 C 
ATOM      3  C   LIG    1       62.657  46.347  35.967  0.00  0.00    +0.083 C 
ATOM      4  C   LIG    1       62.271  45.478  34.748  0.00  0.00    +0.043 C 
ATOM      5  C   LIG    1       63.271  45.680  33.629  0.00  0.00    -0.044 C 
ATOM      6  C   LIG    1       63.039  45.690  32.292  0.00  0.00    -0.055 C 
ATOM      7  C   LIG    1       64.153  46.212  31.382  0.00  0.00    +0.020 C 
ATOM      8  C   LIG    1       65.494  46.653  32.013  0.00  0.00    +0.013 C 
ATOM      9  C   LIG    1       65.277  47.153  33.421  0.00  0.00    +0.036 C 
ATOM     10  C   LIG    1       64.447  45.497  30.009  0.00  0.00    +0.006 C 
ATOM     11  C   LIG    1       65.459  45.530  28.837  0.00  0.00    +0.008 C 
ATOM     12  C   LIG    1       64.587  46.254  27.710  0.00  0.00    +0.049 C 
ATOM     13  C   LIG    1       63.116  46.319  28.322  0.00  0.00    +0.132 C 
ATOM     14  C   LIG    1       63.149  45.057  29.249  0.00  0.00    +0.012 C 
ATOM     15  C   LIG    1       63.319  43.768  28.336  0.00  0.00    +0.015 C 
ATOM     16  C   LIG    1       62.097  44.511  30.250  0.00  0.00    +0.023 C 
ATOM     17  C   LIG    1       61.775  45.170  31.604  0.00  0.00    +0.046 C 
ATOM     18  C   LIG    1       64.597  46.036  34.141  0.00  0.00    -0.041 C 
ATOM     19  C   LIG    1       65.045  45.588  35.325  0.00  0.00    +0.050 C 
ENDROOT
BRANCH  17  20
ATOM     20  C   LIG    1       60.454  45.926  31.372  0.00  0.00    -0.040 A 
ATOM     21  C   LIG    1       59.390  45.700  32.267  0.00  0.00    +0.006 A 
ATOM     22  C   LIG    1       58.040  45.775  31.854  0.00  0.00    +0.023 A 
ATOM     23  C   LIG    1       57.677  46.056  30.528  0.00  0.00    +0.029 A 
ATOM     24  C   LIG    1       58.747  46.414  29.693  0.00  0.00    +0.023 A 
ATOM     25  C   LIG    1       60.094  46.402  30.117  0.00  0.00    +0.006 A 
BRANCH  23  26
ATOM     26  N   LIG    1       56.369  45.902  30.058  0.00  0.00    -0.336 N 
ATOM     27  C   LIG    1       56.095  45.973  28.625  0.00  0.00    +0.129 C 
ATOM     28  C   LIG    1       55.398  45.135  30.837  0.00  0.00    +0.129 C 
ENDBRANCH  23  26
ENDBRANCH  17  20
BRANCH  13  29
ATOM     29  C   LIG    1       62.073  46.518  27.348  0.00  0.00    -0.067 C 
ATOM     30  C   LIG    1       61.042  46.317  26.791  0.00  0.00    -0.103 C 
ATOM     31  C   LIG    1       59.789  46.071  26.115  0.00  0.00    +0.106 C 
ENDBRANCH  13  29
BRANCH  13  32
ATOM     32  O   LIG    1       63.063  47.562  29.052  0.00  0.00    -0.376 OA
ATOM     33  H   LIG    1       63.905  47.667  29.528  0.00  0.00    +0.211 HD
ENDBRANCH  13  32
TORSDOF 4
ENDMDL
