MODEL 1
REMARK VINA RESULT:     -10.3      0.000      0.000
REMARK  Name = 
REMARK                            x       y       z     vdW  Elec       q    Type
REMARK                         _______ _______ _______ _____ _____    ______ ____
ROOT
ATOM      1  O   LIG    1       45.200  -2.352  19.410  0.00  0.00    -0.293 OA
ATOM      2  C   LIG    1       44.152  -2.044  18.846  0.00  0.00    +0.157 C 
ATOM      3  C   LIG    1       43.186  -1.003  19.391  0.00  0.00    +0.083 C 
ATOM      4  C   LIG    1       41.756  -1.248  18.855  0.00  0.00    +0.043 C 
ATOM      5  C   LIG    1       41.774  -1.327  17.342  0.00  0.00    -0.044 C 
ATOM      6  C   LIG    1       40.829  -0.892  16.471  0.00  0.00    -0.055 C 
ATOM      7  C   LIG    1       41.212  -0.811  14.992  0.00  0.00    +0.020 C 
ATOM      8  C   LIG    1       42.623  -1.269  14.554  0.00  0.00    +0.013 C 
ATOM      9  C   LIG    1       43.615  -1.069  15.675  0.00  0.00    +0.036 C 
ATOM     10  C   LIG    1       40.174  -1.237  13.886  0.00  0.00    +0.006 C 
ATOM     11  C   LIG    1       40.078  -1.450  12.354  0.00  0.00    +0.008 C 
ATOM     12  C   LIG    1       39.259  -0.146  11.922  0.00  0.00    +0.049 C 
ATOM     13  C   LIG    1       38.795   0.509  13.300  0.00  0.00    +0.132 C 
ATOM     14  C   LIG    1       38.711  -0.771  14.198  0.00  0.00    +0.012 C 
ATOM     15  C   LIG    1       37.574  -1.717  13.618  0.00  0.00    +0.015 C 
ATOM     16  C   LIG    1       38.407  -0.924  15.712  0.00  0.00    +0.023 C 
ATOM     17  C   LIG    1       39.388  -0.526  16.830  0.00  0.00    +0.046 C 
ATOM     18  C   LIG    1       43.059  -1.819  16.839  0.00  0.00    -0.041 C 
ATOM     19  C   LIG    1       43.807  -2.693  17.534  0.00  0.00    +0.050 C 
ENDROOT
BRANCH  17  20
ATOM     20  C   LIG    1       38.864   0.823  17.355  0.00  0.00    -0.040 A 
ATOM     21  C   LIG    1       37.475   1.054  17.332  0.00  0.00    +0.006 A 
ATOM     22  C   LIG    1       36.938   2.349  17.153  0.00  0.00    +0.023 A 
ATOM     23  C   LIG    1       37.750   3.478  16.968  0.00  0.00    +0.029 A 
ATOM     24  C   LIG    1       39.124   3.243  17.135  0.00  0.00    +0.023 A 
ATOM     25  C   LIG    1       39.663   1.960  17.375  0.00  0.00    +0.006 A 
BRANCH  23  26
ATOM     26  N   LIG    1       37.239   4.713  16.559  0.00  0.00    -0.336 N 
ATOM     27  C   LIG    1       35.865   5.082  16.894  0.00  0.00    +0.129 C 
ATOM     28  C   LIG    1       38.143   5.839  16.329  0.00  0.00    +0.129 C 
ENDBRANCH  23  26
ENDBRANCH  17  20
BRANCH  13  29
ATOM     29  C   LIG    1       37.691   1.428  13.180  0.00  0.00    -0.067 C 
ATOM     30  C   LIG    1       37.047   2.402  13.408  0.00  0.00    -0.103 C 
ATOM     31  C   LIG    1       36.266   3.585  13.685  0.00  0.00    +0.106 C 
ENDBRANCH  13  29
BRANCH  13  32
ATOM     32  O   LIG    1       39.865   1.401  13.676  0.00  0.00    -0.376 OA
ATOM     33  H   LIG    1       40.708   0.969  13.453  0.00  0.00    +0.211 HD
ENDBRANCH  13  32
TORSDOF 4
ENDMDL
MODEL 2
REMARK VINA RESULT:      -8.9      2.774      6.931
REMARK  Name = 
REMARK                            x       y       z     vdW  Elec       q    Type
REMARK                         _______ _______ _______ _____ _____    ______ ____
ROOT
ATOM      1  O   LIG    1       36.702   5.568  16.667  0.00  0.00    -0.293 OA
ATOM      2  C   LIG    1       37.444   4.620  16.418  0.00  0.00    +0.157 C 
ATOM      3  C   LIG    1       38.746   4.361  17.161  0.00  0.00    +0.083 C 
ATOM      4  C   LIG    1       39.718   3.531  16.291  0.00  0.00    +0.043 C 
ATOM      5  C   LIG    1       39.034   2.269  15.808  0.00  0.00    -0.044 C 
ATOM      6  C   LIG    1       39.579   1.040  15.623  0.00  0.00    -0.055 C 
ATOM      7  C   LIG    1       38.623  -0.137  15.420  0.00  0.00    +0.020 C 
ATOM      8  C   LIG    1       37.100   0.129  15.385  0.00  0.00    +0.013 C 
ATOM      9  C   LIG    1       36.755   1.336  16.223  0.00  0.00    +0.036 C 
ATOM     10  C   LIG    1       38.969  -1.258  14.368  0.00  0.00    +0.006 C 
ATOM     11  C   LIG    1       38.348  -2.521  13.719  0.00  0.00    +0.008 C 
ATOM     12  C   LIG    1       39.155  -3.673  14.478  0.00  0.00    +0.049 C 
ATOM     13  C   LIG    1       40.294  -2.901  15.283  0.00  0.00    +0.132 C 
ATOM     14  C   LIG    1       40.485  -1.652  14.358  0.00  0.00    +0.012 C 
ATOM     15  C   LIG    1       41.032  -2.148  12.951  0.00  0.00    +0.015 C 
ATOM     16  C   LIG    1       41.371  -0.390  14.533  0.00  0.00    +0.023 C 
ATOM     17  C   LIG    1       41.076   0.734  15.544  0.00  0.00    +0.046 C 
ATOM     18  C   LIG    1       37.585   2.450  15.679  0.00  0.00    -0.041 C 
ATOM     19  C   LIG    1       37.044   3.636  15.353  0.00  0.00    +0.050 C 
ENDROOT
BRANCH  17  20
ATOM     20  C   LIG    1       42.046   0.480  16.712  0.00  0.00    -0.040 A 
ATOM     21  C   LIG    1       43.403   0.247  16.414  0.00  0.00    +0.006 A 
ATOM     22  C   LIG    1       44.209  -0.589  17.220  0.00  0.00    +0.023 A 
ATOM     23  C   LIG    1       43.706  -1.251  18.350  0.00  0.00    +0.029 A 
ATOM     24  C   LIG    1       42.397  -0.891  18.704  0.00  0.00    +0.023 A 
ATOM     25  C   LIG    1       41.606  -0.008  17.936  0.00  0.00    +0.006 A 
BRANCH  23  26
ATOM     26  N   LIG    1       44.420  -2.254  19.013  0.00  0.00    -0.336 N 
ATOM     27  C   LIG    1       45.336  -3.113  18.267  0.00  0.00    +0.129 C 
ATOM     28  C   LIG    1       44.722  -2.117  20.437  0.00  0.00    +0.129 C 
ENDBRANCH  23  26
ENDBRANCH  17  20
BRANCH  13  29
ATOM     29  C   LIG    1       41.405  -3.727  15.684  0.00  0.00    -0.067 C 
ATOM     30  C   LIG    1       42.536  -4.090  15.735  0.00  0.00    -0.103 C 
ATOM     31  C   LIG    1       43.911  -4.532  15.798  0.00  0.00    +0.106 C 
ENDBRANCH  13  29
BRANCH  13  32
ATOM     32  O   LIG    1       39.705  -2.580  16.561  0.00  0.00    -0.376 OA
ATOM     33  H   LIG    1       38.799  -2.264  16.403  0.00  0.00    +0.211 HD
ENDBRANCH  13  32
TORSDOF 4
ENDMDL
