MODEL 1
REMARK VINA RESULT:      -6.4      0.000      0.000
REMARK  Name = 
REMARK                            x       y       z     vdW  Elec       q    Type
REMARK                         _______ _______ _______ _____ _____    ______ ____
ROOT
ATOM      1  O   LIG    1       23.605  36.310   0.410  0.00  0.00    -0.293 OA
ATOM      2  C   LIG    1       24.060  35.307   0.957  0.00  0.00    +0.157 C 
ATOM      3  C   LIG    1       23.762  34.938   2.403  0.00  0.00    +0.083 C 
ATOM      4  C   LIG    1       24.880  34.039   2.980  0.00  0.00    +0.043 C 
ATOM      5  C   LIG    1       25.100  32.841   2.081  0.00  0.00    -0.044 C 
ATOM      6  C   LIG    1       25.426  31.573   2.441  0.00  0.00    -0.055 C 
ATOM      7  C   LIG    1       25.295  30.479   1.380  0.00  0.00    +0.020 C 
ATOM      8  C   LIG    1       24.851  30.867  -0.050  0.00  0.00    +0.013 C 
ATOM      9  C   LIG    1       23.969  32.091  -0.016  0.00  0.00    +0.036 C 
ATOM     10  C   LIG    1       26.382  29.343   1.284  0.00  0.00    +0.006 C 
ATOM     11  C   LIG    1       26.779  28.139   0.392  0.00  0.00    +0.008 C 
ATOM     12  C   LIG    1       26.294  26.919   1.304  0.00  0.00    +0.049 C 
ATOM     13  C   LIG    1       25.905  27.591   2.697  0.00  0.00    +0.132 C 
ATOM     14  C   LIG    1       26.865  28.828   2.683  0.00  0.00    +0.012 C 
ATOM     15  C   LIG    1       28.364  28.301   2.716  0.00  0.00    +0.015 C 
ATOM     16  C   LIG    1       27.001  30.013   3.676  0.00  0.00    +0.023 C 
ATOM     17  C   LIG    1       25.969  31.148   3.806  0.00  0.00    +0.046 C 
ATOM     18  C   LIG    1       24.767  33.139   0.685  0.00  0.00    -0.041 C 
ATOM     19  C   LIG    1       24.926  34.367   0.164  0.00  0.00    +0.050 C 
ENDROOT
BRANCH  17  20
ATOM     20  C   LIG    1       25.163  30.808   5.073  0.00  0.00    -0.040 A 
ATOM     21  C   LIG    1       25.776  30.009   6.059  0.00  0.00    +0.006 A 
ATOM     22  C   LIG    1       25.028  29.130   6.875  0.00  0.00    +0.023 A 
ATOM     23  C   LIG    1       23.640  28.983   6.742  0.00  0.00    +0.029 A 
ATOM     24  C   LIG    1       23.038  29.888   5.854  0.00  0.00    +0.023 A 
ATOM     25  C   LIG    1       23.774  30.813   5.080  0.00  0.00    +0.006 A 
BRANCH  23  26
ATOM     26  N   LIG    1       22.929  27.957   7.373  0.00  0.00    -0.336 N 
ATOM     27  C   LIG    1       23.628  27.004   8.230  0.00  0.00    +0.129 C 
ATOM     28  C   LIG    1       21.507  28.128   7.668  0.00  0.00    +0.129 C 
ENDBRANCH  23  26
ENDBRANCH  17  20
BRANCH  13  29
ATOM     29  C   LIG    1       25.862  26.675   3.809  0.00  0.00    -0.067 C 
ATOM     30  C   LIG    1       26.131  26.246   4.885  0.00  0.00    -0.103 C 
ATOM     31  C   LIG    1       26.458  25.725   6.192  0.00  0.00    +0.106 C 
ENDBRANCH  13  29
BRANCH  13  32
ATOM     32  O   LIG    1       24.512  27.947   2.571  0.00  0.00    -0.376 OA
ATOM     33  H   LIG    1       24.447  28.677   1.931  0.00  0.00    +0.211 HD
ENDBRANCH  13  32
TORSDOF 4
ENDMDL
MODEL 2
REMARK VINA RESULT:      -6.4      3.250      7.634
REMARK  Name = 
REMARK                            x       y       z     vdW  Elec       q    Type
REMARK                         _______ _______ _______ _____ _____    ______ ____
ROOT
ATOM      1  O   LIG    1       24.103  27.058   7.920  0.00  0.00    -0.293 OA
ATOM      2  C   LIG    1       24.541  27.866   7.103  0.00  0.00    +0.157 C 
ATOM      3  C   LIG    1       23.657  28.634   6.131  0.00  0.00    +0.083 C 
ATOM      4  C   LIG    1       24.463  29.075   4.887  0.00  0.00    +0.043 C 
ATOM      5  C   LIG    1       25.701  29.836   5.314  0.00  0.00    -0.044 C 
ATOM      6  C   LIG    1       26.290  30.889   4.692  0.00  0.00    -0.055 C 
ATOM      7  C   LIG    1       27.346  31.673   5.474  0.00  0.00    +0.020 C 
ATOM      8  C   LIG    1       27.727  31.207   6.899  0.00  0.00    +0.013 C 
ATOM      9  C   LIG    1       26.559  30.515   7.558  0.00  0.00    +0.036 C 
ATOM     10  C   LIG    1       28.644  32.187   4.743  0.00  0.00    +0.006 C 
ATOM     11  C   LIG    1       29.996  32.879   5.051  0.00  0.00    +0.008 C 
ATOM     12  C   LIG    1       29.703  34.357   4.516  0.00  0.00    +0.049 C 
ATOM     13  C   LIG    1       28.306  34.238   3.758  0.00  0.00    +0.132 C 
ATOM     14  C   LIG    1       28.366  32.741   3.304  0.00  0.00    +0.012 C 
ATOM     15  C   LIG    1       29.572  32.574   2.283  0.00  0.00    +0.015 C 
ATOM     16  C   LIG    1       27.311  31.861   2.581  0.00  0.00    +0.023 C 
ATOM     17  C   LIG    1       26.030  31.331   3.252  0.00  0.00    +0.046 C 
ATOM     18  C   LIG    1       26.176  29.409   6.632  0.00  0.00    -0.041 C 
ATOM     19  C   LIG    1       26.018  28.148   7.070  0.00  0.00    +0.050 C 
ENDROOT
BRANCH  17  20
ATOM     20  C   LIG    1       24.906  32.251   2.739  0.00  0.00    -0.040 A 
ATOM     21  C   LIG    1       24.488  32.112   1.401  0.00  0.00    +0.006 A 
ATOM     22  C   LIG    1       24.004  33.210   0.654  0.00  0.00    +0.023 A 
ATOM     23  C   LIG    1       23.931  34.505   1.188  0.00  0.00    +0.029 A 
ATOM     24  C   LIG    1       24.219  34.589   2.559  0.00  0.00    +0.023 A 
ATOM     25  C   LIG    1       24.644  33.482   3.327  0.00  0.00    +0.006 A 
BRANCH  23  26
ATOM     26  N   LIG    1       23.681  35.631   0.397  0.00  0.00    -0.336 N 
ATOM     27  C   LIG    1       23.394  35.474  -1.027  0.00  0.00    +0.129 C 
ATOM     28  C   LIG    1       23.146  36.848   1.007  0.00  0.00    +0.129 C 
ENDBRANCH  23  26
ENDBRANCH  17  20
BRANCH  13  29
ATOM     29  C   LIG    1       28.042  35.305   2.825  0.00  0.00    -0.067 C 
ATOM     30  C   LIG    1       27.463  36.234   2.360  0.00  0.00    -0.103 C 
ATOM     31  C   LIG    1       26.760  37.363   1.794  0.00  0.00    +0.106 C 
ENDBRANCH  13  29
BRANCH  13  32
ATOM     32  O   LIG    1       27.304  34.490   4.765  0.00  0.00    -0.376 OA
ATOM     33  H   LIG    1       27.741  34.465   5.635  0.00  0.00    +0.211 HD
ENDBRANCH  13  32
TORSDOF 4
ENDMDL
MODEL 3
REMARK VINA RESULT:      -6.2      4.493      6.920
REMARK  Name = 
REMARK                            x       y       z     vdW  Elec       q    Type
REMARK                         _______ _______ _______ _____ _____    ______ ____
ROOT
ATOM      1  O   LIG    1       19.706  28.501   8.628  0.00  0.00    -0.293 OA
ATOM      2  C   LIG    1       20.830  28.656   8.154  0.00  0.00    +0.157 C 
ATOM      3  C   LIG    1       21.596  29.968   8.231  0.00  0.00    +0.083 C 
ATOM      4  C   LIG    1       22.637  30.063   7.091  0.00  0.00    +0.043 C 
ATOM      5  C   LIG    1       23.529  28.838   7.099  0.00  0.00    -0.044 C 
ATOM      6  C   LIG    1       24.850  28.764   6.798  0.00  0.00    -0.055 C 
ATOM      7  C   LIG    1       25.591  27.478   7.171  0.00  0.00    +0.020 C 
ATOM      8  C   LIG    1       24.802  26.316   7.820  0.00  0.00    +0.013 C 
ATOM      9  C   LIG    1       23.628  26.849   8.605  0.00  0.00    +0.036 C 
ATOM     10  C   LIG    1       26.665  26.877   6.188  0.00  0.00    +0.006 C 
ATOM     11  C   LIG    1       27.566  25.627   6.020  0.00  0.00    +0.008 C 
ATOM     12  C   LIG    1       28.990  26.229   6.424  0.00  0.00    +0.049 C 
ATOM     13  C   LIG    1       28.743  27.801   6.535  0.00  0.00    +0.132 C 
ATOM     14  C   LIG    1       27.567  27.967   5.515  0.00  0.00    +0.012 C 
ATOM     15  C   LIG    1       28.101  27.585   4.067  0.00  0.00    +0.015 C 
ATOM     16  C   LIG    1       26.721  29.213   5.142  0.00  0.00    +0.023 C 
ATOM     17  C   LIG    1       25.657  29.836   6.065  0.00  0.00    +0.046 C 
ATOM     18  C   LIG    1       22.837  27.664   7.638  0.00  0.00    -0.041 C 
ATOM     19  C   LIG    1       21.513  27.491   7.491  0.00  0.00    +0.050 C 
ENDROOT
BRANCH  17  20
ATOM     20  C   LIG    1       26.338  31.077   6.670  0.00  0.00    -0.040 A 
ATOM     21  C   LIG    1       27.166  31.857   5.839  0.00  0.00    +0.006 A 
ATOM     22  C   LIG    1       28.285  32.555   6.346  0.00  0.00    +0.023 A 
ATOM     23  C   LIG    1       28.652  32.500   7.699  0.00  0.00    +0.029 A 
ATOM     24  C   LIG    1       27.734  31.835   8.527  0.00  0.00    +0.023 A 
ATOM     25  C   LIG    1       26.580  31.187   8.034  0.00  0.00    +0.006 A 
BRANCH  23  26
ATOM     26  N   LIG    1       29.877  32.987   8.166  0.00  0.00    -0.336 N 
ATOM     27  C   LIG    1       30.668  32.195   9.105  0.00  0.00    +0.129 C 
ATOM     28  C   LIG    1       30.642  33.936   7.358  0.00  0.00    +0.129 C 
ENDBRANCH  23  26
ENDBRANCH  17  20
BRANCH  13  29
ATOM     29  C   LIG    1       29.940  28.599   6.451  0.00  0.00    -0.067 C 
ATOM     30  C   LIG    1       30.620  29.524   6.138  0.00  0.00    -0.103 C 
ATOM     31  C   LIG    1       31.445  30.647   5.759  0.00  0.00    +0.106 C 
ENDBRANCH  13  29
BRANCH  13  32
ATOM     32  O   LIG    1       28.348  28.027   7.904  0.00  0.00    -0.376 OA
ATOM     33  H   LIG    1       27.497  27.578   8.048  0.00  0.00    +0.211 HD
ENDBRANCH  13  32
TORSDOF 4
ENDMDL
MODEL 4
REMARK VINA RESULT:      -6.2      3.632      6.995
REMARK  Name = 
REMARK                            x       y       z     vdW  Elec       q    Type
REMARK                         _______ _______ _______ _____ _____    ______ ____
ROOT
ATOM      1  O   LIG    1       30.176  33.316  10.624  0.00  0.00    -0.293 OA
ATOM      2  C   LIG    1       29.413  32.763   9.834  0.00  0.00    +0.157 C 
ATOM      3  C   LIG    1       29.244  33.206   8.389  0.00  0.00    +0.083 C 
ATOM      4  C   LIG    1       27.864  32.773   7.840  0.00  0.00    +0.043 C 
ATOM      5  C   LIG    1       27.667  31.285   8.046  0.00  0.00    -0.044 C 
ATOM      6  C   LIG    1       27.025  30.407   7.236  0.00  0.00    -0.055 C 
ATOM      7  C   LIG    1       27.221  28.915   7.510  0.00  0.00    +0.020 C 
ATOM      8  C   LIG    1       28.091  28.479   8.713  0.00  0.00    +0.013 C 
ATOM      9  C   LIG    1       29.148  29.517   9.004  0.00  0.00    +0.036 C 
ATOM     10  C   LIG    1       26.003  27.924   7.378  0.00  0.00    +0.006 C 
ATOM     11  C   LIG    1       25.635  26.440   7.633  0.00  0.00    +0.008 C 
ATOM     12  C   LIG    1       25.624  25.875   6.138  0.00  0.00    +0.049 C 
ATOM     13  C   LIG    1       25.752  27.171   5.218  0.00  0.00    +0.132 C 
ATOM     14  C   LIG    1       25.081  28.236   6.150  0.00  0.00    +0.012 C 
ATOM     15  C   LIG    1       23.555  27.839   6.348  0.00  0.00    +0.015 C 
ATOM     16  C   LIG    1       24.915  29.769   5.977  0.00  0.00    +0.023 C 
ATOM     17  C   LIG    1       26.071  30.778   6.099  0.00  0.00    +0.046 C 
ATOM     18  C   LIG    1       28.406  30.795   9.213  0.00  0.00    -0.041 C 
ATOM     19  C   LIG    1       28.624  31.566  10.291  0.00  0.00    +0.050 C 
ENDROOT
BRANCH  17  20
ATOM     20  C   LIG    1       26.436  31.140   4.647  0.00  0.00    -0.040 A 
ATOM     21  C   LIG    1       27.195  32.305   4.420  0.00  0.00    +0.006 A 
ATOM     22  C   LIG    1       27.050  33.070   3.240  0.00  0.00    +0.023 A 
ATOM     23  C   LIG    1       26.130  32.731   2.237  0.00  0.00    +0.029 A 
ATOM     24  C   LIG    1       25.491  31.495   2.422  0.00  0.00    +0.023 A 
ATOM     25  C   LIG    1       25.679  30.695   3.571  0.00  0.00    +0.006 A 
BRANCH  23  26
ATOM     26  N   LIG    1       25.811  33.598   1.186  0.00  0.00    -0.336 N 
ATOM     27  C   LIG    1       24.429  34.032   0.991  0.00  0.00    +0.129 C 
ATOM     28  C   LIG    1       26.826  34.506   0.654  0.00  0.00    +0.129 C 
ENDBRANCH  23  26
ENDBRANCH  17  20
BRANCH  13  29
ATOM     29  C   LIG    1       25.327  26.979   3.855  0.00  0.00    -0.067 C 
ATOM     30  C   LIG    1       25.327  27.136   2.676  0.00  0.00    -0.103 C 
ATOM     31  C   LIG    1       25.328  27.325   1.243  0.00  0.00    +0.106 C 
ENDBRANCH  13  29
BRANCH  13  32
ATOM     32  O   LIG    1       27.170  27.376   5.046  0.00  0.00    -0.376 OA
ATOM     33  H   LIG    1       27.548  26.558   4.679  0.00  0.00    +0.211 HD
ENDBRANCH  13  32
TORSDOF 4
ENDMDL
MODEL 5
REMARK VINA RESULT:      -5.9      3.015      5.610
REMARK  Name = 
REMARK                            x       y       z     vdW  Elec       q    Type
REMARK                         _______ _______ _______ _____ _____    ______ ____
ROOT
ATOM      1  O   LIG    1       29.214  32.689  10.194  0.00  0.00    -0.293 OA
ATOM      2  C   LIG    1       28.746  32.296   9.127  0.00  0.00    +0.157 C 
ATOM      3  C   LIG    1       27.504  31.422   9.031  0.00  0.00    +0.083 C 
ATOM      4  C   LIG    1       27.502  30.614   7.712  0.00  0.00    +0.043 C 
ATOM      5  C   LIG    1       27.680  31.547   6.532  0.00  0.00    -0.044 C 
ATOM      6  C   LIG    1       27.129  31.446   5.296  0.00  0.00    -0.055 C 
ATOM      7  C   LIG    1       27.219  32.667   4.378  0.00  0.00    +0.020 C 
ATOM      8  C   LIG    1       27.968  33.926   4.873  0.00  0.00    +0.013 C 
ATOM      9  C   LIG    1       27.892  34.030   6.377  0.00  0.00    +0.036 C 
ATOM     10  C   LIG    1       27.506  32.475   2.841  0.00  0.00    +0.006 C 
ATOM     11  C   LIG    1       27.795  33.306   1.566  0.00  0.00    +0.008 C 
ATOM     12  C   LIG    1       26.389  33.198   0.814  0.00  0.00    +0.049 C 
ATOM     13  C   LIG    1       25.568  32.120   1.654  0.00  0.00    +0.132 C 
ATOM     14  C   LIG    1       26.746  31.255   2.217  0.00  0.00    +0.012 C 
ATOM     15  C   LIG    1       27.491  30.565   0.994  0.00  0.00    +0.015 C 
ATOM     16  C   LIG    1       26.740  30.060   3.206  0.00  0.00    +0.023 C 
ATOM     17  C   LIG    1       26.468  30.195   4.716  0.00  0.00    +0.046 C 
ATOM     18  C   LIG    1       28.444  32.744   6.894  0.00  0.00    -0.041 C 
ATOM     19  C   LIG    1       29.399  32.718   7.839  0.00  0.00    +0.050 C 
ENDROOT
BRANCH  17  20
ATOM     20  C   LIG    1       25.012  29.731   4.898  0.00  0.00    -0.040 A 
ATOM     21  C   LIG    1       24.044  30.691   5.254  0.00  0.00    +0.006 A 
ATOM     22  C   LIG    1       22.920  30.359   6.044  0.00  0.00    +0.023 A 
ATOM     23  C   LIG    1       22.709  29.063   6.538  0.00  0.00    +0.029 A 
ATOM     24  C   LIG    1       23.607  28.099   6.055  0.00  0.00    +0.023 A 
ATOM     25  C   LIG    1       24.698  28.415   5.214  0.00  0.00    +0.006 A 
BRANCH  23  26
ATOM     26  N   LIG    1       21.740  28.776   7.505  0.00  0.00    -0.336 N 
ATOM     27  C   LIG    1       21.652  27.434   8.076  0.00  0.00    +0.129 C 
ATOM     28  C   LIG    1       21.215  29.845   8.353  0.00  0.00    +0.129 C 
ENDBRANCH  23  26
ENDBRANCH  17  20
BRANCH  13  29
ATOM     29  C   LIG    1       24.463  31.527   0.944  0.00  0.00    -0.067 C 
ATOM     30  C   LIG    1       23.483  31.499   0.270  0.00  0.00    -0.103 C 
ATOM     31  C   LIG    1       22.293  31.466  -0.549  0.00  0.00    +0.106 C 
ENDBRANCH  13  29
BRANCH  13  32
ATOM     32  O   LIG    1       24.877  32.875   2.671  0.00  0.00    -0.376 OA
ATOM     33  H   LIG    1       25.114  33.812   2.560  0.00  0.00    +0.211 HD
ENDBRANCH  13  32
TORSDOF 4
ENDMDL
MODEL 6
REMARK VINA RESULT:      -5.8      3.112      6.658
REMARK  Name = 
REMARK                            x       y       z     vdW  Elec       q    Type
REMARK                         _______ _______ _______ _____ _____    ______ ____
ROOT
ATOM      1  O   LIG    1       20.382  28.516   9.692  0.00  0.00    -0.293 OA
ATOM      2  C   LIG    1       21.157  28.688   8.753  0.00  0.00    +0.157 C 
ATOM      3  C   LIG    1       21.684  30.056   8.346  0.00  0.00    +0.083 C 
ATOM      4  C   LIG    1       22.107  30.061   6.858  0.00  0.00    +0.043 C 
ATOM      5  C   LIG    1       23.081  28.932   6.592  0.00  0.00    -0.044 C 
ATOM      6  C   LIG    1       24.139  28.923   5.742  0.00  0.00    -0.055 C 
ATOM      7  C   LIG    1       25.144  27.777   5.874  0.00  0.00    +0.020 C 
ATOM      8  C   LIG    1       24.888  26.668   6.921  0.00  0.00    +0.013 C 
ATOM      9  C   LIG    1       24.104  27.215   8.089  0.00  0.00    +0.036 C 
ATOM     10  C   LIG    1       25.765  27.124   4.581  0.00  0.00    +0.006 C 
ATOM     11  C   LIG    1       26.674  25.943   4.157  0.00  0.00    +0.008 C 
ATOM     12  C   LIG    1       28.031  26.718   3.819  0.00  0.00    +0.049 C 
ATOM     13  C   LIG    1       27.633  28.261   3.868  0.00  0.00    +0.132 C 
ATOM     14  C   LIG    1       26.121  28.168   3.469  0.00  0.00    +0.012 C 
ATOM     15  C   LIG    1       26.028  27.613   1.983  0.00  0.00    +0.015 C 
ATOM     16  C   LIG    1       25.027  29.266   3.389  0.00  0.00    +0.023 C 
ATOM     17  C   LIG    1       24.388  29.933   4.621  0.00  0.00    +0.046 C 
ATOM     18  C   LIG    1       22.865  27.802   7.499  0.00  0.00    -0.041 C 
ATOM     19  C   LIG    1       21.647  27.496   7.977  0.00  0.00    +0.050 C 
ENDROOT
BRANCH  17  20
ATOM     20  C   LIG    1       25.077  31.306   4.729  0.00  0.00    -0.040 A 
ATOM     21  C   LIG    1       24.698  32.316   3.823  0.00  0.00    +0.006 A 
ATOM     22  C   LIG    1       25.609  33.303   3.385  0.00  0.00    +0.023 A 
ATOM     23  C   LIG    1       26.947  33.327   3.806  0.00  0.00    +0.029 A 
ATOM     24  C   LIG    1       27.260  32.400   4.812  0.00  0.00    +0.023 A 
ATOM     25  C   LIG    1       26.335  31.450   5.299  0.00  0.00    +0.006 A 
BRANCH  23  26
ATOM     26  N   LIG    1       27.909  34.146   3.206  0.00  0.00    -0.336 N 
ATOM     27  C   LIG    1       27.729  34.596   1.827  0.00  0.00    +0.129 C 
ATOM     28  C   LIG    1       28.754  35.007   4.032  0.00  0.00    +0.129 C 
ENDBRANCH  23  26
ENDBRANCH  17  20
BRANCH  13  29
ATOM     29  C   LIG    1       28.548  29.135   3.178  0.00  0.00    -0.067 C 
ATOM     30  C   LIG    1       28.887  30.064   2.517  0.00  0.00    -0.103 C 
ATOM     31  C   LIG    1       29.299  31.193   1.715  0.00  0.00    +0.106 C 
ENDBRANCH  13  29
BRANCH  13  32
ATOM     32  O   LIG    1       27.838  28.663   5.239  0.00  0.00    -0.376 OA
ATOM     33  H   LIG    1       27.147  29.308   5.469  0.00  0.00    +0.211 HD
ENDBRANCH  13  32
TORSDOF 4
ENDMDL
MODEL 7
REMARK VINA RESULT:      -5.8      2.858      4.867
REMARK  Name = 
REMARK                            x       y       z     vdW  Elec       q    Type
REMARK                         _______ _______ _______ _____ _____    ______ ____
ROOT
ATOM      1  O   LIG    1       25.636  35.210   0.335  0.00  0.00    -0.293 OA
ATOM      2  C   LIG    1       25.713  34.483   1.324  0.00  0.00    +0.157 C 
ATOM      3  C   LIG    1       25.278  33.026   1.324  0.00  0.00    +0.083 C 
ATOM      4  C   LIG    1       24.922  32.560   2.755  0.00  0.00    +0.043 C 
ATOM      5  C   LIG    1       26.072  32.850   3.697  0.00  0.00    -0.044 C 
ATOM      6  C   LIG    1       26.490  32.114   4.758  0.00  0.00    -0.055 C 
ATOM      7  C   LIG    1       27.852  32.455   5.365  0.00  0.00    +0.020 C 
ATOM      8  C   LIG    1       28.659  33.640   4.784  0.00  0.00    +0.013 C 
ATOM      9  C   LIG    1       28.337  33.831   3.321  0.00  0.00    +0.036 C 
ATOM     10  C   LIG    1       28.045  32.426   6.928  0.00  0.00    +0.006 C 
ATOM     11  C   LIG    1       29.099  32.772   8.010  0.00  0.00    +0.008 C 
ATOM     12  C   LIG    1       29.602  31.310   8.415  0.00  0.00    +0.049 C 
ATOM     13  C   LIG    1       28.592  30.321   7.677  0.00  0.00    +0.132 C 
ATOM     14  C   LIG    1       27.315  31.225   7.621  0.00  0.00    +0.012 C 
ATOM     15  C   LIG    1       26.834  31.509   9.109  0.00  0.00    +0.015 C 
ATOM     16  C   LIG    1       25.932  30.981   6.960  0.00  0.00    +0.023 C 
ATOM     17  C   LIG    1       25.691  31.002   5.439  0.00  0.00    +0.046 C 
ATOM     18  C   LIG    1       26.856  34.007   3.258  0.00  0.00    -0.041 C 
ATOM     19  C   LIG    1       26.298  35.034   2.596  0.00  0.00    +0.050 C 
ENDROOT
BRANCH  17  20
ATOM     20  C   LIG    1       25.608  29.519   5.032  0.00  0.00    -0.040 A 
ATOM     21  C   LIG    1       24.941  28.626   5.894  0.00  0.00    +0.006 A 
ATOM     22  C   LIG    1       25.322  27.270   6.001  0.00  0.00    +0.023 A 
ATOM     23  C   LIG    1       26.397  26.735   5.276  0.00  0.00    +0.029 A 
ATOM     24  C   LIG    1       26.952  27.605   4.325  0.00  0.00    +0.023 A 
ATOM     25  C   LIG    1       26.533  28.945   4.169  0.00  0.00    +0.006 A 
BRANCH  23  26
ATOM     26  N   LIG    1       26.930  25.470   5.546  0.00  0.00    -0.336 N 
ATOM     27  C   LIG    1       28.376  25.293   5.648  0.00  0.00    +0.129 C 
ATOM     28  C   LIG    1       26.132  24.480   6.269  0.00  0.00    +0.129 C 
ENDBRANCH  23  26
ENDBRANCH  17  20
BRANCH  13  29
ATOM     29  C   LIG    1       28.556  28.988   8.225  0.00  0.00    -0.067 C 
ATOM     30  C   LIG    1       28.069  27.959   8.570  0.00  0.00    -0.103 C 
ATOM     31  C   LIG    1       27.479  26.709   8.988  0.00  0.00    +0.106 C 
ENDBRANCH  13  29
BRANCH  13  32
ATOM     32  O   LIG    1       29.177  30.077   6.381  0.00  0.00    -0.376 OA
ATOM     33  H   LIG    1       28.458  29.850   5.766  0.00  0.00    +0.211 HD
ENDBRANCH  13  32
TORSDOF 4
ENDMDL
MODEL 8
REMARK VINA RESULT:      -5.7      3.641      7.670
REMARK  Name = 
REMARK                            x       y       z     vdW  Elec       q    Type
REMARK                         _______ _______ _______ _____ _____    ______ ____
ROOT
ATOM      1  O   LIG    1       26.631  22.440   7.080  0.00  0.00    -0.293 OA
ATOM      2  C   LIG    1       26.526  23.662   7.001  0.00  0.00    +0.157 C 
ATOM      3  C   LIG    1       26.927  24.609   8.122  0.00  0.00    +0.083 C 
ATOM      4  C   LIG    1       26.162  25.948   8.010  0.00  0.00    +0.043 C 
ATOM      5  C   LIG    1       26.343  26.535   6.625  0.00  0.00    -0.044 C 
ATOM      6  C   LIG    1       26.445  27.843   6.279  0.00  0.00    -0.055 C 
ATOM      7  C   LIG    1       26.923  28.166   4.862  0.00  0.00    +0.020 C 
ATOM      8  C   LIG    1       27.217  27.004   3.884  0.00  0.00    +0.013 C 
ATOM      9  C   LIG    1       27.655  25.774   4.642  0.00  0.00    +0.036 C 
ATOM     10  C   LIG    1       26.263  29.351   4.061  0.00  0.00    +0.006 C 
ATOM     11  C   LIG    1       26.278  29.996   2.652  0.00  0.00    +0.008 C 
ATOM     12  C   LIG    1       27.132  31.317   2.937  0.00  0.00    +0.049 C 
ATOM     13  C   LIG    1       27.283  31.360   4.524  0.00  0.00    +0.132 C 
ATOM     14  C   LIG    1       25.974  30.612   4.945  0.00  0.00    +0.012 C 
ATOM     15  C   LIG    1       24.727  31.479   4.477  0.00  0.00    +0.015 C 
ATOM     16  C   LIG    1       25.461  30.182   6.345  0.00  0.00    +0.023 C 
ATOM     17  C   LIG    1       26.069  29.030   7.167  0.00  0.00    +0.046 C 
ATOM     18  C   LIG    1       26.560  25.495   5.617  0.00  0.00    -0.041 C 
ATOM     19  C   LIG    1       26.011  24.273   5.726  0.00  0.00    +0.050 C 
ENDROOT
BRANCH  17  20
ATOM     20  C   LIG    1       26.942  29.721   8.230  0.00  0.00    -0.040 A 
ATOM     21  C   LIG    1       26.766  31.103   8.444  0.00  0.00    +0.006 A 
ATOM     22  C   LIG    1       27.834  31.937   8.846  0.00  0.00    +0.023 A 
ATOM     23  C   LIG    1       29.135  31.448   9.036  0.00  0.00    +0.029 A 
ATOM     24  C   LIG    1       29.253  30.051   8.955  0.00  0.00    +0.023 A 
ATOM     25  C   LIG    1       28.174  29.206   8.614  0.00  0.00    +0.006 A 
BRANCH  23  26
ATOM     26  N   LIG    1       30.238  32.291   9.202  0.00  0.00    -0.336 N 
ATOM     27  C   LIG    1       30.151  33.439  10.101  0.00  0.00    +0.129 C 
ATOM     28  C   LIG    1       31.590  31.779   8.981  0.00  0.00    +0.129 C 
ENDBRANCH  23  26
ENDBRANCH  17  20
BRANCH  13  29
ATOM     29  C   LIG    1       27.621  32.657   5.054  0.00  0.00    -0.067 C 
ATOM     30  C   LIG    1       28.263  33.464   5.648  0.00  0.00    -0.103 C 
ATOM     31  C   LIG    1       29.042  34.444   6.369  0.00  0.00    +0.106 C 
ENDBRANCH  13  29
BRANCH  13  32
ATOM     32  O   LIG    1       28.485  30.616   4.812  0.00  0.00    -0.376 OA
ATOM     33  H   LIG    1       28.932  30.430   3.968  0.00  0.00    +0.211 HD
ENDBRANCH  13  32
TORSDOF 4
ENDMDL
MODEL 9
REMARK VINA RESULT:      -5.6      3.791      8.244
REMARK  Name = 
REMARK                            x       y       z     vdW  Elec       q    Type
REMARK                         _______ _______ _______ _____ _____    ______ ____
ROOT
ATOM      1  O   LIG    1       26.871  20.783   6.756  0.00  0.00    -0.293 OA
ATOM      2  C   LIG    1       26.814  22.009   6.834  0.00  0.00    +0.157 C 
ATOM      3  C   LIG    1       27.755  22.836   7.698  0.00  0.00    +0.083 C 
ATOM      4  C   LIG    1       27.108  24.190   8.071  0.00  0.00    +0.043 C 
ATOM      5  C   LIG    1       26.646  24.907   6.820  0.00  0.00    -0.044 C 
ATOM      6  C   LIG    1       26.649  26.242   6.572  0.00  0.00    -0.055 C 
ATOM      7  C   LIG    1       26.417  26.695   5.129  0.00  0.00    +0.020 C 
ATOM      8  C   LIG    1       26.142  25.630   4.041  0.00  0.00    +0.013 C 
ATOM      9  C   LIG    1       26.812  24.326   4.398  0.00  0.00    +0.036 C 
ATOM     10  C   LIG    1       25.527  27.962   4.837  0.00  0.00    +0.006 C 
ATOM     11  C   LIG    1       24.910  28.742   3.649  0.00  0.00    +0.008 C 
ATOM     12  C   LIG    1       25.874  30.015   3.594  0.00  0.00    +0.049 C 
ATOM     13  C   LIG    1       26.762  29.901   4.914  0.00  0.00    +0.132 C 
ATOM     14  C   LIG    1       25.767  29.134   5.849  0.00  0.00    +0.012 C 
ATOM     15  C   LIG    1       24.502  30.061   6.104  0.00  0.00    +0.015 C 
ATOM     16  C   LIG    1       25.955  28.577   7.285  0.00  0.00    +0.023 C 
ATOM     17  C   LIG    1       26.811  27.342   7.622  0.00  0.00    +0.046 C 
ATOM     18  C   LIG    1       26.296  23.968   5.752  0.00  0.00    -0.041 C 
ATOM     19  C   LIG    1       25.794  22.750   6.013  0.00  0.00    +0.050 C 
ENDROOT
BRANCH  17  20
ATOM     20  C   LIG    1       28.123  27.913   8.190  0.00  0.00    -0.040 A 
ATOM     21  C   LIG    1       28.051  29.036   9.038  0.00  0.00    +0.006 A 
ATOM     22  C   LIG    1       29.085  29.997   9.089  0.00  0.00    +0.023 A 
ATOM     23  C   LIG    1       30.233  29.906   8.289  0.00  0.00    +0.029 A 
ATOM     24  C   LIG    1       30.346  28.710   7.562  0.00  0.00    +0.023 A 
ATOM     25  C   LIG    1       29.342  27.716   7.554  0.00  0.00    +0.006 A 
BRANCH  23  26
ATOM     26  N   LIG    1       31.144  30.959   8.158  0.00  0.00    -0.336 N 
ATOM     27  C   LIG    1       31.606  31.364   6.832  0.00  0.00    +0.129 C 
ATOM     28  C   LIG    1       31.208  32.002   9.181  0.00  0.00    +0.129 C 
ENDBRANCH  23  26
ENDBRANCH  17  20
BRANCH  13  29
ATOM     29  C   LIG    1       27.387  31.135   5.319  0.00  0.00    -0.067 C 
ATOM     30  C   LIG    1       27.793  31.961   6.073  0.00  0.00    -0.103 C 
ATOM     31  C   LIG    1       28.286  32.963   6.989  0.00  0.00    +0.106 C 
ENDBRANCH  13  29
BRANCH  13  32
ATOM     32  O   LIG    1       27.910  29.115   4.533  0.00  0.00    -0.376 OA
ATOM     33  H   LIG    1       28.289  28.727   5.340  0.00  0.00    +0.211 HD
ENDBRANCH  13  32
TORSDOF 4
ENDMDL
