MODEL 1
REMARK VINA RESULT:      -7.3      0.000      0.000
REMARK  Name = 
REMARK                            x       y       z     vdW  Elec       q    Type
REMARK                         _______ _______ _______ _____ _____    ______ ____
ROOT
ATOM      1  O   LIG    1       30.252  -3.201  19.395  0.00  0.00    -0.293 OA
ATOM      2  C   LIG    1       31.412  -2.934  19.089  0.00  0.00    +0.157 C 
ATOM      3  C   LIG    1       32.594  -3.161  20.019  0.00  0.00    +0.083 C 
ATOM      4  C   LIG    1       33.768  -2.223  19.653  0.00  0.00    +0.043 C 
ATOM      5  C   LIG    1       34.113  -2.372  18.186  0.00  0.00    -0.044 C 
ATOM      6  C   LIG    1       35.337  -2.307  17.604  0.00  0.00    -0.055 C 
ATOM      7  C   LIG    1       35.461  -2.788  16.156  0.00  0.00    +0.020 C 
ATOM      8  C   LIG    1       34.194  -3.273  15.414  0.00  0.00    +0.013 C 
ATOM      9  C   LIG    1       33.197  -3.847  16.391  0.00  0.00    +0.036 C 
ATOM     10  C   LIG    1       36.375  -2.001  15.142  0.00  0.00    +0.006 C 
ATOM     11  C   LIG    1       36.748  -1.978  13.638  0.00  0.00    +0.008 C 
ATOM     12  C   LIG    1       38.205  -2.633  13.682  0.00  0.00    +0.049 C 
ATOM     13  C   LIG    1       38.559  -2.719  15.235  0.00  0.00    +0.132 C 
ATOM     14  C   LIG    1       37.722  -1.511  15.774  0.00  0.00    +0.012 C 
ATOM     15  C   LIG    1       38.305  -0.175  15.141  0.00  0.00    +0.015 C 
ATOM     16  C   LIG    1       37.487  -1.011  17.225  0.00  0.00    +0.023 C 
ATOM     17  C   LIG    1       36.602  -1.741  18.252  0.00  0.00    +0.046 C 
ATOM     18  C   LIG    1       32.948  -2.766  17.390  0.00  0.00    -0.041 C 
ATOM     19  C   LIG    1       31.702  -2.386  17.718  0.00  0.00    +0.050 C 
ENDROOT
BRANCH  17  20
ATOM     20  C   LIG    1       37.591  -2.472  19.178  0.00  0.00    -0.040 A 
ATOM     21  C   LIG    1       38.374  -1.701  20.060  0.00  0.00    +0.006 A 
ATOM     22  C   LIG    1       39.673  -2.101  20.446  0.00  0.00    +0.023 A 
ATOM     23  C   LIG    1       40.270  -3.275  19.962  0.00  0.00    +0.029 A 
ATOM     24  C   LIG    1       39.420  -4.092  19.200  0.00  0.00    +0.023 A 
ATOM     25  C   LIG    1       38.099  -3.726  18.862  0.00  0.00    +0.006 A 
BRANCH  23  26
ATOM     26  N   LIG    1       41.627  -3.559  20.146  0.00  0.00    -0.336 N 
ATOM     27  C   LIG    1       42.239  -4.686  19.446  0.00  0.00    +0.129 C 
ATOM     28  C   LIG    1       42.551  -2.493  20.531  0.00  0.00    +0.129 C 
ENDBRANCH  23  26
ENDBRANCH  17  20
BRANCH  13  29
ATOM     29  C   LIG    1       39.965  -2.857  15.519  0.00  0.00    -0.067 C 
ATOM     30  C   LIG    1       41.013  -2.592  16.016  0.00  0.00    -0.103 C 
ATOM     31  C   LIG    1       42.285  -2.270  16.620  0.00  0.00    +0.106 C 
ENDBRANCH  13  29
BRANCH  13  32
ATOM     32  O   LIG    1       38.056  -4.000  15.668  0.00  0.00    -0.376 OA
ATOM     33  H   LIG    1       37.306  -3.841  16.267  0.00  0.00    +0.211 HD
ENDBRANCH  13  32
TORSDOF 4
ENDMDL
MODEL 2
REMARK VINA RESULT:      -7.1      2.186      4.851
REMARK  Name = 
REMARK                            x       y       z     vdW  Elec       q    Type
REMARK                         _______ _______ _______ _____ _____    ______ ____
ROOT
ATOM      1  O   LIG    1       30.622  -2.908  19.745  0.00  0.00    -0.293 OA
ATOM      2  C   LIG    1       31.700  -2.991  19.161  0.00  0.00    +0.157 C 
ATOM      3  C   LIG    1       31.963  -2.366  17.800  0.00  0.00    +0.083 C 
ATOM      4  C   LIG    1       33.112  -3.101  17.070  0.00  0.00    +0.043 C 
ATOM      5  C   LIG    1       34.337  -3.159  17.958  0.00  0.00    -0.044 C 
ATOM      6  C   LIG    1       35.641  -3.085  17.589  0.00  0.00    -0.055 C 
ATOM      7  C   LIG    1       36.678  -2.864  18.692  0.00  0.00    +0.020 C 
ATOM      8  C   LIG    1       36.208  -2.787  20.163  0.00  0.00    +0.013 C 
ATOM      9  C   LIG    1       34.797  -2.253  20.239  0.00  0.00    +0.036 C 
ATOM     10  C   LIG    1       38.057  -3.626  18.638  0.00  0.00    +0.006 C 
ATOM     11  C   LIG    1       39.333  -3.851  19.488  0.00  0.00    +0.008 C 
ATOM     12  C   LIG    1       40.376  -2.922  18.712  0.00  0.00    +0.049 C 
ATOM     13  C   LIG    1       39.610  -2.483  17.384  0.00  0.00    +0.132 C 
ATOM     14  C   LIG    1       38.661  -3.714  17.195  0.00  0.00    +0.012 C 
ATOM     15  C   LIG    1       39.554  -5.000  16.926  0.00  0.00    +0.015 C 
ATOM     16  C   LIG    1       37.538  -3.974  16.156  0.00  0.00    +0.023 C 
ATOM     17  C   LIG    1       36.174  -3.259  16.166  0.00  0.00    +0.046 C 
ATOM     18  C   LIG    1       33.981  -3.159  19.379  0.00  0.00    -0.041 C 
ATOM     19  C   LIG    1       32.841  -3.713  19.826  0.00  0.00    +0.050 C 
ENDROOT
BRANCH  17  20
ATOM     20  C   LIG    1       36.281  -2.188  15.066  0.00  0.00    -0.040 A 
ATOM     21  C   LIG    1       37.214  -2.386  14.029  0.00  0.00    +0.006 A 
ATOM     22  C   LIG    1       37.856  -1.303  13.387  0.00  0.00    +0.023 A 
ATOM     23  C   LIG    1       37.621   0.030  13.753  0.00  0.00    +0.029 A 
ATOM     24  C   LIG    1       36.588   0.207  14.687  0.00  0.00    +0.023 A 
ATOM     25  C   LIG    1       35.899  -0.870  15.287  0.00  0.00    +0.006 A 
BRANCH  23  26
ATOM     26  N   LIG    1       38.414   1.087  13.294  0.00  0.00    -0.336 N 
ATOM     27  C   LIG    1       37.851   2.430  13.187  0.00  0.00    +0.129 C 
ATOM     28  C   LIG    1       39.867   1.036  13.460  0.00  0.00    +0.129 C 
ENDBRANCH  23  26
ENDBRANCH  17  20
BRANCH  13  29
ATOM     29  C   LIG    1       40.470  -2.017  16.326  0.00  0.00    -0.067 C 
ATOM     30  C   LIG    1       41.036  -2.050  15.280  0.00  0.00    -0.103 C 
ATOM     31  C   LIG    1       41.722  -2.091  14.009  0.00  0.00    +0.106 C 
ENDBRANCH  13  29
BRANCH  13  32
ATOM     32  O   LIG    1       38.910  -1.270  17.733  0.00  0.00    -0.376 OA
ATOM     33  H   LIG    1       39.171  -0.580  17.099  0.00  0.00    +0.211 HD
ENDBRANCH  13  32
TORSDOF 4
ENDMDL
MODEL 3
REMARK VINA RESULT:      -6.7      2.642      5.937
REMARK  Name = 
REMARK                            x       y       z     vdW  Elec       q    Type
REMARK                         _______ _______ _______ _____ _____    ______ ____
ROOT
ATOM      1  O   LIG    1       37.832   2.730  13.306  0.00  0.00    -0.293 OA
ATOM      2  C   LIG    1       37.366   1.658  13.688  0.00  0.00    +0.157 C 
ATOM      3  C   LIG    1       38.187   0.382  13.797  0.00  0.00    +0.083 C 
ATOM      4  C   LIG    1       37.278  -0.865  13.706  0.00  0.00    +0.043 C 
ATOM      5  C   LIG    1       36.164  -0.771  14.727  0.00  0.00    -0.044 C 
ATOM      6  C   LIG    1       35.591  -1.777  15.435  0.00  0.00    -0.055 C 
ATOM      7  C   LIG    1       34.700  -1.395  16.618  0.00  0.00    +0.020 C 
ATOM      8  C   LIG    1       34.454   0.102  16.922  0.00  0.00    +0.013 C 
ATOM      9  C   LIG    1       35.633   0.932  16.475  0.00  0.00    +0.036 C 
ATOM     10  C   LIG    1       33.370  -2.194  16.892  0.00  0.00    +0.006 C 
ATOM     11  C   LIG    1       32.124  -2.163  17.812  0.00  0.00    +0.008 C 
ATOM     12  C   LIG    1       32.467  -3.354  18.821  0.00  0.00    +0.049 C 
ATOM     13  C   LIG    1       33.752  -4.056  18.188  0.00  0.00    +0.132 C 
ATOM     14  C   LIG    1       33.519  -3.738  16.673  0.00  0.00    +0.012 C 
ATOM     15  C   LIG    1       32.191  -4.474  16.203  0.00  0.00    +0.015 C 
ATOM     16  C   LIG    1       34.408  -4.023  15.432  0.00  0.00    +0.023 C 
ATOM     17  C   LIG    1       35.713  -3.269  15.119  0.00  0.00    +0.046 C 
ATOM     18  C   LIG    1       35.815   0.620  15.027  0.00  0.00    -0.041 C 
ATOM     19  C   LIG    1       35.923   1.594  14.107  0.00  0.00    +0.050 C 
ENDROOT
BRANCH  17  20
ATOM     20  C   LIG    1       36.838  -4.230  15.545  0.00  0.00    -0.040 A 
ATOM     21  C   LIG    1       36.495  -5.361  16.313  0.00  0.00    +0.006 A 
ATOM     22  C   LIG    1       37.383  -5.913  17.262  0.00  0.00    +0.023 A 
ATOM     23  C   LIG    1       38.649  -5.362  17.513  0.00  0.00    +0.029 A 
ATOM     24  C   LIG    1       39.020  -4.328  16.639  0.00  0.00    +0.023 A 
ATOM     25  C   LIG    1       38.158  -3.812  15.646  0.00  0.00    +0.006 A 
BRANCH  23  26
ATOM     26  N   LIG    1       39.435  -5.751  18.602  0.00  0.00    -0.336 N 
ATOM     27  C   LIG    1       40.167  -7.015  18.561  0.00  0.00    +0.129 C 
ATOM     28  C   LIG    1       39.998  -4.739  19.496  0.00  0.00    +0.129 C 
ENDBRANCH  23  26
ENDBRANCH  17  20
BRANCH  13  29
ATOM     29  C   LIG    1       33.987  -5.399  18.655  0.00  0.00    -0.067 C 
ATOM     30  C   LIG    1       34.219  -6.563  18.572  0.00  0.00    -0.103 C 
ATOM     31  C   LIG    1       34.501  -7.976  18.469  0.00  0.00    +0.106 C 
ENDBRANCH  13  29
BRANCH  13  32
ATOM     32  O   LIG    1       34.882  -3.359  18.751  0.00  0.00    -0.376 OA
ATOM     33  H   LIG    1       34.990  -2.522  18.267  0.00  0.00    +0.211 HD
ENDBRANCH  13  32
TORSDOF 4
ENDMDL
MODEL 4
REMARK VINA RESULT:      -6.7      1.674      2.273
REMARK  Name = 
REMARK                            x       y       z     vdW  Elec       q    Type
REMARK                         _______ _______ _______ _____ _____    ______ ____
ROOT
ATOM      1  O   LIG    1       32.280  -3.917  23.194  0.00  0.00    -0.293 OA
ATOM      2  C   LIG    1       33.047  -3.553  22.305  0.00  0.00    +0.157 C 
ATOM      3  C   LIG    1       34.532  -3.310  22.530  0.00  0.00    +0.083 C 
ATOM      4  C   LIG    1       35.093  -2.327  21.476  0.00  0.00    +0.043 C 
ATOM      5  C   LIG    1       34.763  -2.817  20.082  0.00  0.00    -0.044 C 
ATOM      6  C   LIG    1       35.516  -2.710  18.958  0.00  0.00    -0.055 C 
ATOM      7  C   LIG    1       35.102  -3.545  17.745  0.00  0.00    +0.020 C 
ATOM      8  C   LIG    1       33.833  -4.424  17.834  0.00  0.00    +0.013 C 
ATOM      9  C   LIG    1       33.594  -4.864  19.259  0.00  0.00    +0.036 C 
ATOM     10  C   LIG    1       35.193  -2.928  16.298  0.00  0.00    +0.006 C 
ATOM     11  C   LIG    1       34.821  -3.261  14.831  0.00  0.00    +0.008 C 
ATOM     12  C   LIG    1       36.259  -3.623  14.233  0.00  0.00    +0.049 C 
ATOM     13  C   LIG    1       37.285  -3.214  15.384  0.00  0.00    +0.132 C 
ATOM     14  C   LIG    1       36.479  -2.062  16.073  0.00  0.00    +0.012 C 
ATOM     15  C   LIG    1       36.306  -0.876  15.030  0.00  0.00    +0.015 C 
ATOM     16  C   LIG    1       36.795  -1.227  17.342  0.00  0.00    +0.023 C 
ATOM     17  C   LIG    1       36.718  -1.782  18.777  0.00  0.00    +0.046 C 
ATOM     18  C   LIG    1       33.529  -3.607  20.060  0.00  0.00    -0.041 C 
ATOM     19  C   LIG    1       32.517  -3.366  20.910  0.00  0.00    +0.050 C 
ENDROOT
BRANCH  17  20
ATOM     20  C   LIG    1       38.181  -2.049  19.176  0.00  0.00    -0.040 A 
ATOM     21  C   LIG    1       39.195  -1.719  18.256  0.00  0.00    +0.006 A 
ATOM     22  C   LIG    1       40.404  -2.448  18.186  0.00  0.00    +0.023 A 
ATOM     23  C   LIG    1       40.660  -3.554  19.011  0.00  0.00    +0.029 A 
ATOM     24  C   LIG    1       39.699  -3.774  20.010  0.00  0.00    +0.023 A 
ATOM     25  C   LIG    1       38.517  -3.008  20.124  0.00  0.00    +0.006 A 
BRANCH  23  26
ATOM     26  N   LIG    1       41.738  -4.419  18.795  0.00  0.00    -0.336 N 
ATOM     27  C   LIG    1       41.729  -5.757  19.382  0.00  0.00    +0.129 C 
ATOM     28  C   LIG    1       42.562  -4.274  17.596  0.00  0.00    +0.129 C 
ENDBRANCH  23  26
ENDBRANCH  17  20
BRANCH  13  29
ATOM     29  C   LIG    1       38.642  -3.028  14.934  0.00  0.00    -0.067 C 
ATOM     30  C   LIG    1       39.736  -3.348  14.597  0.00  0.00    -0.103 C 
ATOM     31  C   LIG    1       41.066  -3.736  14.186  0.00  0.00    +0.106 C 
ENDBRANCH  13  29
BRANCH  13  32
ATOM     32  O   LIG    1       37.419  -4.390  16.208  0.00  0.00    -0.376 OA
ATOM     33  H   LIG    1       36.570  -4.865  16.193  0.00  0.00    +0.211 HD
ENDBRANCH  13  32
TORSDOF 4
ENDMDL
MODEL 5
REMARK VINA RESULT:      -6.2      8.936     12.672
REMARK  Name = 
REMARK                            x       y       z     vdW  Elec       q    Type
REMARK                         _______ _______ _______ _____ _____    ______ ____
ROOT
ATOM      1  O   LIG    1       24.431  -0.753  26.058  0.00  0.00    -0.293 OA
ATOM      2  C   LIG    1       25.589  -0.845  26.460  0.00  0.00    +0.157 C 
ATOM      3  C   LIG    1       26.723  -1.405  25.615  0.00  0.00    +0.083 C 
ATOM      4  C   LIG    1       27.858  -1.950  26.513  0.00  0.00    +0.043 C 
ATOM      5  C   LIG    1       28.302  -0.885  27.493  0.00  0.00    -0.044 C 
ATOM      6  C   LIG    1       29.553  -0.648  27.962  0.00  0.00    -0.055 C 
ATOM      7  C   LIG    1       29.795   0.668  28.705  0.00  0.00    +0.020 C 
ATOM      8  C   LIG    1       28.608   1.633  28.931  0.00  0.00    +0.013 C 
ATOM      9  C   LIG    1       27.589   1.485  27.826  0.00  0.00    +0.036 C 
ATOM     10  C   LIG    1       30.720   0.691  29.980  0.00  0.00    +0.006 C 
ATOM     11  C   LIG    1       31.183   1.653  31.104  0.00  0.00    +0.008 C 
ATOM     12  C   LIG    1       32.672   1.979  30.623  0.00  0.00    +0.049 C 
ATOM     13  C   LIG    1       32.933   0.968  29.417  0.00  0.00    +0.132 C 
ATOM     14  C   LIG    1       31.993  -0.211  29.839  0.00  0.00    +0.012 C 
ATOM     15  C   LIG    1       32.531  -0.818  31.205  0.00  0.00    +0.015 C 
ATOM     16  C   LIG    1       31.639  -1.533  29.107  0.00  0.00    +0.023 C 
ATOM     17  C   LIG    1       30.738  -1.609  27.860  0.00  0.00    +0.046 C 
ATOM     18  C   LIG    1       27.214   0.041  27.820  0.00  0.00    -0.041 C 
ATOM     19  C   LIG    1       25.929  -0.351  27.839  0.00  0.00    +0.050 C 
ENDROOT
BRANCH  17  20
ATOM     20  C   LIG    1       31.711  -1.780  26.679  0.00  0.00    -0.040 A 
ATOM     21  C   LIG    1       31.490  -1.016  25.516  0.00  0.00    +0.006 A 
ATOM     22  C   LIG    1       31.838  -1.496  24.233  0.00  0.00    +0.023 A 
ATOM     23  C   LIG    1       32.404  -2.764  24.036  0.00  0.00    +0.029 A 
ATOM     24  C   LIG    1       32.742  -3.443  25.216  0.00  0.00    +0.023 A 
ATOM     25  C   LIG    1       32.453  -2.941  26.504  0.00  0.00    +0.006 A 
BRANCH  23  26
ATOM     26  N   LIG    1       32.533  -3.340  22.768  0.00  0.00    -0.336 N 
ATOM     27  C   LIG    1       31.596  -2.985  21.705  0.00  0.00    +0.129 C 
ATOM     28  C   LIG    1       33.840  -3.811  22.309  0.00  0.00    +0.129 C 
ENDBRANCH  23  26
ENDBRANCH  17  20
BRANCH  13  29
ATOM     29  C   LIG    1       34.325   0.757  29.109  0.00  0.00    -0.067 C 
ATOM     30  C   LIG    1       35.268   0.236  28.604  0.00  0.00    -0.103 C 
ATOM     31  C   LIG    1       36.412  -0.397  27.989  0.00  0.00    +0.106 C 
ENDBRANCH  13  29
BRANCH  13  32
ATOM     32  O   LIG    1       32.484   1.662  28.235  0.00  0.00    -0.376 OA
ATOM     33  H   LIG    1       32.138   1.001  27.612  0.00  0.00    +0.211 HD
ENDBRANCH  13  32
TORSDOF 4
ENDMDL
MODEL 6
REMARK VINA RESULT:      -6.0      2.768      5.401
REMARK  Name = 
REMARK                            x       y       z     vdW  Elec       q    Type
REMARK                         _______ _______ _______ _____ _____    ______ ____
ROOT
ATOM      1  O   LIG    1       36.312   4.492  13.687  0.00  0.00    -0.293 OA
ATOM      2  C   LIG    1       36.391   3.284  13.902  0.00  0.00    +0.157 C 
ATOM      3  C   LIG    1       37.710   2.528  13.948  0.00  0.00    +0.083 C 
ATOM      4  C   LIG    1       37.495   1.030  13.632  0.00  0.00    +0.043 C 
ATOM      5  C   LIG    1       36.433   0.453  14.544  0.00  0.00    -0.044 C 
ATOM      6  C   LIG    1       36.375  -0.794  15.076  0.00  0.00    -0.055 C 
ATOM      7  C   LIG    1       35.369  -1.038  16.202  0.00  0.00    +0.020 C 
ATOM      8  C   LIG    1       34.439   0.117  16.644  0.00  0.00    +0.013 C 
ATOM      9  C   LIG    1       35.106   1.451  16.409  0.00  0.00    +0.036 C 
ATOM     10  C   LIG    1       34.561  -2.390  16.255  0.00  0.00    +0.006 C 
ATOM     11  C   LIG    1       33.414  -3.067  17.048  0.00  0.00    +0.008 C 
ATOM     12  C   LIG    1       34.242  -4.098  17.947  0.00  0.00    +0.049 C 
ATOM     13  C   LIG    1       35.726  -4.031  17.368  0.00  0.00    +0.132 C 
ATOM     14  C   LIG    1       35.424  -3.642  15.882  0.00  0.00    +0.012 C 
ATOM     15  C   LIG    1       34.613  -4.831  15.207  0.00  0.00    +0.015 C 
ATOM     16  C   LIG    1       36.385  -3.306  14.710  0.00  0.00    +0.023 C 
ATOM     17  C   LIG    1       37.194  -1.999  14.611  0.00  0.00    +0.046 C 
ATOM     18  C   LIG    1       35.463   1.469  14.960  0.00  0.00    -0.041 C 
ATOM     19  C   LIG    1       35.133   2.503  14.168  0.00  0.00    +0.050 C 
ENDROOT
BRANCH  17  20
ATOM     20  C   LIG    1       38.622  -2.385  15.035  0.00  0.00    -0.040 A 
ATOM     21  C   LIG    1       39.120  -3.642  14.638  0.00  0.00    +0.006 A 
ATOM     22  C   LIG    1       40.046  -4.360  15.428  0.00  0.00    +0.023 A 
ATOM     23  C   LIG    1       40.510  -3.878  16.661  0.00  0.00    +0.029 A 
ATOM     24  C   LIG    1       40.110  -2.567  16.965  0.00  0.00    +0.023 A 
ATOM     25  C   LIG    1       39.233  -1.820  16.147  0.00  0.00    +0.006 A 
BRANCH  23  26
ATOM     26  N   LIG    1       41.235  -4.673  17.554  0.00  0.00    -0.336 N 
ATOM     27  C   LIG    1       40.855  -4.720  18.964  0.00  0.00    +0.129 C 
ATOM     28  C   LIG    1       41.954  -5.850  17.067  0.00  0.00    +0.129 C 
ENDBRANCH  23  26
ENDBRANCH  17  20
BRANCH  13  29
ATOM     29  C   LIG    1       36.548  -5.167  17.705  0.00  0.00    -0.067 C 
ATOM     30  C   LIG    1       37.365  -6.015  17.538  0.00  0.00    -0.103 C 
ATOM     31  C   LIG    1       38.358  -7.044  17.335  0.00  0.00    +0.106 C 
ENDBRANCH  13  29
BRANCH  13  32
ATOM     32  O   LIG    1       36.377  -2.981  18.113  0.00  0.00    -0.376 OA
ATOM     33  H   LIG    1       36.940  -2.481  17.496  0.00  0.00    +0.211 HD
ENDBRANCH  13  32
TORSDOF 4
ENDMDL
MODEL 7
REMARK VINA RESULT:      -6.0      3.282      5.811
REMARK  Name = 
REMARK                            x       y       z     vdW  Elec       q    Type
REMARK                         _______ _______ _______ _____ _____    ______ ____
ROOT
ATOM      1  O   LIG    1       30.148  -9.415  15.563  0.00  0.00    -0.293 OA
ATOM      2  C   LIG    1       30.777  -8.378  15.766  0.00  0.00    +0.157 C 
ATOM      3  C   LIG    1       30.313  -7.296  16.729  0.00  0.00    +0.083 C 
ATOM      4  C   LIG    1       30.921  -5.926  16.348  0.00  0.00    +0.043 C 
ATOM      5  C   LIG    1       32.427  -6.038  16.241  0.00  0.00    -0.044 C 
ATOM      6  C   LIG    1       33.361  -5.110  16.573  0.00  0.00    -0.055 C 
ATOM      7  C   LIG    1       34.818  -5.569  16.658  0.00  0.00    +0.020 C 
ATOM      8  C   LIG    1       35.165  -7.037  16.318  0.00  0.00    +0.013 C 
ATOM      9  C   LIG    1       33.996  -7.942  16.627  0.00  0.00    +0.036 C 
ATOM     10  C   LIG    1       35.968  -4.636  16.121  0.00  0.00    +0.006 C 
ATOM     11  C   LIG    1       37.497  -4.647  15.869  0.00  0.00    +0.008 C 
ATOM     12  C   LIG    1       38.006  -3.745  17.087  0.00  0.00    +0.049 C 
ATOM     13  C   LIG    1       36.673  -3.147  17.727  0.00  0.00    +0.132 C 
ATOM     14  C   LIG    1       35.749  -3.123  16.463  0.00  0.00    +0.012 C 
ATOM     15  C   LIG    1       36.368  -2.108  15.408  0.00  0.00    +0.015 C 
ATOM     16  C   LIG    1       34.251  -2.747  16.313  0.00  0.00    +0.023 C 
ATOM     17  C   LIG    1       33.091  -3.625  16.818  0.00  0.00    +0.046 C 
ATOM     18  C   LIG    1       32.847  -7.387  15.853  0.00  0.00    -0.041 C 
ATOM     19  C   LIG    1       32.090  -8.167  15.063  0.00  0.00    +0.050 C 
ENDROOT
BRANCH  17  20
ATOM     20  C   LIG    1       32.630  -2.957  18.127  0.00  0.00    -0.040 A 
ATOM     21  C   LIG    1       33.604  -2.355  18.948  0.00  0.00    +0.006 A 
ATOM     22  C   LIG    1       33.466  -2.307  20.354  0.00  0.00    +0.023 A 
ATOM     23  C   LIG    1       32.366  -2.869  21.018  0.00  0.00    +0.029 A 
ATOM     24  C   LIG    1       31.347  -3.334  20.172  0.00  0.00    +0.023 A 
ATOM     25  C   LIG    1       31.453  -3.329  18.764  0.00  0.00    +0.006 A 
BRANCH  23  26
ATOM     26  N   LIG    1       32.331  -3.036  22.406  0.00  0.00    -0.336 N 
ATOM     27  C   LIG    1       33.261  -3.956  23.056  0.00  0.00    +0.129 C 
ATOM     28  C   LIG    1       31.830  -1.958  23.259  0.00  0.00    +0.129 C 
ENDBRANCH  23  26
ENDBRANCH  17  20
BRANCH  13  29
ATOM     29  C   LIG    1       36.877  -1.977  18.542  0.00  0.00    -0.067 C 
ATOM     30  C   LIG    1       36.572  -1.044  19.215  0.00  0.00    -0.103 C 
ATOM     31  C   LIG    1       36.201   0.088  20.033  0.00  0.00    +0.106 C 
ENDBRANCH  13  29
BRANCH  13  32
ATOM     32  O   LIG    1       36.261  -4.113  18.717  0.00  0.00    -0.376 OA
ATOM     33  H   LIG    1       35.340  -3.916  18.962  0.00  0.00    +0.211 HD
ENDBRANCH  13  32
TORSDOF 4
ENDMDL
MODEL 8
REMARK VINA RESULT:      -5.7      2.547      3.327
REMARK  Name = 
REMARK                            x       y       z     vdW  Elec       q    Type
REMARK                         _______ _______ _______ _____ _____    ______ ____
ROOT
ATOM      1  O   LIG    1       31.743  -3.496  21.167  0.00  0.00    -0.293 OA
ATOM      2  C   LIG    1       32.748  -3.389  20.468  0.00  0.00    +0.157 C 
ATOM      3  C   LIG    1       33.684  -4.550  20.168  0.00  0.00    +0.083 C 
ATOM      4  C   LIG    1       35.099  -4.036  19.813  0.00  0.00    +0.043 C 
ATOM      5  C   LIG    1       35.017  -3.018  18.695  0.00  0.00    -0.044 C 
ATOM      6  C   LIG    1       35.900  -2.813  17.684  0.00  0.00    -0.055 C 
ATOM      7  C   LIG    1       35.447  -1.936  16.515  0.00  0.00    +0.020 C 
ATOM      8  C   LIG    1       34.043  -1.290  16.559  0.00  0.00    +0.013 C 
ATOM      9  C   LIG    1       33.094  -2.143  17.365  0.00  0.00    +0.036 C 
ATOM     10  C   LIG    1       36.456  -0.918  15.860  0.00  0.00    +0.006 C 
ATOM     11  C   LIG    1       36.494   0.215  14.804  0.00  0.00    +0.008 C 
ATOM     12  C   LIG    1       37.225  -0.529  13.594  0.00  0.00    +0.049 C 
ATOM     13  C   LIG    1       37.717  -1.914  14.214  0.00  0.00    +0.132 C 
ATOM     14  C   LIG    1       37.906  -1.492  15.710  0.00  0.00    +0.012 C 
ATOM     15  C   LIG    1       39.061  -0.404  15.783  0.00  0.00    +0.015 C 
ATOM     16  C   LIG    1       38.284  -2.334  16.957  0.00  0.00    +0.023 C 
ATOM     17  C   LIG    1       37.335  -3.340  17.636  0.00  0.00    +0.046 C 
ATOM     18  C   LIG    1       33.738  -2.304  18.702  0.00  0.00    -0.041 C 
ATOM     19  C   LIG    1       33.067  -2.060  19.839  0.00  0.00    +0.050 C 
ENDROOT
BRANCH  17  20
ATOM     20  C   LIG    1       37.813  -4.722  17.155  0.00  0.00    -0.040 A 
ATOM     21  C   LIG    1       36.866  -5.761  17.062  0.00  0.00    +0.006 A 
ATOM     22  C   LIG    1       37.220  -7.112  17.274  0.00  0.00    +0.023 A 
ATOM     23  C   LIG    1       38.526  -7.501  17.609  0.00  0.00    +0.029 A 
ATOM     24  C   LIG    1       39.475  -6.468  17.557  0.00  0.00    +0.023 A 
ATOM     25  C   LIG    1       39.136  -5.124  17.284  0.00  0.00    +0.006 A 
BRANCH  23  26
ATOM     26  N   LIG    1       38.837  -8.792  18.048  0.00  0.00    -0.336 N 
ATOM     27  C   LIG    1       40.200  -9.299  17.917  0.00  0.00    +0.129 C 
ATOM     28  C   LIG    1       38.044  -9.413  19.109  0.00  0.00    +0.129 C 
ENDBRANCH  23  26
ENDBRANCH  17  20
BRANCH  13  29
ATOM     29  C   LIG    1       38.767  -2.561  13.469  0.00  0.00    -0.067 C 
ATOM     30  C   LIG    1       39.861  -2.976  13.253  0.00  0.00    -0.103 C 
ATOM     31  C   LIG    1       41.189  -3.481  12.991  0.00  0.00    +0.106 C 
ENDBRANCH  13  29
BRANCH  13  32
ATOM     32  O   LIG    1       36.622  -2.831  14.013  0.00  0.00    -0.376 OA
ATOM     33  H   LIG    1       36.996  -3.700  13.788  0.00  0.00    +0.211 HD
ENDBRANCH  13  32
TORSDOF 4
ENDMDL
MODEL 9
REMARK VINA RESULT:      -5.3      1.869      2.476
REMARK  Name = 
REMARK                            x       y       z     vdW  Elec       q    Type
REMARK                         _______ _______ _______ _____ _____    ______ ____
ROOT
ATOM      1  O   LIG    1       32.588  -3.268  20.736  0.00  0.00    -0.293 OA
ATOM      2  C   LIG    1       33.612  -2.976  20.121  0.00  0.00    +0.157 C 
ATOM      3  C   LIG    1       34.991  -3.495  20.500  0.00  0.00    +0.083 C 
ATOM      4  C   LIG    1       36.096  -2.543  19.986  0.00  0.00    +0.043 C 
ATOM      5  C   LIG    1       35.925  -2.303  18.501  0.00  0.00    -0.044 C 
ATOM      6  C   LIG    1       36.893  -2.133  17.565  0.00  0.00    -0.055 C 
ATOM      7  C   LIG    1       36.478  -2.208  16.094  0.00  0.00    +0.020 C 
ATOM      8  C   LIG    1       34.987  -2.420  15.743  0.00  0.00    +0.013 C 
ATOM      9  C   LIG    1       34.293  -3.196  16.837  0.00  0.00    +0.036 C 
ATOM     10  C   LIG    1       37.110  -1.214  15.048  0.00  0.00    +0.006 C 
ATOM     11  C   LIG    1       36.976  -0.799  13.561  0.00  0.00    +0.008 C 
ATOM     12  C   LIG    1       38.270  -1.501  12.938  0.00  0.00    +0.049 C 
ATOM     13  C   LIG    1       39.092  -2.020  14.202  0.00  0.00    +0.132 C 
ATOM     14  C   LIG    1       38.641  -0.969  15.272  0.00  0.00    +0.012 C 
ATOM     15  C   LIG    1       39.158   0.463  14.818  0.00  0.00    +0.015 C 
ATOM     16  C   LIG    1       38.955  -0.872  16.789  0.00  0.00    +0.023 C 
ATOM     17  C   LIG    1       38.362  -1.816  17.851  0.00  0.00    +0.046 C 
ATOM     18  C   LIG    1       34.524  -2.417  18.088  0.00  0.00    -0.041 C 
ATOM     19  C   LIG    1       33.512  -2.090  18.910  0.00  0.00    +0.050 C 
ENDROOT
BRANCH  17  20
ATOM     20  C   LIG    1       39.492  -2.811  18.172  0.00  0.00    -0.040 A 
ATOM     21  C   LIG    1       40.581  -2.894  17.281  0.00  0.00    +0.006 A 
ATOM     22  C   LIG    1       41.288  -4.101  17.080  0.00  0.00    +0.023 A 
ATOM     23  C   LIG    1       40.939  -5.292  17.735  0.00  0.00    +0.029 A 
ATOM     24  C   LIG    1       39.946  -5.150  18.717  0.00  0.00    +0.023 A 
ATOM     25  C   LIG    1       39.278  -3.931  18.966  0.00  0.00    +0.006 A 
BRANCH  23  26
ATOM     26  N   LIG    1       41.472  -6.533  17.372  0.00  0.00    -0.336 N 
ATOM     27  C   LIG    1       42.419  -6.626  16.264  0.00  0.00    +0.129 C 
ATOM     28  C   LIG    1       41.574  -7.602  18.365  0.00  0.00    +0.129 C 
ENDBRANCH  23  26
ENDBRANCH  17  20
BRANCH  13  29
ATOM     29  C   LIG    1       40.484  -2.288  13.939  0.00  0.00    -0.067 C 
ATOM     30  C   LIG    1       41.422  -2.874  13.504  0.00  0.00    -0.103 C 
ATOM     31  C   LIG    1       42.563  -3.586  12.975  0.00  0.00    +0.106 C 
ENDBRANCH  13  29
BRANCH  13  32
ATOM     32  O   LIG    1       38.592  -3.348  14.461  0.00  0.00    -0.376 OA
ATOM     33  H   LIG    1       37.674  -3.391  14.143  0.00  0.00    +0.211 HD
ENDBRANCH  13  32
TORSDOF 4
ENDMDL
