MODEL 1
REMARK VINA RESULT:      -0.7      0.000      0.000
REMARK  Name = 
REMARK                            x       y       z     vdW  Elec       q    Type
REMARK                         _______ _______ _______ _____ _____    ______ ____
ROOT
ATOM      1  O   LIG    1       68.669  49.980  90.453  0.00  0.00    -0.293 OA
ATOM      2  C   LIG    1       68.746  49.429  91.549  0.00  0.00    +0.157 C 
ATOM      3  C   LIG    1       69.401  50.072  92.762  0.00  0.00    +0.083 C 
ATOM      4  C   LIG    1       69.883  48.994  93.761  0.00  0.00    +0.043 C 
ATOM      5  C   LIG    1       68.742  48.062  94.110  0.00  0.00    -0.044 C 
ATOM      6  C   LIG    1       68.487  47.462  95.300  0.00  0.00    -0.055 C 
ATOM      7  C   LIG    1       67.115  46.811  95.487  0.00  0.00    +0.020 C 
ATOM      8  C   LIG    1       66.111  46.822  94.310  0.00  0.00    +0.013 C 
ATOM      9  C   LIG    1       66.340  48.029  93.432  0.00  0.00    +0.036 C 
ATOM     10  C   LIG    1       66.994  45.437  96.247  0.00  0.00    +0.006 C 
ATOM     11  C   LIG    1       65.944  44.351  96.595  0.00  0.00    +0.008 C 
ATOM     12  C   LIG    1       65.689  44.667  98.141  0.00  0.00    +0.049 C 
ATOM     13  C   LIG    1       66.809  45.737  98.520  0.00  0.00    +0.132 C 
ATOM     14  C   LIG    1       67.928  45.337  97.500  0.00  0.00    +0.012 C 
ATOM     15  C   LIG    1       68.420  43.866  97.847  0.00  0.00    +0.015 C 
ATOM     16  C   LIG    1       69.303  45.990  97.201  0.00  0.00    +0.023 C 
ATOM     17  C   LIG    1       69.475  47.329  96.460  0.00  0.00    +0.046 C 
ATOM     18  C   LIG    1       67.771  47.957  93.018  0.00  0.00    -0.041 C 
ATOM     19  C   LIG    1       68.137  48.066  91.730  0.00  0.00    +0.050 C 
ENDROOT
BRANCH  17  20
ATOM     20  C   LIG    1       69.769  48.359  97.567  0.00  0.00    -0.040 A 
ATOM     21  C   LIG    1       70.086  47.883  98.854  0.00  0.00    +0.006 A 
ATOM     22  C   LIG    1       69.747  48.606 100.020  0.00  0.00    +0.023 A 
ATOM     23  C   LIG    1       69.059  49.828  99.970  0.00  0.00    +0.029 A 
ATOM     24  C   LIG    1       68.881  50.346  98.678  0.00  0.00    +0.023 A 
ATOM     25  C   LIG    1       69.274  49.656  97.510  0.00  0.00    +0.006 A 
BRANCH  23  26
ATOM     26  N   LIG    1       68.515  50.432 101.108  0.00  0.00    -0.336 N 
ATOM     27  C   LIG    1       67.080  50.343 101.367  0.00  0.00    +0.129 C 
ATOM     28  C   LIG    1       69.347  50.638 102.294  0.00  0.00    +0.129 C 
ENDBRANCH  23  26
ENDBRANCH  17  20
BRANCH  13  29
ATOM     29  C   LIG    1       67.073  45.849  99.933  0.00  0.00    -0.067 C 
ATOM     30  C   LIG    1       67.659  45.680 100.954  0.00  0.00    -0.103 C 
ATOM     31  C   LIG    1       68.372  45.475 102.194  0.00  0.00    +0.106 C 
ENDBRANCH  13  29
BRANCH  13  32
ATOM     32  O   LIG    1       66.216  47.022  98.241  0.00  0.00    -0.376 OA
ATOM     33  H   LIG    1       66.090  47.485  99.088  0.00  0.00    +0.211 HD
ENDBRANCH  13  32
TORSDOF 4
ENDMDL
