MODEL 1
REMARK VINA RESULT:      -5.5      0.000      0.000
REMARK  Name = 
REMARK                            x       y       z     vdW  Elec       q    Type
REMARK                         _______ _______ _______ _____ _____    ______ ____
ROOT
ATOM      1  O   LIG    1       42.503  24.563  13.097  0.00  0.00    -0.293 OA
ATOM      2  C   LIG    1       41.991  25.283  12.242  0.00  0.00    +0.157 C 
ATOM      3  C   LIG    1       40.798  26.186  12.516  0.00  0.00    +0.083 C 
ATOM      4  C   LIG    1       40.022  26.481  11.212  0.00  0.00    +0.043 C 
ATOM      5  C   LIG    1       40.965  27.025  10.159  0.00  0.00    -0.044 C 
ATOM      6  C   LIG    1       40.709  27.962   9.211  0.00  0.00    -0.055 C 
ATOM      7  C   LIG    1       41.903  28.559   8.464  0.00  0.00    +0.020 C 
ATOM      8  C   LIG    1       43.325  28.040   8.781  0.00  0.00    +0.013 C 
ATOM      9  C   LIG    1       43.404  27.556  10.209  0.00  0.00    +0.036 C 
ATOM     10  C   LIG    1       41.799  28.846   6.918  0.00  0.00    +0.006 C 
ATOM     11  C   LIG    1       42.676  29.302   5.725  0.00  0.00    +0.008 C 
ATOM     12  C   LIG    1       42.169  30.806   5.538  0.00  0.00    +0.049 C 
ATOM     13  C   LIG    1       40.901  30.922   6.499  0.00  0.00    +0.132 C 
ATOM     14  C   LIG    1       40.412  29.435   6.489  0.00  0.00    +0.012 C 
ATOM     15  C   LIG    1       39.962  29.064   5.011  0.00  0.00    +0.015 C 
ATOM     16  C   LIG    1       39.266  28.742   7.274  0.00  0.00    +0.023 C 
ATOM     17  C   LIG    1       39.320  28.438   8.782  0.00  0.00    +0.046 C 
ATOM     18  C   LIG    1       42.331  26.528  10.342  0.00  0.00    -0.041 C 
ATOM     19  C   LIG    1       42.581  25.313  10.859  0.00  0.00    +0.050 C 
ENDROOT
BRANCH  17  20
ATOM     20  C   LIG    1       38.458  29.532   9.438  0.00  0.00    -0.040 A 
ATOM     21  C   LIG    1       37.446  30.137   8.666  0.00  0.00    +0.006 A 
ATOM     22  C   LIG    1       37.060  31.481   8.866  0.00  0.00    +0.023 A 
ATOM     23  C   LIG    1       37.671  32.300   9.828  0.00  0.00    +0.029 A 
ATOM     24  C   LIG    1       38.572  31.636  10.674  0.00  0.00    +0.023 A 
ATOM     25  C   LIG    1       38.916  30.275  10.518  0.00  0.00    +0.006 A 
BRANCH  23  26
ATOM     26  N   LIG    1       37.466  33.683   9.877  0.00  0.00    -0.336 N 
ATOM     27  C   LIG    1       36.400  34.292   9.084  0.00  0.00    +0.129 C 
ATOM     28  C   LIG    1       37.865  34.439  11.063  0.00  0.00    +0.129 C 
ENDBRANCH  23  26
ENDBRANCH  17  20
BRANCH  13  29
ATOM     29  C   LIG    1       40.016  32.016   6.187  0.00  0.00    -0.067 C 
ATOM     30  C   LIG    1       39.417  33.026   6.372  0.00  0.00    -0.103 C 
ATOM     31  C   LIG    1       38.689  34.254   6.596  0.00  0.00    +0.106 C 
ENDBRANCH  13  29
BRANCH  13  32
ATOM     32  O   LIG    1       41.429  31.341   7.775  0.00  0.00    -0.376 OA
ATOM     33  H   LIG    1       41.510  30.553   8.339  0.00  0.00    +0.211 HD
ENDBRANCH  13  32
TORSDOF 4
ENDMDL
MODEL 2
REMARK VINA RESULT:      -3.0      2.628      7.414
REMARK  Name = 
REMARK                            x       y       z     vdW  Elec       q    Type
REMARK                         _______ _______ _______ _____ _____    ______ ____
ROOT
ATOM      1  O   LIG    1       38.016  36.568   6.069  0.00  0.00    -0.293 OA
ATOM      2  C   LIG    1       38.279  35.416   6.411  0.00  0.00    +0.157 C 
ATOM      3  C   LIG    1       39.633  34.997   6.961  0.00  0.00    +0.083 C 
ATOM      4  C   LIG    1       39.874  33.487   6.734  0.00  0.00    +0.043 C 
ATOM      5  C   LIG    1       38.718  32.686   7.295  0.00  0.00    -0.044 C 
ATOM      6  C   LIG    1       38.756  31.469   7.894  0.00  0.00    -0.055 C 
ATOM      7  C   LIG    1       37.504  31.008   8.643  0.00  0.00    +0.020 C 
ATOM      8  C   LIG    1       36.250  31.914   8.642  0.00  0.00    +0.013 C 
ATOM      9  C   LIG    1       36.647  33.365   8.515  0.00  0.00    +0.036 C 
ATOM     10  C   LIG    1       37.044  29.504   8.554  0.00  0.00    +0.006 C 
ATOM     11  C   LIG    1       35.874  28.583   8.984  0.00  0.00    +0.008 C 
ATOM     12  C   LIG    1       36.547  27.792  10.199  0.00  0.00    +0.049 C 
ATOM     13  C   LIG    1       38.087  28.203  10.139  0.00  0.00    +0.132 C 
ATOM     14  C   LIG    1       38.236  28.488   8.606  0.00  0.00    +0.012 C 
ATOM     15  C   LIG    1       37.986  27.131   7.817  0.00  0.00    +0.015 C 
ATOM     16  C   LIG    1       39.441  29.027   7.791  0.00  0.00    +0.023 C 
ATOM     17  C   LIG    1       39.927  30.487   7.841  0.00  0.00    +0.046 C 
ATOM     18  C   LIG    1       37.466  33.448   7.270  0.00  0.00    -0.041 C 
ATOM     19  C   LIG    1       37.209  34.362   6.320  0.00  0.00    +0.050 C 
ENDROOT
BRANCH  17  20
ATOM     20  C   LIG    1       41.171  30.459   8.747  0.00  0.00    -0.040 A 
ATOM     21  C   LIG    1       41.895  29.254   8.849  0.00  0.00    +0.006 A 
ATOM     22  C   LIG    1       42.581  28.896  10.032  0.00  0.00    +0.023 A 
ATOM     23  C   LIG    1       42.568  29.704  11.179  0.00  0.00    +0.029 A 
ATOM     24  C   LIG    1       41.961  30.957  11.005  0.00  0.00    +0.023 A 
ATOM     25  C   LIG    1       41.327  31.346   9.804  0.00  0.00    +0.006 A 
BRANCH  23  26
ATOM     26  N   LIG    1       43.039  29.257  12.418  0.00  0.00    -0.336 N 
ATOM     27  C   LIG    1       44.224  29.871  13.013  0.00  0.00    +0.129 C 
ATOM     28  C   LIG    1       42.118  28.639  13.370  0.00  0.00    +0.129 C 
ENDBRANCH  23  26
ENDBRANCH  17  20
BRANCH  13  29
ATOM     29  C   LIG    1       38.971  27.301  10.833  0.00  0.00    -0.067 C 
ATOM     30  C   LIG    1       39.911  26.587  10.982  0.00  0.00    -0.103 C 
ATOM     31  C   LIG    1       41.052  25.719  11.162  0.00  0.00    +0.106 C 
ENDBRANCH  13  29
BRANCH  13  32
ATOM     32  O   LIG    1       38.196  29.389  10.953  0.00  0.00    -0.376 OA
ATOM     33  H   LIG    1       39.089  29.755  10.832  0.00  0.00    +0.211 HD
ENDBRANCH  13  32
TORSDOF 4
ENDMDL
