MODEL 1
REMARK VINA RESULT:      -8.2      0.000      0.000
REMARK  Name = 
REMARK                            x       y       z     vdW  Elec       q    Type
REMARK                         _______ _______ _______ _____ _____    ______ ____
ROOT
ATOM      1  O   LIG    1        7.520  -4.926  23.509  0.00  0.00    -0.293 OA
ATOM      2  C   LIG    1        8.030  -4.649  24.592  0.00  0.00    +0.157 C 
ATOM      3  C   LIG    1        9.124  -3.605  24.757  0.00  0.00    +0.083 C 
ATOM      4  C   LIG    1        9.963  -3.884  26.026  0.00  0.00    +0.043 C 
ATOM      5  C   LIG    1        9.056  -4.008  27.232  0.00  0.00    -0.044 C 
ATOM      6  C   LIG    1        9.301  -3.612  28.507  0.00  0.00    -0.055 C 
ATOM      7  C   LIG    1        8.117  -3.570  29.476  0.00  0.00    +0.020 C 
ATOM      8  C   LIG    1        6.723  -4.022  28.981  0.00  0.00    +0.013 C 
ATOM      9  C   LIG    1        6.584  -3.776  27.498  0.00  0.00    +0.036 C 
ATOM     10  C   LIG    1        8.306  -4.042  30.967  0.00  0.00    +0.006 C 
ATOM     11  C   LIG    1        7.480  -4.302  32.252  0.00  0.00    +0.008 C 
ATOM     12  C   LIG    1        7.876  -3.023  33.125  0.00  0.00    +0.049 C 
ATOM     13  C   LIG    1        9.059  -2.332  32.309  0.00  0.00    +0.132 C 
ATOM     14  C   LIG    1        9.667  -3.586  31.594  0.00  0.00    +0.012 C 
ATOM     15  C   LIG    1       10.248  -4.564  32.703  0.00  0.00    +0.015 C 
ATOM     16  C   LIG    1       10.808  -3.698  30.548  0.00  0.00    +0.023 C 
ATOM     17  C   LIG    1       10.673  -3.254  29.079  0.00  0.00    +0.046 C 
ATOM     18  C   LIG    1        7.725  -4.498  26.864  0.00  0.00    -0.041 C 
ATOM     19  C   LIG    1        7.538  -5.341  25.834  0.00  0.00    +0.050 C 
ENDROOT
BRANCH  17  20
ATOM     20  C   LIG    1       11.396  -1.896  29.009  0.00  0.00    -0.040 A 
ATOM     21  C   LIG    1       12.803  -1.892  28.938  0.00  0.00    +0.006 A 
ATOM     22  C   LIG    1       13.573  -0.848  29.497  0.00  0.00    +0.023 A 
ATOM     23  C   LIG    1       12.990   0.234  30.172  0.00  0.00    +0.029 A 
ATOM     24  C   LIG    1       11.588   0.278  30.106  0.00  0.00    +0.023 A 
ATOM     25  C   LIG    1       10.814  -0.732  29.494  0.00  0.00    +0.006 A 
BRANCH  23  26
ATOM     26  N   LIG    1       13.740   1.142  30.927  0.00  0.00    -0.336 N 
ATOM     27  C   LIG    1       13.076   2.255  31.602  0.00  0.00    +0.129 C 
ATOM     28  C   LIG    1       15.009   0.725  31.522  0.00  0.00    +0.129 C 
ENDBRANCH  23  26
ENDBRANCH  17  20
BRANCH  13  29
ATOM     29  C   LIG    1        9.873  -1.432  33.087  0.00  0.00    -0.067 C 
ATOM     30  C   LIG    1       10.866  -0.877  33.435  0.00  0.00    -0.103 C 
ATOM     31  C   LIG    1       12.072  -0.202  33.857  0.00  0.00    +0.106 C 
ENDBRANCH  13  29
BRANCH  13  32
ATOM     32  O   LIG    1        8.412  -1.416  31.403  0.00  0.00    -0.376 OA
ATOM     33  H   LIG    1        9.022  -1.241  30.666  0.00  0.00    +0.211 HD
ENDBRANCH  13  32
TORSDOF 4
ENDMDL
MODEL 2
REMARK VINA RESULT:      -6.4      2.567      5.531
REMARK  Name = 
REMARK                            x       y       z     vdW  Elec       q    Type
REMARK                         _______ _______ _______ _____ _____    ______ ____
ROOT
ATOM      1  O   LIG    1        6.295  -4.173  33.582  0.00  0.00    -0.293 OA
ATOM      2  C   LIG    1        7.143  -3.624  32.881  0.00  0.00    +0.157 C 
ATOM      3  C   LIG    1        8.235  -2.726  33.442  0.00  0.00    +0.083 C 
ATOM      4  C   LIG    1        8.740  -1.738  32.364  0.00  0.00    +0.043 C 
ATOM      5  C   LIG    1        9.155  -2.495  31.120  0.00  0.00    -0.044 C 
ATOM      6  C   LIG    1       10.173  -2.210  30.269  0.00  0.00    -0.055 C 
ATOM      7  C   LIG    1       10.578  -3.288  29.261  0.00  0.00    +0.020 C 
ATOM      8  C   LIG    1        9.788  -4.617  29.223  0.00  0.00    +0.013 C 
ATOM      9  C   LIG    1        9.221  -4.933  30.586  0.00  0.00    +0.036 C 
ATOM     10  C   LIG    1       10.962  -2.882  27.788  0.00  0.00    +0.006 C 
ATOM     11  C   LIG    1       11.311  -3.527  26.423  0.00  0.00    +0.008 C 
ATOM     12  C   LIG    1       12.891  -3.290  26.376  0.00  0.00    +0.049 C 
ATOM     13  C   LIG    1       13.189  -2.330  27.614  0.00  0.00    +0.132 C 
ATOM     14  C   LIG    1       11.821  -1.574  27.710  0.00  0.00    +0.012 C 
ATOM     15  C   LIG    1       11.621  -0.727  26.380  0.00  0.00    +0.015 C 
ATOM     16  C   LIG    1       11.312  -0.532  28.741  0.00  0.00    +0.023 C 
ATOM     17  C   LIG    1       10.921  -0.878  30.190  0.00  0.00    +0.046 C 
ATOM     18  C   LIG    1        8.404  -3.743  30.965  0.00  0.00    -0.041 C 
ATOM     19  C   LIG    1        7.138  -3.868  31.397  0.00  0.00    +0.050 C 
ENDROOT
BRANCH  17  20
ATOM     20  C   LIG    1       12.119  -0.421  31.043  0.00  0.00    -0.040 A 
ATOM     21  C   LIG    1       12.985   0.554  30.509  0.00  0.00    +0.006 A 
ATOM     22  C   LIG    1       14.361   0.583  30.830  0.00  0.00    +0.023 A 
ATOM     23  C   LIG    1       14.953  -0.364  31.679  0.00  0.00    +0.029 A 
ATOM     24  C   LIG    1       14.047  -1.234  32.306  0.00  0.00    +0.023 A 
ATOM     25  C   LIG    1       12.660  -1.228  32.036  0.00  0.00    +0.006 A 
BRANCH  23  26
ATOM     26  N   LIG    1       16.339  -0.488  31.817  0.00  0.00    -0.336 N 
ATOM     27  C   LIG    1       16.964  -1.807  31.754  0.00  0.00    +0.129 C 
ATOM     28  C   LIG    1       17.212   0.628  31.457  0.00  0.00    +0.129 C 
ENDBRANCH  23  26
ENDBRANCH  17  20
BRANCH  13  29
ATOM     29  C   LIG    1       14.443  -1.624  27.532  0.00  0.00    -0.067 C 
ATOM     30  C   LIG    1       15.572  -1.364  27.800  0.00  0.00    -0.103 C 
ATOM     31  C   LIG    1       16.945  -1.050  28.124  0.00  0.00    +0.106 C 
ENDBRANCH  13  29
BRANCH  13  32
ATOM     32  O   LIG    1       13.433  -3.212  28.729  0.00  0.00    -0.376 OA
ATOM     33  H   LIG    1       14.123  -3.845  28.464  0.00  0.00    +0.211 HD
ENDBRANCH  13  32
TORSDOF 4
ENDMDL
MODEL 3
REMARK VINA RESULT:      -6.3      3.959      6.563
REMARK  Name = 
REMARK                            x       y       z     vdW  Elec       q    Type
REMARK                         _______ _______ _______ _____ _____    ______ ____
ROOT
ATOM      1  O   LIG    1        7.478  -4.546  32.679  0.00  0.00    -0.293 OA
ATOM      2  C   LIG    1        8.309  -3.678  32.418  0.00  0.00    +0.157 C 
ATOM      3  C   LIG    1        7.968  -2.199  32.318  0.00  0.00    +0.083 C 
ATOM      4  C   LIG    1        8.992  -1.460  31.426  0.00  0.00    +0.043 C 
ATOM      5  C   LIG    1       10.399  -1.726  31.919  0.00  0.00    -0.044 C 
ATOM      6  C   LIG    1       11.459  -0.879  31.919  0.00  0.00    -0.055 C 
ATOM      7  C   LIG    1       12.685  -1.278  32.743  0.00  0.00    +0.020 C 
ATOM      8  C   LIG    1       12.682  -2.633  33.489  0.00  0.00    +0.013 C 
ATOM      9  C   LIG    1       11.273  -3.027  33.862  0.00  0.00    +0.036 C 
ATOM     10  C   LIG    1       14.132  -1.011  32.179  0.00  0.00    +0.006 C 
ATOM     11  C   LIG    1       15.617  -1.297  32.514  0.00  0.00    +0.008 C 
ATOM     12  C   LIG    1       16.088   0.140  33.034  0.00  0.00    +0.049 C 
ATOM     13  C   LIG    1       14.866   1.107  32.696  0.00  0.00    +0.132 C 
ATOM     14  C   LIG    1       14.268   0.370  31.451  0.00  0.00    +0.012 C 
ATOM     15  C   LIG    1       15.345   0.401  30.284  0.00  0.00    +0.015 C 
ATOM     16  C   LIG    1       12.994   0.667  30.616  0.00  0.00    +0.023 C 
ATOM     17  C   LIG    1       11.560   0.421  31.120  0.00  0.00    +0.046 C 
ATOM     18  C   LIG    1       10.505  -3.028  32.583  0.00  0.00    -0.041 C 
ATOM     19  C   LIG    1        9.746  -4.075  32.219  0.00  0.00    +0.050 C 
ENDROOT
BRANCH  17  20
ATOM     20  C   LIG    1       11.037   1.813  31.520  0.00  0.00    -0.040 A 
ATOM     21  C   LIG    1        9.698   2.134  31.223  0.00  0.00    +0.006 A 
ATOM     22  C   LIG    1        9.296   3.457  30.932  0.00  0.00    +0.023 A 
ATOM     23  C   LIG    1       10.205   4.526  30.901  0.00  0.00    +0.029 A 
ATOM     24  C   LIG    1       11.500   4.205  31.337  0.00  0.00    +0.023 A 
ATOM     25  C   LIG    1       11.892   2.895  31.689  0.00  0.00    +0.006 A 
BRANCH  23  26
ATOM     26  N   LIG    1        9.868   5.783  30.390  0.00  0.00    -0.336 N 
ATOM     27  C   LIG    1       10.552   6.978  30.880  0.00  0.00    +0.129 C 
ATOM     28  C   LIG    1        9.308   5.899  29.044  0.00  0.00    +0.129 C 
ENDBRANCH  23  26
ENDBRANCH  17  20
BRANCH  13  29
ATOM     29  C   LIG    1       15.207   2.507  32.659  0.00  0.00    -0.067 C 
ATOM     30  C   LIG    1       15.356   3.585  32.180  0.00  0.00    -0.103 C 
ATOM     31  C   LIG    1       15.536   4.895  31.597  0.00  0.00    +0.106 C 
ENDBRANCH  13  29
BRANCH  13  32
ATOM     32  O   LIG    1       14.010   1.056  33.856  0.00  0.00    -0.376 OA
ATOM     33  H   LIG    1       14.419   1.595  34.555  0.00  0.00    +0.211 HD
ENDBRANCH  13  32
TORSDOF 4
ENDMDL
MODEL 4
REMARK VINA RESULT:      -5.7      5.777     10.502
REMARK  Name = 
REMARK                            x       y       z     vdW  Elec       q    Type
REMARK                         _______ _______ _______ _____ _____    ______ ____
ROOT
ATOM      1  O   LIG    1       13.197  -3.936  18.167  0.00  0.00    -0.293 OA
ATOM      2  C   LIG    1       12.044  -3.838  18.580  0.00  0.00    +0.157 C 
ATOM      3  C   LIG    1       11.638  -4.166  20.009  0.00  0.00    +0.083 C 
ATOM      4  C   LIG    1       10.138  -4.533  20.083  0.00  0.00    +0.043 C 
ATOM      5  C   LIG    1        9.304  -3.438  19.452  0.00  0.00    -0.044 C 
ATOM      6  C   LIG    1        8.074  -3.001  19.827  0.00  0.00    -0.055 C 
ATOM      7  C   LIG    1        7.574  -1.687  19.224  0.00  0.00    +0.020 C 
ATOM      8  C   LIG    1        8.456  -0.950  18.189  0.00  0.00    +0.013 C 
ATOM      9  C   LIG    1        9.917  -1.239  18.440  0.00  0.00    +0.036 C 
ATOM     10  C   LIG    1        6.063  -1.543  18.799  0.00  0.00    +0.006 C 
ATOM     11  C   LIG    1        5.112  -0.551  18.083  0.00  0.00    +0.008 C 
ATOM     12  C   LIG    1        4.308   0.044  19.330  0.00  0.00    +0.049 C 
ATOM     13  C   LIG    1        4.748  -0.868  20.562  0.00  0.00    +0.132 C 
ATOM     14  C   LIG    1        5.069  -2.205  19.813  0.00  0.00    +0.012 C 
ATOM     15  C   LIG    1        3.726  -2.752  19.163  0.00  0.00    +0.015 C 
ATOM     16  C   LIG    1        5.648  -3.545  20.339  0.00  0.00    +0.023 C 
ATOM     17  C   LIG    1        7.116  -3.738  20.764  0.00  0.00    +0.046 C 
ATOM     18  C   LIG    1       10.042  -2.726  18.405  0.00  0.00    -0.041 C 
ATOM     19  C   LIG    1       10.972  -3.336  17.652  0.00  0.00    +0.050 C 
ENDROOT
BRANCH  17  20
ATOM     20  C   LIG    1        7.091  -3.701  22.303  0.00  0.00    -0.040 A 
ATOM     21  C   LIG    1        7.867  -2.725  22.959  0.00  0.00    +0.006 A 
ATOM     22  C   LIG    1        8.435  -2.958  24.232  0.00  0.00    +0.023 A 
ATOM     23  C   LIG    1        8.281  -4.177  24.909  0.00  0.00    +0.029 A 
ATOM     24  C   LIG    1        7.392  -5.076  24.300  0.00  0.00    +0.023 A 
ATOM     25  C   LIG    1        6.771  -4.822  23.057  0.00  0.00    +0.006 A 
BRANCH  23  26
ATOM     26  N   LIG    1        9.025  -4.503  26.048  0.00  0.00    -0.336 N 
ATOM     27  C   LIG    1       10.368  -3.956  26.225  0.00  0.00    +0.129 C 
ATOM     28  C   LIG    1        8.340  -4.876  27.285  0.00  0.00    +0.129 C 
ENDBRANCH  23  26
ENDBRANCH  17  20
BRANCH  13  29
ATOM     29  C   LIG    1        3.848  -0.825  21.687  0.00  0.00    -0.067 C 
ATOM     30  C   LIG    1        2.810  -0.702  22.254  0.00  0.00    -0.103 C 
ATOM     31  C   LIG    1        1.548  -0.554  22.943  0.00  0.00    +0.106 C 
ENDBRANCH  13  29
BRANCH  13  32
ATOM     32  O   LIG    1        5.917  -0.226  21.111  0.00  0.00    -0.376 OA
ATOM     33  H   LIG    1        6.583  -0.914  21.285  0.00  0.00    +0.211 HD
ENDBRANCH  13  32
TORSDOF 4
ENDMDL
MODEL 5
REMARK VINA RESULT:      -5.6      1.539      2.138
REMARK  Name = 
REMARK                            x       y       z     vdW  Elec       q    Type
REMARK                         _______ _______ _______ _____ _____    ______ ____
ROOT
ATOM      1  O   LIG    1       11.539  -4.059  23.004  0.00  0.00    -0.293 OA
ATOM      2  C   LIG    1       11.479  -3.802  24.205  0.00  0.00    +0.157 C 
ATOM      3  C   LIG    1       12.062  -2.538  24.818  0.00  0.00    +0.083 C 
ATOM      4  C   LIG    1       12.378  -2.751  26.317  0.00  0.00    +0.043 C 
ATOM      5  C   LIG    1       11.151  -3.266  27.039  0.00  0.00    -0.044 C 
ATOM      6  C   LIG    1       10.749  -2.990  28.306  0.00  0.00    -0.055 C 
ATOM      7  C   LIG    1        9.325  -3.388  28.700  0.00  0.00    +0.020 C 
ATOM      8  C   LIG    1        8.436  -4.122  27.669  0.00  0.00    +0.013 C 
ATOM      9  C   LIG    1        8.823  -3.729  26.263  0.00  0.00    +0.036 C 
ATOM     10  C   LIG    1        9.044  -3.986  30.130  0.00  0.00    +0.006 C 
ATOM     11  C   LIG    1        7.897  -4.620  30.957  0.00  0.00    +0.008 C 
ATOM     12  C   LIG    1        7.524  -3.407  31.930  0.00  0.00    +0.049 C 
ATOM     13  C   LIG    1        8.673  -2.329  31.683  0.00  0.00    +0.132 C 
ATOM     14  C   LIG    1        9.851  -3.274  31.269  0.00  0.00    +0.012 C 
ATOM     15  C   LIG    1       10.211  -4.202  32.508  0.00  0.00    +0.015 C 
ATOM     16  C   LIG    1       11.289  -2.944  30.786  0.00  0.00    +0.023 C 
ATOM     17  C   LIG    1       11.616  -2.363  29.398  0.00  0.00    +0.046 C 
ATOM     18  C   LIG    1       10.279  -4.036  26.149  0.00  0.00    -0.041 C 
ATOM     19  C   LIG    1       10.767  -4.756  25.124  0.00  0.00    +0.050 C 
ENDROOT
BRANCH  17  20
ATOM     20  C   LIG    1       11.875  -0.866  29.647  0.00  0.00    -0.040 A 
ATOM     21  C   LIG    1       13.211  -0.422  29.721  0.00  0.00    +0.006 A 
ATOM     22  C   LIG    1       13.589   0.669  30.534  0.00  0.00    +0.023 A 
ATOM     23  C   LIG    1       12.668   1.363  31.332  0.00  0.00    +0.029 A 
ATOM     24  C   LIG    1       11.328   0.995  31.134  0.00  0.00    +0.023 A 
ATOM     25  C   LIG    1       10.937  -0.055  30.274  0.00  0.00    +0.006 A 
BRANCH  23  26
ATOM     26  N   LIG    1       13.063   2.282  32.311  0.00  0.00    -0.336 N 
ATOM     27  C   LIG    1       14.446   2.750  32.357  0.00  0.00    +0.129 C 
ATOM     28  C   LIG    1       12.081   3.194  32.895  0.00  0.00    +0.129 C 
ENDBRANCH  23  26
ENDBRANCH  17  20
BRANCH  13  29
ATOM     29  C   LIG    1        8.814  -1.357  32.738  0.00  0.00    -0.067 C 
ATOM     30  C   LIG    1        9.008  -0.289  33.224  0.00  0.00    -0.103 C 
ATOM     31  C   LIG    1        9.244   1.009  33.813  0.00  0.00    +0.106 C 
ENDBRANCH  13  29
BRANCH  13  32
ATOM     32  O   LIG    1        8.194  -1.505  30.601  0.00  0.00    -0.376 OA
ATOM     33  H   LIG    1        7.248  -1.335  30.749  0.00  0.00    +0.211 HD
ENDBRANCH  13  32
TORSDOF 4
ENDMDL
MODEL 6
REMARK VINA RESULT:      -5.3      1.668      2.082
REMARK  Name = 
REMARK                            x       y       z     vdW  Elec       q    Type
REMARK                         _______ _______ _______ _____ _____    ______ ____
ROOT
ATOM      1  O   LIG    1        7.672  -4.755  22.133  0.00  0.00    -0.293 OA
ATOM      2  C   LIG    1        8.097  -4.658  23.283  0.00  0.00    +0.157 C 
ATOM      3  C   LIG    1        9.318  -3.829  23.655  0.00  0.00    +0.083 C 
ATOM      4  C   LIG    1        9.956  -4.350  24.963  0.00  0.00    +0.043 C 
ATOM      5  C   LIG    1        8.913  -4.418  26.059  0.00  0.00    -0.044 C 
ATOM      6  C   LIG    1        9.075  -4.176  27.384  0.00  0.00    -0.055 C 
ATOM      7  C   LIG    1        7.813  -4.016  28.235  0.00  0.00    +0.020 C 
ATOM      8  C   LIG    1        6.429  -4.185  27.567  0.00  0.00    +0.013 C 
ATOM      9  C   LIG    1        6.495  -3.797  26.109  0.00  0.00    +0.036 C 
ATOM     10  C   LIG    1        7.758  -4.634  29.683  0.00  0.00    +0.006 C 
ATOM     11  C   LIG    1        6.764  -4.857  30.851  0.00  0.00    +0.008 C 
ATOM     12  C   LIG    1        7.258  -3.739  31.881  0.00  0.00    +0.049 C 
ATOM     13  C   LIG    1        8.620  -3.193  31.255  0.00  0.00    +0.132 C 
ATOM     14  C   LIG    1        9.096  -4.467  30.480  0.00  0.00    +0.012 C 
ATOM     15  C   LIG    1        9.389  -5.617  31.536  0.00  0.00    +0.015 C 
ATOM     16  C   LIG    1       10.313  -4.682  29.541  0.00  0.00    +0.023 C 
ATOM     17  C   LIG    1       10.414  -4.102  28.118  0.00  0.00    +0.046 C 
ATOM     18  C   LIG    1        7.570  -4.646  25.518  0.00  0.00    -0.041 C 
ATOM     19  C   LIG    1        7.367  -5.357  24.396  0.00  0.00    +0.050 C 
ENDROOT
BRANCH  17  20
ATOM     20  C   LIG    1       11.346  -2.884  28.253  0.00  0.00    -0.040 A 
ATOM     21  C   LIG    1       12.059  -2.459  27.114  0.00  0.00    +0.006 A 
ATOM     22  C   LIG    1       13.333  -1.857  27.215  0.00  0.00    +0.023 A 
ATOM     23  C   LIG    1       13.975  -1.663  28.447  0.00  0.00    +0.029 A 
ATOM     24  C   LIG    1       13.188  -1.964  29.570  0.00  0.00    +0.023 A 
ATOM     25  C   LIG    1       11.888  -2.510  29.476  0.00  0.00    +0.006 A 
BRANCH  23  26
ATOM     26  N   LIG    1       15.319  -1.289  28.544  0.00  0.00    -0.336 N 
ATOM     27  C   LIG    1       16.152  -1.243  27.345  0.00  0.00    +0.129 C 
ATOM     28  C   LIG    1       15.760  -0.425  29.638  0.00  0.00    +0.129 C 
ENDBRANCH  23  26
ENDBRANCH  17  20
BRANCH  13  29
ATOM     29  C   LIG    1        9.475  -2.509  32.193  0.00  0.00    -0.067 C 
ATOM     30  C   LIG    1        9.808  -1.652  32.947  0.00  0.00    -0.103 C 
ATOM     31  C   LIG    1       10.213  -0.610  33.862  0.00  0.00    +0.106 C 
ENDBRANCH  13  29
BRANCH  13  32
ATOM     32  O   LIG    1        8.230  -2.108  30.387  0.00  0.00    -0.376 OA
ATOM     33  H   LIG    1        8.978  -1.913  29.796  0.00  0.00    +0.211 HD
ENDBRANCH  13  32
TORSDOF 4
ENDMDL
