MODEL 1
REMARK VINA RESULT:      -5.7      0.000      0.000
REMARK  Name = 
REMARK                            x       y       z     vdW  Elec       q    Type
REMARK                         _______ _______ _______ _____ _____    ______ ____
ROOT
ATOM      1  O   LIG    1       10.325   1.344  37.715  0.00  0.00    -0.293 OA
ATOM      2  C   LIG    1       10.647   1.767  36.606  0.00  0.00    +0.157 C 
ATOM      3  C   LIG    1       12.019   2.348  36.301  0.00  0.00    +0.083 C 
ATOM      4  C   LIG    1       11.952   3.309  35.091  0.00  0.00    +0.043 C 
ATOM      5  C   LIG    1       11.312   2.610  33.909  0.00  0.00    -0.044 C 
ATOM      6  C   LIG    1       11.608   2.755  32.592  0.00  0.00    -0.055 C 
ATOM      7  C   LIG    1       11.034   1.722  31.620  0.00  0.00    +0.020 C 
ATOM      8  C   LIG    1       10.115   0.604  32.165  0.00  0.00    +0.013 C 
ATOM      9  C   LIG    1       10.468   0.281  33.596  0.00  0.00    +0.036 C 
ATOM     10  C   LIG    1       10.496   2.183  30.212  0.00  0.00    +0.006 C 
ATOM     11  C   LIG    1        9.757   1.619  28.972  0.00  0.00    +0.008 C 
ATOM     12  C   LIG    1       10.963   1.515  27.928  0.00  0.00    +0.049 C 
ATOM     13  C   LIG    1       12.178   2.260  28.645  0.00  0.00    +0.132 C 
ATOM     14  C   LIG    1       11.389   3.277  29.535  0.00  0.00    +0.012 C 
ATOM     15  C   LIG    1       10.605   4.277  28.581  0.00  0.00    +0.015 C 
ATOM     16  C   LIG    1       11.891   4.295  30.594  0.00  0.00    +0.023 C 
ATOM     17  C   LIG    1       12.423   3.896  31.984  0.00  0.00    +0.046 C 
ATOM     18  C   LIG    1       10.368   1.574  34.335  0.00  0.00    -0.041 C 
ATOM     19  C   LIG    1        9.662   1.680  35.473  0.00  0.00    +0.050 C 
ENDROOT
BRANCH  17  20
ATOM     20  C   LIG    1       13.955   3.997  31.864  0.00  0.00    -0.040 A 
ATOM     21  C   LIG    1       14.607   5.061  32.518  0.00  0.00    +0.006 A 
ATOM     22  C   LIG    1       15.793   5.634  32.007  0.00  0.00    +0.023 A 
ATOM     23  C   LIG    1       16.381   5.197  30.811  0.00  0.00    +0.029 A 
ATOM     24  C   LIG    1       15.794   4.049  30.256  0.00  0.00    +0.023 A 
ATOM     25  C   LIG    1       14.644   3.433  30.798  0.00  0.00    +0.006 A 
BRANCH  23  26
ATOM     26  N   LIG    1       17.409   5.902  30.177  0.00  0.00    -0.336 N 
ATOM     27  C   LIG    1       17.939   5.430  28.900  0.00  0.00    +0.129 C 
ATOM     28  C   LIG    1       17.574   7.334  30.424  0.00  0.00    +0.129 C 
ENDBRANCH  23  26
ENDBRANCH  17  20
BRANCH  13  29
ATOM     29  C   LIG    1       13.226   2.685  27.751  0.00  0.00    -0.067 C 
ATOM     30  C   LIG    1       14.338   2.804  27.347  0.00  0.00    -0.103 C 
ATOM     31  C   LIG    1       15.689   2.948  26.855  0.00  0.00    +0.106 C 
ENDBRANCH  13  29
BRANCH  13  32
ATOM     32  O   LIG    1       12.853   1.237  29.406  0.00  0.00    -0.376 OA
ATOM     33  H   LIG    1       12.262   0.467  29.465  0.00  0.00    +0.211 HD
ENDBRANCH  13  32
TORSDOF 4
ENDMDL
MODEL 2
REMARK VINA RESULT:      -4.7      2.090      3.419
REMARK  Name = 
REMARK                            x       y       z     vdW  Elec       q    Type
REMARK                         _______ _______ _______ _____ _____    ______ ____
ROOT
ATOM      1  O   LIG    1       12.186   3.298  36.490  0.00  0.00    -0.293 OA
ATOM      2  C   LIG    1       11.969   3.190  35.284  0.00  0.00    +0.157 C 
ATOM      3  C   LIG    1       13.073   3.063  34.245  0.00  0.00    +0.083 C 
ATOM      4  C   LIG    1       12.579   3.541  32.860  0.00  0.00    +0.043 C 
ATOM      5  C   LIG    1       11.305   2.814  32.483  0.00  0.00    -0.044 C 
ATOM      6  C   LIG    1       10.905   2.410  31.251  0.00  0.00    -0.055 C 
ATOM      7  C   LIG    1        9.730   1.435  31.171  0.00  0.00    +0.020 C 
ATOM      8  C   LIG    1        9.025   0.997  32.477  0.00  0.00    +0.013 C 
ATOM      9  C   LIG    1        9.993   1.029  33.635  0.00  0.00    +0.036 C 
ATOM     10  C   LIG    1        8.646   1.601  30.040  0.00  0.00    +0.006 C 
ATOM     11  C   LIG    1        7.284   1.012  29.592  0.00  0.00    +0.008 C 
ATOM     12  C   LIG    1        7.739   0.124  28.343  0.00  0.00    +0.049 C 
ATOM     13  C   LIG    1        9.265   0.519  28.106  0.00  0.00    +0.132 C 
ATOM     14  C   LIG    1        9.256   1.988  28.649  0.00  0.00    +0.012 C 
ATOM     15  C   LIG    1        8.301   2.859  27.725  0.00  0.00    +0.015 C 
ATOM     16  C   LIG    1       10.413   3.005  28.833  0.00  0.00    +0.023 C 
ATOM     17  C   LIG    1       11.495   2.889  29.923  0.00  0.00    +0.046 C 
ATOM     18  C   LIG    1       10.534   2.419  33.665  0.00  0.00    -0.041 C 
ATOM     19  C   LIG    1       10.547   3.144  34.797  0.00  0.00    +0.050 C 
ENDROOT
BRANCH  17  20
ATOM     20  C   LIG    1       12.735   2.342  29.194  0.00  0.00    -0.040 A 
ATOM     21  C   LIG    1       13.998   2.533  29.788  0.00  0.00    +0.006 A 
ATOM     22  C   LIG    1       15.170   2.686  29.014  0.00  0.00    +0.023 A 
ATOM     23  C   LIG    1       15.147   2.677  27.611  0.00  0.00    +0.029 A 
ATOM     24  C   LIG    1       13.905   2.345  27.048  0.00  0.00    +0.023 A 
ATOM     25  C   LIG    1       12.742   2.130  27.821  0.00  0.00    +0.006 A 
BRANCH  23  26
ATOM     26  N   LIG    1       16.250   3.059  26.839  0.00  0.00    -0.336 N 
ATOM     27  C   LIG    1       16.052   3.565  25.483  0.00  0.00    +0.129 C 
ATOM     28  C   LIG    1       17.481   3.502  27.492  0.00  0.00    +0.129 C 
ENDBRANCH  23  26
ENDBRANCH  17  20
BRANCH  13  29
ATOM     29  C   LIG    1        9.767   0.198  26.793  0.00  0.00    -0.067 C 
ATOM     30  C   LIG    1        9.894  -0.436  25.795  0.00  0.00    -0.103 C 
ATOM     31  C   LIG    1       10.048  -1.206  24.582  0.00  0.00    +0.106 C 
ENDBRANCH  13  29
BRANCH  13  32
ATOM     32  O   LIG    1       10.026  -0.389  28.929  0.00  0.00    -0.376 OA
ATOM     33  H   LIG    1        9.762  -1.296  28.696  0.00  0.00    +0.211 HD
ENDBRANCH  13  32
TORSDOF 4
ENDMDL
MODEL 3
REMARK VINA RESULT:      -3.5      4.206      9.169
REMARK  Name = 
REMARK                            x       y       z     vdW  Elec       q    Type
REMARK                         _______ _______ _______ _____ _____    ______ ____
ROOT
ATOM      1  O   LIG    1       21.540   8.784  32.139  0.00  0.00    -0.293 OA
ATOM      2  C   LIG    1       21.016   8.002  31.348  0.00  0.00    +0.157 C 
ATOM      3  C   LIG    1       19.604   7.464  31.518  0.00  0.00    +0.083 C 
ATOM      4  C   LIG    1       19.439   6.115  30.778  0.00  0.00    +0.043 C 
ATOM      5  C   LIG    1       19.863   6.261  29.332  0.00  0.00    -0.044 C 
ATOM      6  C   LIG    1       19.332   5.654  28.240  0.00  0.00    -0.055 C 
ATOM      7  C   LIG    1       19.734   6.192  26.865  0.00  0.00    +0.020 C 
ATOM      8  C   LIG    1       20.752   7.353  26.780  0.00  0.00    +0.013 C 
ATOM      9  C   LIG    1       20.668   8.221  28.012  0.00  0.00    +0.036 C 
ATOM     10  C   LIG    1       20.002   5.192  25.678  0.00  0.00    +0.006 C 
ATOM     11  C   LIG    1       20.512   5.182  24.214  0.00  0.00    +0.008 C 
ATOM     12  C   LIG    1       19.139   4.983  23.421  0.00  0.00    +0.049 C 
ATOM     13  C   LIG    1       18.064   4.667  24.556  0.00  0.00    +0.132 C 
ATOM     14  C   LIG    1       18.987   4.000  25.630  0.00  0.00    +0.012 C 
ATOM     15  C   LIG    1       19.572   2.653  25.023  0.00  0.00    +0.015 C 
ATOM     16  C   LIG    1       18.671   3.503  27.066  0.00  0.00    +0.023 C 
ATOM     17  C   LIG    1       18.404   4.439  28.260  0.00  0.00    +0.046 C 
ATOM     18  C   LIG    1       20.883   7.299  29.165  0.00  0.00    -0.041 C 
ATOM     19  C   LIG    1       21.782   7.573  30.126  0.00  0.00    +0.050 C 
ENDROOT
BRANCH  17  20
ATOM     20  C   LIG    1       16.875   4.427  28.438  0.00  0.00    -0.040 A 
ATOM     21  C   LIG    1       16.354   4.543  29.742  0.00  0.00    +0.006 A 
ATOM     22  C   LIG    1       15.136   3.929  30.114  0.00  0.00    +0.023 A 
ATOM     23  C   LIG    1       14.385   3.153  29.220  0.00  0.00    +0.029 A 
ATOM     24  C   LIG    1       14.850   3.170  27.896  0.00  0.00    +0.023 A 
ATOM     25  C   LIG    1       16.034   3.834  27.504  0.00  0.00    +0.006 A 
BRANCH  23  26
ATOM     26  N   LIG    1       13.313   2.355  29.634  0.00  0.00    -0.336 N 
ATOM     27  C   LIG    1       12.442   2.806  30.717  0.00  0.00    +0.129 C 
ATOM     28  C   LIG    1       12.701   1.411  28.700  0.00  0.00    +0.129 C 
ENDBRANCH  23  26
ENDBRANCH  17  20
BRANCH  13  29
ATOM     29  C   LIG    1       16.865   4.024  24.078  0.00  0.00    -0.067 C 
ATOM     30  C   LIG    1       15.823   3.933  23.513  0.00  0.00    -0.103 C 
ATOM     31  C   LIG    1       14.557   3.822  22.826  0.00  0.00    +0.106 C 
ENDBRANCH  13  29
BRANCH  13  32
ATOM     32  O   LIG    1       17.552   5.953  24.962  0.00  0.00    -0.376 OA
ATOM     33  H   LIG    1       18.147   6.312  25.643  0.00  0.00    +0.211 HD
ENDBRANCH  13  32
TORSDOF 4
ENDMDL
