MODEL 1
REMARK VINA RESULT:      -2.3      0.000      0.000
REMARK  Name = 
REMARK                            x       y       z     vdW  Elec       q    Type
REMARK                         _______ _______ _______ _____ _____    ______ ____
ROOT
ATOM      1  O   LIG    1       22.295   5.149  50.949  0.00  0.00    -0.293 OA
ATOM      2  C   LIG    1       21.474   4.387  51.458  0.00  0.00    +0.157 C 
ATOM      3  C   LIG    1       21.598   3.854  52.877  0.00  0.00    +0.083 C 
ATOM      4  C   LIG    1       20.826   2.523  53.033  0.00  0.00    +0.043 C 
ATOM      5  C   LIG    1       19.394   2.697  52.573  0.00  0.00    -0.044 C 
ATOM      6  C   LIG    1       18.277   2.118  53.081  0.00  0.00    -0.055 C 
ATOM      7  C   LIG    1       16.924   2.682  52.642  0.00  0.00    +0.020 C 
ATOM      8  C   LIG    1       16.888   3.838  51.615  0.00  0.00    +0.013 C 
ATOM      9  C   LIG    1       18.137   4.680  51.724  0.00  0.00    +0.036 C 
ATOM     10  C   LIG    1       15.722   1.706  52.351  0.00  0.00    +0.006 C 
ATOM     11  C   LIG    1       14.272   1.724  51.806  0.00  0.00    +0.008 C 
ATOM     12  C   LIG    1       13.441   1.551  53.161  0.00  0.00    +0.049 C 
ATOM     13  C   LIG    1       14.543   1.218  54.265  0.00  0.00    +0.132 C 
ATOM     14  C   LIG    1       15.625   0.522  53.372  0.00  0.00    +0.012 C 
ATOM     15  C   LIG    1       15.002  -0.816  52.781  0.00  0.00    +0.015 C 
ATOM     16  C   LIG    1       17.041  -0.004  53.726  0.00  0.00    +0.023 C 
ATOM     17  C   LIG    1       18.248   0.908  54.016  0.00  0.00    +0.046 C 
ATOM     18  C   LIG    1       19.275   3.732  51.543  0.00  0.00    -0.041 C 
ATOM     19  C   LIG    1       20.263   3.979  50.666  0.00  0.00    +0.050 C 
ENDROOT
BRANCH  17  20
ATOM     20  C   LIG    1       18.389   0.902  55.549  0.00  0.00    -0.040 A 
ATOM     21  C   LIG    1       18.118  -0.295  56.240  0.00  0.00    +0.006 A 
ATOM     22  C   LIG    1       17.590  -0.296  57.551  0.00  0.00    +0.023 A 
ATOM     23  C   LIG    1       17.285   0.890  58.236  0.00  0.00    +0.029 A 
ATOM     24  C   LIG    1       17.694   2.064  57.584  0.00  0.00    +0.023 A 
ATOM     25  C   LIG    1       18.279   2.067  56.298  0.00  0.00    +0.006 A 
BRANCH  23  26
ATOM     26  N   LIG    1       16.551   0.903  59.426  0.00  0.00    -0.336 N 
ATOM     27  C   LIG    1       17.199   0.551  60.688  0.00  0.00    +0.129 C 
ATOM     28  C   LIG    1       15.378   1.767  59.552  0.00  0.00    +0.129 C 
ENDBRANCH  23  26
ENDBRANCH  17  20
BRANCH  13  29
ATOM     29  C   LIG    1       14.023   0.593  55.455  0.00  0.00    -0.067 C 
ATOM     30  C   LIG    1       14.005  -0.152  56.382  0.00  0.00    -0.103 C 
ATOM     31  C   LIG    1       13.984  -1.057  57.508  0.00  0.00    +0.106 C 
ENDBRANCH  13  29
BRANCH  13  32
ATOM     32  O   LIG    1       14.964   2.498  54.779  0.00  0.00    -0.376 OA
ATOM     33  H   LIG    1       15.709   2.809  54.236  0.00  0.00    +0.211 HD
ENDBRANCH  13  32
TORSDOF 4
ENDMDL
MODEL 2
REMARK VINA RESULT:      -2.2      3.049      8.275
REMARK  Name = 
REMARK                            x       y       z     vdW  Elec       q    Type
REMARK                         _______ _______ _______ _____ _____    ______ ____
ROOT
ATOM      1  O   LIG    1       14.185  -0.180  54.565  0.00  0.00    -0.293 OA
ATOM      2  C   LIG    1       15.075   0.467  54.018  0.00  0.00    +0.157 C 
ATOM      3  C   LIG    1       14.805   1.668  53.124  0.00  0.00    +0.083 C 
ATOM      4  C   LIG    1       15.974   1.891  52.136  0.00  0.00    +0.043 C 
ATOM      5  C   LIG    1       17.283   1.979  52.892  0.00  0.00    -0.044 C 
ATOM      6  C   LIG    1       18.362   2.753  52.609  0.00  0.00    -0.055 C 
ATOM      7  C   LIG    1       19.439   2.889  53.687  0.00  0.00    +0.020 C 
ATOM      8  C   LIG    1       19.279   2.110  55.013  0.00  0.00    +0.013 C 
ATOM      9  C   LIG    1       17.818   1.901  55.330  0.00  0.00    +0.036 C 
ATOM     10  C   LIG    1       20.961   2.894  53.280  0.00  0.00    +0.006 C 
ATOM     11  C   LIG    1       22.371   2.888  53.923  0.00  0.00    +0.008 C 
ATOM     12  C   LIG    1       22.812   4.407  53.692  0.00  0.00    +0.049 C 
ATOM     13  C   LIG    1       21.687   5.008  52.734  0.00  0.00    +0.132 C 
ATOM     14  C   LIG    1       21.251   3.710  51.974  0.00  0.00    +0.012 C 
ATOM     15  C   LIG    1       22.488   3.187  51.125  0.00  0.00    +0.015 C 
ATOM     16  C   LIG    1       20.124   3.479  50.933  0.00  0.00    +0.023 C 
ATOM     17  C   LIG    1       18.624   3.462  51.280  0.00  0.00    +0.046 C 
ATOM     18  C   LIG    1       17.246   1.209  54.138  0.00  0.00    -0.041 C 
ATOM     19  C   LIG    1       16.511   0.090  54.260  0.00  0.00    +0.050 C 
ENDROOT
BRANCH  17  20
ATOM     20  C   LIG    1       18.098   4.837  50.828  0.00  0.00    -0.040 A 
ATOM     21  C   LIG    1       18.886   5.594  49.939  0.00  0.00    +0.006 A 
ATOM     22  C   LIG    1       18.883   7.007  49.959  0.00  0.00    +0.023 A 
ATOM     23  C   LIG    1       18.114   7.741  50.875  0.00  0.00    +0.029 A 
ATOM     24  C   LIG    1       17.234   6.970  51.651  0.00  0.00    +0.023 A 
ATOM     25  C   LIG    1       17.189   5.559  51.591  0.00  0.00    +0.006 A 
BRANCH  23  26
ATOM     26  N   LIG    1       18.278   9.117  51.061  0.00  0.00    -0.336 N 
ATOM     27  C   LIG    1       17.261   9.884  51.778  0.00  0.00    +0.129 C 
ATOM     28  C   LIG    1       19.620   9.697  51.084  0.00  0.00    +0.129 C 
ENDBRANCH  23  26
ENDBRANCH  17  20
BRANCH  13  29
ATOM     29  C   LIG    1       22.079   6.204  52.032  0.00  0.00    -0.067 C 
ATOM     30  C   LIG    1       22.819   6.971  51.504  0.00  0.00    -0.103 C 
ATOM     31  C   LIG    1       23.719   7.901  50.862  0.00  0.00    +0.106 C 
ENDBRANCH  13  29
BRANCH  13  32
ATOM     32  O   LIG    1       20.669   5.521  53.619  0.00  0.00    -0.376 OA
ATOM     33  H   LIG    1       20.009   4.819  53.755  0.00  0.00    +0.211 HD
ENDBRANCH  13  32
TORSDOF 4
ENDMDL
MODEL 3
REMARK VINA RESULT:      -2.2      3.798      8.295
REMARK  Name = 
REMARK                            x       y       z     vdW  Elec       q    Type
REMARK                         _______ _______ _______ _____ _____    ______ ____
ROOT
ATOM      1  O   LIG    1       15.225   2.669  52.192  0.00  0.00    -0.293 OA
ATOM      2  C   LIG    1       16.430   2.826  52.376  0.00  0.00    +0.157 C 
ATOM      3  C   LIG    1       17.290   1.847  53.162  0.00  0.00    +0.083 C 
ATOM      4  C   LIG    1       18.542   2.552  53.732  0.00  0.00    +0.043 C 
ATOM      5  C   LIG    1       19.290   3.260  52.621  0.00  0.00    -0.044 C 
ATOM      6  C   LIG    1       20.631   3.416  52.484  0.00  0.00    -0.055 C 
ATOM      7  C   LIG    1       21.154   3.901  51.130  0.00  0.00    +0.020 C 
ATOM      8  C   LIG    1       20.141   4.235  50.009  0.00  0.00    +0.013 C 
ATOM      9  C   LIG    1       18.892   3.402  50.160  0.00  0.00    +0.036 C 
ATOM     10  C   LIG    1       22.339   4.936  51.070  0.00  0.00    +0.006 C 
ATOM     11  C   LIG    1       23.129   5.792  50.047  0.00  0.00    +0.008 C 
ATOM     12  C   LIG    1       24.496   4.968  49.960  0.00  0.00    +0.049 C 
ATOM     13  C   LIG    1       24.386   3.887  51.128  0.00  0.00    +0.132 C 
ATOM     14  C   LIG    1       23.460   4.657  52.129  0.00  0.00    +0.012 C 
ATOM     15  C   LIG    1       24.233   5.950  52.634  0.00  0.00    +0.015 C 
ATOM     16  C   LIG    1       22.831   4.207  53.474  0.00  0.00    +0.023 C 
ATOM     17  C   LIG    1       21.670   3.201  53.586  0.00  0.00    +0.046 C 
ATOM     18  C   LIG    1       18.393   3.676  51.540  0.00  0.00    -0.041 C 
ATOM     19  C   LIG    1       17.115   4.020  51.770  0.00  0.00    +0.050 C 
ENDROOT
BRANCH  17  20
ATOM     20  C   LIG    1       22.333   1.878  54.007  0.00  0.00    -0.040 A 
ATOM     21  C   LIG    1       23.349   1.920  54.983  0.00  0.00    +0.006 A 
ATOM     22  C   LIG    1       24.417   0.995  54.987  0.00  0.00    +0.023 A 
ATOM     23  C   LIG    1       24.544  -0.006  54.013  0.00  0.00    +0.029 A 
ATOM     24  C   LIG    1       23.450  -0.116  53.141  0.00  0.00    +0.023 A 
ATOM     25  C   LIG    1       22.349   0.768  53.171  0.00  0.00    +0.006 A 
BRANCH  23  26
ATOM     26  N   LIG    1       25.706  -0.771  53.868  0.00  0.00    -0.336 N 
ATOM     27  C   LIG    1       26.227  -1.062  52.535  0.00  0.00    +0.129 C 
ATOM     28  C   LIG    1       26.699  -0.801  54.941  0.00  0.00    +0.129 C 
ENDBRANCH  23  26
ENDBRANCH  17  20
BRANCH  13  29
ATOM     29  C   LIG    1       25.647   3.324  51.539  0.00  0.00    -0.067 C 
ATOM     30  C   LIG    1       26.474   2.927  52.296  0.00  0.00    -0.103 C 
ATOM     31  C   LIG    1       27.478   2.443  53.216  0.00  0.00    +0.106 C 
ENDBRANCH  13  29
BRANCH  13  32
ATOM     32  O   LIG    1       23.748   2.741  50.526  0.00  0.00    -0.376 OA
ATOM     33  H   LIG    1       22.837   2.693  50.864  0.00  0.00    +0.211 HD
ENDBRANCH  13  32
TORSDOF 4
ENDMDL
MODEL 4
REMARK VINA RESULT:      -2.2      3.242      5.892
REMARK  Name = 
REMARK                            x       y       z     vdW  Elec       q    Type
REMARK                         _______ _______ _______ _____ _____    ______ ____
ROOT
ATOM      1  O   LIG    1       16.828  10.428  49.973  0.00  0.00    -0.293 OA
ATOM      2  C   LIG    1       16.978   9.235  50.231  0.00  0.00    +0.157 C 
ATOM      3  C   LIG    1       18.341   8.563  50.312  0.00  0.00    +0.083 C 
ATOM      4  C   LIG    1       18.220   7.044  50.048  0.00  0.00    +0.043 C 
ATOM      5  C   LIG    1       17.187   6.436  50.973  0.00  0.00    -0.044 C 
ATOM      6  C   LIG    1       17.201   5.207  51.549  0.00  0.00    -0.055 C 
ATOM      7  C   LIG    1       16.202   4.942  52.677  0.00  0.00    +0.020 C 
ATOM      8  C   LIG    1       15.201   6.052  53.072  0.00  0.00    +0.013 C 
ATOM      9  C   LIG    1       15.787   7.415  52.793  0.00  0.00    +0.036 C 
ATOM     10  C   LIG    1       15.478   3.546  52.773  0.00  0.00    +0.006 C 
ATOM     11  C   LIG    1       14.368   2.827  53.581  0.00  0.00    +0.008 C 
ATOM     12  C   LIG    1       15.249   1.881  54.522  0.00  0.00    +0.049 C 
ATOM     13  C   LIG    1       16.732   2.018  53.950  0.00  0.00    +0.132 C 
ATOM     14  C   LIG    1       16.419   2.336  52.449  0.00  0.00    +0.012 C 
ATOM     15  C   LIG    1       15.687   1.077  51.812  0.00  0.00    +0.015 C 
ATOM     16  C   LIG    1       17.367   2.689  51.272  0.00  0.00    +0.023 C 
ATOM     17  C   LIG    1       18.095   4.039  51.132  0.00  0.00    +0.046 C 
ATOM     18  C   LIG    1       16.154   7.405  51.347  0.00  0.00    -0.041 C 
ATOM     19  C   LIG    1       15.768   8.388  50.517  0.00  0.00    +0.050 C 
ENDROOT
BRANCH  17  20
ATOM     20  C   LIG    1       19.541   3.756  51.578  0.00  0.00    -0.040 A 
ATOM     21  C   LIG    1       19.870   3.944  52.935  0.00  0.00    +0.006 A 
ATOM     22  C   LIG    1       21.163   4.348  53.339  0.00  0.00    +0.023 A 
ATOM     23  C   LIG    1       22.189   4.605  52.418  0.00  0.00    +0.029 A 
ATOM     24  C   LIG    1       21.879   4.276  51.089  0.00  0.00    +0.023 A 
ATOM     25  C   LIG    1       20.606   3.813  50.687  0.00  0.00    +0.006 A 
BRANCH  23  26
ATOM     26  N   LIG    1       23.388   5.226  52.783  0.00  0.00    -0.336 N 
ATOM     27  C   LIG    1       23.415   6.162  53.904  0.00  0.00    +0.129 C 
ATOM     28  C   LIG    1       24.666   4.578  52.487  0.00  0.00    +0.129 C 
ENDBRANCH  23  26
ENDBRANCH  17  20
BRANCH  13  29
ATOM     29  C   LIG    1       17.619   0.948  54.332  0.00  0.00    -0.067 C 
ATOM     30  C   LIG    1       18.519   0.179  54.219  0.00  0.00    -0.103 C 
ATOM     31  C   LIG    1       19.613  -0.754  54.081  0.00  0.00    +0.106 C 
ENDBRANCH  13  29
BRANCH  13  32
ATOM     32  O   LIG    1       17.311   3.132  54.661  0.00  0.00    -0.376 OA
ATOM     33  H   LIG    1       16.584   3.673  55.014  0.00  0.00    +0.211 HD
ENDBRANCH  13  32
TORSDOF 4
ENDMDL
MODEL 5
REMARK VINA RESULT:      -2.2      3.739      5.155
REMARK  Name = 
REMARK                            x       y       z     vdW  Elec       q    Type
REMARK                         _______ _______ _______ _____ _____    ______ ____
ROOT
ATOM      1  O   LIG    1       24.171   5.877  50.215  0.00  0.00    -0.293 OA
ATOM      2  C   LIG    1       23.167   5.690  50.900  0.00  0.00    +0.157 C 
ATOM      3  C   LIG    1       22.588   6.740  51.837  0.00  0.00    +0.083 C 
ATOM      4  C   LIG    1       21.760   6.075  52.961  0.00  0.00    +0.043 C 
ATOM      5  C   LIG    1       20.717   5.154  52.363  0.00  0.00    -0.044 C 
ATOM      6  C   LIG    1       19.462   4.907  52.815  0.00  0.00    -0.055 C 
ATOM      7  C   LIG    1       18.501   4.177  51.875  0.00  0.00    +0.020 C 
ATOM      8  C   LIG    1       19.010   3.713  50.490  0.00  0.00    +0.013 C 
ATOM      9  C   LIG    1       20.110   4.624  50.000  0.00  0.00    +0.036 C 
ATOM     10  C   LIG    1       17.519   3.085  52.448  0.00  0.00    +0.006 C 
ATOM     11  C   LIG    1       16.491   2.031  51.966  0.00  0.00    +0.008 C 
ATOM     12  C   LIG    1       15.119   2.757  52.346  0.00  0.00    +0.049 C 
ATOM     13  C   LIG    1       15.561   4.022  53.211  0.00  0.00    +0.132 C 
ATOM     14  C   LIG    1       16.893   3.479  53.829  0.00  0.00    +0.012 C 
ATOM     15  C   LIG    1       16.544   2.250  54.774  0.00  0.00    +0.015 C 
ATOM     16  C   LIG    1       17.952   4.179  54.721  0.00  0.00    +0.023 C 
ATOM     17  C   LIG    1       18.935   5.249  54.210  0.00  0.00    +0.046 C 
ATOM     18  C   LIG    1       21.147   4.610  51.072  0.00  0.00    -0.041 C 
ATOM     19  C   LIG    1       22.441   4.377  50.795  0.00  0.00    +0.050 C 
ENDROOT
BRANCH  17  20
ATOM     20  C   LIG    1       18.348   6.588  54.691  0.00  0.00    -0.040 A 
ATOM     21  C   LIG    1       17.789   6.646  55.983  0.00  0.00    +0.006 A 
ATOM     22  C   LIG    1       16.712   7.509  56.290  0.00  0.00    +0.023 A 
ATOM     23  C   LIG    1       16.122   8.342  55.328  0.00  0.00    +0.029 A 
ATOM     24  C   LIG    1       16.785   8.368  54.092  0.00  0.00    +0.023 A 
ATOM     25  C   LIG    1       17.900   7.554  53.798  0.00  0.00    +0.006 A 
BRANCH  23  26
ATOM     26  N   LIG    1       14.919   9.017  55.556  0.00  0.00    -0.336 N 
ATOM     27  C   LIG    1       14.472   9.273  56.924  0.00  0.00    +0.129 C 
ATOM     28  C   LIG    1       14.400   9.945  54.552  0.00  0.00    +0.129 C 
ENDBRANCH  23  26
ENDBRANCH  17  20
BRANCH  13  29
ATOM     29  C   LIG    1       14.514   4.579  54.030  0.00  0.00    -0.067 C 
ATOM     30  C   LIG    1       14.028   5.086  54.989  0.00  0.00    -0.103 C 
ATOM     31  C   LIG    1       13.438   5.704  56.154  0.00  0.00    +0.106 C 
ENDBRANCH  13  29
BRANCH  13  32
ATOM     32  O   LIG    1       15.766   5.082  52.254  0.00  0.00    -0.376 OA
ATOM     33  H   LIG    1       15.471   5.915  52.662  0.00  0.00    +0.211 HD
ENDBRANCH  13  32
TORSDOF 4
ENDMDL
MODEL 6
REMARK VINA RESULT:      -2.1      2.668      5.392
REMARK  Name = 
REMARK                            x       y       z     vdW  Elec       q    Type
REMARK                         _______ _______ _______ _____ _____    ______ ____
ROOT
ATOM      1  O   LIG    1       22.239   9.351  50.023  0.00  0.00    -0.293 OA
ATOM      2  C   LIG    1       21.765   8.477  50.746  0.00  0.00    +0.157 C 
ATOM      3  C   LIG    1       20.272   8.308  50.983  0.00  0.00    +0.083 C 
ATOM      4  C   LIG    1       20.007   7.588  52.325  0.00  0.00    +0.043 C 
ATOM      5  C   LIG    1       20.781   6.287  52.378  0.00  0.00    -0.044 C 
ATOM      6  C   LIG    1       20.407   5.115  52.951  0.00  0.00    -0.055 C 
ATOM      7  C   LIG    1       21.224   3.867  52.610  0.00  0.00    +0.020 C 
ATOM      8  C   LIG    1       22.453   4.003  51.681  0.00  0.00    +0.013 C 
ATOM      9  C   LIG    1       22.265   5.153  50.721  0.00  0.00    +0.036 C 
ATOM     10  C   LIG    1       21.549   2.810  53.732  0.00  0.00    +0.006 C 
ATOM     11  C   LIG    1       22.376   1.518  53.954  0.00  0.00    +0.008 C 
ATOM     12  C   LIG    1       21.217   0.417  53.941  0.00  0.00    +0.049 C 
ATOM     13  C   LIG    1       19.863   1.260  53.951  0.00  0.00    +0.132 C 
ATOM     14  C   LIG    1       20.348   2.546  54.702  0.00  0.00    +0.012 C 
ATOM     15  C   LIG    1       20.764   2.138  56.180  0.00  0.00    +0.015 C 
ATOM     16  C   LIG    1       19.606   3.873  55.015  0.00  0.00    +0.023 C 
ATOM     17  C   LIG    1       19.268   4.939  53.956  0.00  0.00    +0.046 C 
ATOM     18  C   LIG    1       22.005   6.349  51.575  0.00  0.00    -0.041 C 
ATOM     19  C   LIG    1       22.689   7.493  51.410  0.00  0.00    +0.050 C 
ENDROOT
BRANCH  17  20
ATOM     20  C   LIG    1       17.772   4.735  53.654  0.00  0.00    -0.040 A 
ATOM     21  C   LIG    1       16.914   4.406  54.722  0.00  0.00    +0.006 A 
ATOM     22  C   LIG    1       15.767   3.601  54.535  0.00  0.00    +0.023 A 
ATOM     23  C   LIG    1       15.424   3.066  53.285  0.00  0.00    +0.029 A 
ATOM     24  C   LIG    1       16.211   3.523  52.217  0.00  0.00    +0.023 A 
ATOM     25  C   LIG    1       17.322   4.378  52.389  0.00  0.00    +0.006 A 
BRANCH  23  26
ATOM     26  N   LIG    1       14.437   2.086  53.132  0.00  0.00    -0.336 N 
ATOM     27  C   LIG    1       14.688   0.923  52.285  0.00  0.00    +0.129 C 
ATOM     28  C   LIG    1       13.439   1.884  54.182  0.00  0.00    +0.129 C 
ENDBRANCH  23  26
ENDBRANCH  17  20
BRANCH  13  29
ATOM     29  C   LIG    1       18.704   0.520  54.382  0.00  0.00    -0.067 C 
ATOM     30  C   LIG    1       17.662   0.336  54.926  0.00  0.00    -0.103 C 
ATOM     31  C   LIG    1       16.397   0.114  55.586  0.00  0.00    +0.106 C 
ENDBRANCH  13  29
BRANCH  13  32
ATOM     32  O   LIG    1       19.550   1.493  52.563  0.00  0.00    -0.376 OA
ATOM     33  H   LIG    1       20.362   1.355  52.045  0.00  0.00    +0.211 HD
ENDBRANCH  13  32
TORSDOF 4
ENDMDL
MODEL 7
REMARK VINA RESULT:      -2.1      3.171      5.596
REMARK  Name = 
REMARK                            x       y       z     vdW  Elec       q    Type
REMARK                         _______ _______ _______ _____ _____    ______ ____
ROOT
ATOM      1  O   LIG    1       24.705  -0.094  55.487  0.00  0.00    -0.293 OA
ATOM      2  C   LIG    1       23.552   0.327  55.424  0.00  0.00    +0.157 C 
ATOM      3  C   LIG    1       23.207   1.772  55.098  0.00  0.00    +0.083 C 
ATOM      4  C   LIG    1       21.816   2.144  55.663  0.00  0.00    +0.043 C 
ATOM      5  C   LIG    1       20.778   1.150  55.184  0.00  0.00    -0.044 C 
ATOM      6  C   LIG    1       19.480   1.385  54.865  0.00  0.00    -0.055 C 
ATOM      7  C   LIG    1       18.722   0.283  54.122  0.00  0.00    +0.020 C 
ATOM      8  C   LIG    1       19.443  -1.052  53.818  0.00  0.00    +0.013 C 
ATOM      9  C   LIG    1       20.928  -0.827  53.668  0.00  0.00    +0.036 C 
ATOM     10  C   LIG    1       17.221  -0.022  54.489  0.00  0.00    +0.006 C 
ATOM     11  C   LIG    1       16.091  -1.032  54.162  0.00  0.00    +0.008 C 
ATOM     12  C   LIG    1       15.164  -0.144  53.209  0.00  0.00    +0.049 C 
ATOM     13  C   LIG    1       15.771   1.326  53.317  0.00  0.00    +0.132 C 
ATOM     14  C   LIG    1       16.375   1.268  54.761  0.00  0.00    +0.012 C 
ATOM     15  C   LIG    1       15.185   1.076  55.796  0.00  0.00    +0.015 C 
ATOM     16  C   LIG    1       17.216   2.309  55.547  0.00  0.00    +0.023 C 
ATOM     17  C   LIG    1       18.687   2.640  55.231  0.00  0.00    +0.046 C 
ATOM     18  C   LIG    1       21.363  -0.170  54.935  0.00  0.00    -0.041 C 
ATOM     19  C   LIG    1       22.410  -0.628  55.641  0.00  0.00    +0.050 C 
ENDROOT
BRANCH  17  20
ATOM     20  C   LIG    1       18.635   3.976  54.467  0.00  0.00    -0.040 A 
ATOM     21  C   LIG    1       17.551   4.842  54.708  0.00  0.00    +0.006 A 
ATOM     22  C   LIG    1       17.043   5.697  53.704  0.00  0.00    +0.023 A 
ATOM     23  C   LIG    1       17.570   5.722  52.405  0.00  0.00    +0.029 A 
ATOM     24  C   LIG    1       18.734   4.957  52.231  0.00  0.00    +0.023 A 
ATOM     25  C   LIG    1       19.283   4.148  53.250  0.00  0.00    +0.006 A 
BRANCH  23  26
ATOM     26  N   LIG    1       16.934   6.382  51.348  0.00  0.00    -0.336 N 
ATOM     27  C   LIG    1       15.871   7.346  51.623  0.00  0.00    +0.129 C 
ATOM     28  C   LIG    1       17.637   6.581  50.081  0.00  0.00    +0.129 C 
ENDBRANCH  23  26
ENDBRANCH  17  20
BRANCH  13  29
ATOM     29  C   LIG    1       14.868   2.375  52.913  0.00  0.00    -0.067 C 
ATOM     30  C   LIG    1       14.271   3.399  53.001  0.00  0.00    -0.103 C 
ATOM     31  C   LIG    1       13.546   4.645  53.107  0.00  0.00    +0.106 C 
ENDBRANCH  13  29
BRANCH  13  32
ATOM     32  O   LIG    1       16.773   1.402  52.282  0.00  0.00    -0.376 OA
ATOM     33  H   LIG    1       17.045   0.494  52.062  0.00  0.00    +0.211 HD
ENDBRANCH  13  32
TORSDOF 4
ENDMDL
MODEL 8
REMARK VINA RESULT:      -2.1      3.757      7.392
REMARK  Name = 
REMARK                            x       y       z     vdW  Elec       q    Type
REMARK                         _______ _______ _______ _____ _____    ______ ____
ROOT
ATOM      1  O   LIG    1       27.301   0.773  51.644  0.00  0.00    -0.293 OA
ATOM      2  C   LIG    1       26.295   1.466  51.501  0.00  0.00    +0.157 C 
ATOM      3  C   LIG    1       24.891   0.889  51.399  0.00  0.00    +0.083 C 
ATOM      4  C   LIG    1       23.951   1.861  50.649  0.00  0.00    +0.043 C 
ATOM      5  C   LIG    1       23.998   3.230  51.295  0.00  0.00    -0.044 C 
ATOM      6  C   LIG    1       22.986   4.123  51.438  0.00  0.00    -0.055 C 
ATOM      7  C   LIG    1       23.209   5.301  52.388  0.00  0.00    +0.020 C 
ATOM      8  C   LIG    1       24.577   5.450  53.094  0.00  0.00    +0.013 C 
ATOM      9  C   LIG    1       25.218   4.098  53.294  0.00  0.00    +0.036 C 
ATOM     10  C   LIG    1       22.677   6.733  52.001  0.00  0.00    +0.006 C 
ATOM     11  C   LIG    1       22.724   8.200  52.498  0.00  0.00    +0.008 C 
ATOM     12  C   LIG    1       21.253   8.357  53.104  0.00  0.00    +0.049 C 
ATOM     13  C   LIG    1       20.491   7.031  52.651  0.00  0.00    +0.132 C 
ATOM     14  C   LIG    1       21.263   6.708  51.328  0.00  0.00    +0.012 C 
ATOM     15  C   LIG    1       20.999   7.886  50.294  0.00  0.00    +0.015 C 
ATOM     16  C   LIG    1       21.148   5.502  50.359  0.00  0.00    +0.023 C 
ATOM     17  C   LIG    1       21.654   4.085  50.688  0.00  0.00    +0.046 C 
ATOM     18  C   LIG    1       25.292   3.486  51.934  0.00  0.00    -0.041 C 
ATOM     19  C   LIG    1       26.435   2.963  51.460  0.00  0.00    +0.050 C 
ENDROOT
BRANCH  17  20
ATOM     20  C   LIG    1       20.389   3.290  51.059  0.00  0.00    -0.040 A 
ATOM     21  C   LIG    1       19.246   3.435  50.248  0.00  0.00    +0.006 A 
ATOM     22  C   LIG    1       17.940   3.326  50.774  0.00  0.00    +0.023 A 
ATOM     23  C   LIG    1       17.698   3.088  52.136  0.00  0.00    +0.029 A 
ATOM     24  C   LIG    1       18.846   2.808  52.893  0.00  0.00    +0.023 A 
ATOM     25  C   LIG    1       20.153   2.854  52.357  0.00  0.00    +0.006 A 
BRANCH  23  26
ATOM     26  N   LIG    1       16.427   3.212  52.707  0.00  0.00    -0.336 N 
ATOM     27  C   LIG    1       15.317   2.410  52.198  0.00  0.00    +0.129 C 
ATOM     28  C   LIG    1       16.289   3.650  54.095  0.00  0.00    +0.129 C 
ENDBRANCH  23  26
ENDBRANCH  17  20
BRANCH  13  29
ATOM     29  C   LIG    1       19.053   7.128  52.688  0.00  0.00    -0.067 C 
ATOM     30  C   LIG    1       17.934   6.936  52.336  0.00  0.00    -0.103 C 
ATOM     31  C   LIG    1       16.574   6.703  51.907  0.00  0.00    +0.106 C 
ENDBRANCH  13  29
BRANCH  13  32
ATOM     32  O   LIG    1       20.737   6.075  53.703  0.00  0.00    -0.376 OA
ATOM     33  H   LIG    1       19.946   5.515  53.790  0.00  0.00    +0.211 HD
ENDBRANCH  13  32
TORSDOF 4
ENDMDL
MODEL 9
REMARK VINA RESULT:      -2.0      2.918      4.338
REMARK  Name = 
REMARK                            x       y       z     vdW  Elec       q    Type
REMARK                         _______ _______ _______ _____ _____    ______ ____
ROOT
ATOM      1  O   LIG    1       26.601   1.401  51.234  0.00  0.00    -0.293 OA
ATOM      2  C   LIG    1       25.436   1.545  51.602  0.00  0.00    +0.157 C 
ATOM      3  C   LIG    1       25.002   1.441  53.056  0.00  0.00    +0.083 C 
ATOM      4  C   LIG    1       23.505   1.065  53.156  0.00  0.00    +0.043 C 
ATOM      5  C   LIG    1       22.672   2.032  52.341  0.00  0.00    -0.044 C 
ATOM      6  C   LIG    1       21.428   2.502  52.616  0.00  0.00    -0.055 C 
ATOM      7  C   LIG    1       20.925   3.695  51.801  0.00  0.00    +0.020 C 
ATOM      8  C   LIG    1       21.821   4.273  50.681  0.00  0.00    +0.013 C 
ATOM      9  C   LIG    1       23.279   4.052  51.005  0.00  0.00    +0.036 C 
ATOM     10  C   LIG    1       19.423   3.745  51.327  0.00  0.00    +0.006 C 
ATOM     11  C   LIG    1       18.476   4.595  50.443  0.00  0.00    +0.008 C 
ATOM     12  C   LIG    1       17.634   5.366  51.562  0.00  0.00    +0.049 C 
ATOM     13  C   LIG    1       18.058   4.668  52.932  0.00  0.00    +0.132 C 
ATOM     14  C   LIG    1       18.414   3.235  52.412  0.00  0.00    +0.012 C 
ATOM     15  C   LIG    1       17.093   2.570  51.829  0.00  0.00    +0.015 C 
ATOM     16  C   LIG    1       18.998   2.006  53.157  0.00  0.00    +0.023 C 
ATOM     17  C   LIG    1       20.458   1.907  53.638  0.00  0.00    +0.046 C 
ATOM     18  C   LIG    1       23.424   2.582  51.210  0.00  0.00    -0.041 C 
ATOM     19  C   LIG    1       24.380   1.875  50.583  0.00  0.00    +0.050 C 
ENDROOT
BRANCH  17  20
ATOM     20  C   LIG    1       20.397   2.188  55.150  0.00  0.00    -0.040 A 
ATOM     21  C   LIG    1       19.325   1.646  55.887  0.00  0.00    +0.006 A 
ATOM     22  C   LIG    1       18.797   2.299  57.024  0.00  0.00    +0.023 A 
ATOM     23  C   LIG    1       19.290   3.532  57.475  0.00  0.00    +0.029 A 
ATOM     24  C   LIG    1       20.443   3.979  56.812  0.00  0.00    +0.023 A 
ATOM     25  C   LIG    1       21.013   3.298  55.713  0.00  0.00    +0.006 A 
BRANCH  23  26
ATOM     26  N   LIG    1       18.632   4.295  58.445  0.00  0.00    -0.336 N 
ATOM     27  C   LIG    1       18.563   3.822  59.825  0.00  0.00    +0.129 C 
ATOM     28  C   LIG    1       18.517   5.744  58.281  0.00  0.00    +0.129 C 
ENDBRANCH  23  26
ENDBRANCH  17  20
BRANCH  13  29
ATOM     29  C   LIG    1       17.131   4.875  54.016  0.00  0.00    -0.067 C 
ATOM     30  C   LIG    1       16.518   4.605  54.999  0.00  0.00    -0.103 C 
ATOM     31  C   LIG    1       15.774   4.276  56.194  0.00  0.00    +0.106 C 
ENDBRANCH  13  29
BRANCH  13  32
ATOM     32  O   LIG    1       19.205   5.409  53.396  0.00  0.00    -0.376 OA
ATOM     33  H   LIG    1       18.884   6.217  53.833  0.00  0.00    +0.211 HD
ENDBRANCH  13  32
TORSDOF 4
ENDMDL
