MODEL 1
REMARK VINA RESULT:       4.7      0.000      0.000
REMARK  Name = 
REMARK                            x       y       z     vdW  Elec       q    Type
REMARK                         _______ _______ _______ _____ _____    ______ ____
ROOT
ATOM      1  O   LIG    1       32.036  -2.215  25.362  0.00  0.00    -0.293 OA
ATOM      2  C   LIG    1       31.125  -1.865  24.614  0.00  0.00    +0.157 C 
ATOM      3  C   LIG    1       30.446  -0.507  24.704  0.00  0.00    +0.083 C 
ATOM      4  C   LIG    1       29.021  -0.565  24.104  0.00  0.00    +0.043 C 
ATOM      5  C   LIG    1       29.072  -1.127  22.698  0.00  0.00    -0.044 C 
ATOM      6  C   LIG    1       28.305  -0.784  21.633  0.00  0.00    -0.055 C 
ATOM      7  C   LIG    1       28.748  -1.274  20.253  0.00  0.00    +0.020 C 
ATOM      8  C   LIG    1       30.005  -2.168  20.140  0.00  0.00    +0.013 C 
ATOM      9  C   LIG    1       30.974  -1.860  21.256  0.00  0.00    +0.036 C 
ATOM     10  C   LIG    1       27.674  -1.773  19.214  0.00  0.00    +0.006 C 
ATOM     11  C   LIG    1       27.580  -2.437  17.817  0.00  0.00    +0.008 C 
ATOM     12  C   LIG    1       27.147  -1.186  16.920  0.00  0.00    +0.049 C 
ATOM     13  C   LIG    1       26.822  -0.034  17.973  0.00  0.00    +0.132 C 
ATOM     14  C   LIG    1       26.374  -0.900  19.199  0.00  0.00    +0.012 C 
ATOM     15  C   LIG    1       25.051  -1.685  18.802  0.00  0.00    +0.015 C 
ATOM     16  C   LIG    1       25.987  -0.483  20.643  0.00  0.00    +0.023 C 
ATOM     17  C   LIG    1       26.998   0.008  21.695  0.00  0.00    +0.046 C 
ATOM     18  C   LIG    1       30.201  -2.044  22.519  0.00  0.00    -0.041 C 
ATOM     19  C   LIG    1       30.669  -2.800  23.527  0.00  0.00    +0.050 C 
ENDROOT
BRANCH  17  20
ATOM     20  C   LIG    1       26.827   1.538  21.725  0.00  0.00    -0.040 A 
ATOM     21  C   LIG    1       25.524   2.061  21.841  0.00  0.00    +0.006 A 
ATOM     22  C   LIG    1       25.163   3.297  21.259  0.00  0.00    +0.023 A 
ATOM     23  C   LIG    1       26.069   4.067  20.513  0.00  0.00    +0.029 A 
ATOM     24  C   LIG    1       27.391   3.594  20.531  0.00  0.00    +0.023 A 
ATOM     25  C   LIG    1       27.770   2.390  21.165  0.00  0.00    +0.006 A 
BRANCH  23  26
ATOM     26  N   LIG    1       25.668   5.162  19.742  0.00  0.00    -0.336 N 
ATOM     27  C   LIG    1       25.631   5.055  18.285  0.00  0.00    +0.129 C 
ATOM     28  C   LIG    1       24.774   6.169  20.311  0.00  0.00    +0.129 C 
ENDBRANCH  23  26
ENDBRANCH  17  20
BRANCH  13  29
ATOM     29  C   LIG    1       26.001   1.032  17.455  0.00  0.00    -0.067 C 
ATOM     30  C   LIG    1       25.653   1.872  16.688  0.00  0.00    -0.103 C 
ATOM     31  C   LIG    1       25.230   2.892  15.757  0.00  0.00    +0.106 C 
ENDBRANCH  13  29
BRANCH  13  32
ATOM     32  O   LIG    1       28.073   0.652  18.185  0.00  0.00    -0.376 OA
ATOM     33  H   LIG    1       28.055   1.042  19.076  0.00  0.00    +0.211 HD
ENDBRANCH  13  32
TORSDOF 4
ENDMDL
