MODEL 1
REMARK VINA RESULT:       4.1      0.000      0.000
REMARK  Name = 
REMARK                            x       y       z     vdW  Elec       q    Type
REMARK                         _______ _______ _______ _____ _____    ______ ____
ROOT
ATOM      1  O   LIG    1        0.932  17.114  35.369  0.00  0.00    -0.293 OA
ATOM      2  C   LIG    1        1.342  17.554  34.296  0.00  0.00    +0.157 C 
ATOM      3  C   LIG    1        2.334  18.703  34.190  0.00  0.00    +0.083 C 
ATOM      4  C   LIG    1        2.204  19.415  32.823  0.00  0.00    +0.043 C 
ATOM      5  C   LIG    1        2.320  18.407  31.699  0.00  0.00    -0.044 C 
ATOM      6  C   LIG    1        2.892  18.576  30.480  0.00  0.00    -0.055 C 
ATOM      7  C   LIG    1        3.151  17.324  29.639  0.00  0.00    +0.020 C 
ATOM      8  C   LIG    1        2.710  15.946  30.185  0.00  0.00    +0.013 C 
ATOM      9  C   LIG    1        2.733  15.944  31.695  0.00  0.00    +0.036 C 
ATOM     10  C   LIG    1        2.903  17.358  28.083  0.00  0.00    +0.006 C 
ATOM     11  C   LIG    1        2.892  16.415  26.854  0.00  0.00    +0.008 C 
ATOM     12  C   LIG    1        4.265  16.829  26.147  0.00  0.00    +0.049 C 
ATOM     13  C   LIG    1        4.752  18.121  26.946  0.00  0.00    +0.132 C 
ATOM     14  C   LIG    1        3.371  18.694  27.410  0.00  0.00    +0.012 C 
ATOM     15  C   LIG    1        2.542  19.113  26.121  0.00  0.00    +0.015 C 
ATOM     16  C   LIG    1        3.033  19.904  28.321  0.00  0.00    +0.023 C 
ATOM     17  C   LIG    1        3.253  19.919  29.845  0.00  0.00    +0.046 C 
ATOM     18  C   LIG    1        1.857  17.078  32.109  0.00  0.00    -0.041 C 
ATOM     19  C   LIG    1        0.879  16.916  33.016  0.00  0.00    +0.050 C 
ENDROOT
BRANCH  17  20
ATOM     20  C   LIG    1        4.540  20.740  30.050  0.00  0.00    -0.040 A 
ATOM     21  C   LIG    1        4.981  21.565  28.997  0.00  0.00    +0.006 A 
ATOM     22  C   LIG    1        6.352  21.827  28.780  0.00  0.00    +0.023 A 
ATOM     23  C   LIG    1        7.357  21.269  29.583  0.00  0.00    +0.029 A 
ATOM     24  C   LIG    1        6.888  20.569  30.706  0.00  0.00    +0.023 A 
ATOM     25  C   LIG    1        5.515  20.356  30.962  0.00  0.00    +0.006 A 
BRANCH  23  26
ATOM     26  N   LIG    1        8.712  21.328  29.242  0.00  0.00    -0.336 N 
ATOM     27  C   LIG    1        9.655  20.375  29.823  0.00  0.00    +0.129 C 
ATOM     28  C   LIG    1        9.117  21.893  27.955  0.00  0.00    +0.129 C 
ENDBRANCH  23  26
ENDBRANCH  17  20
BRANCH  13  29
ATOM     29  C   LIG    1        5.712  18.931  26.240  0.00  0.00    -0.067 C 
ATOM     30  C   LIG    1        6.725  19.531  26.071  0.00  0.00    -0.103 C 
ATOM     31  C   LIG    1        7.956  20.260  25.867  0.00  0.00    +0.106 C 
ENDBRANCH  13  29
BRANCH  13  32
ATOM     32  O   LIG    1        5.555  17.615  28.033  0.00  0.00    -0.376 OA
ATOM     33  H   LIG    1        5.774  16.687  27.837  0.00  0.00    +0.211 HD
ENDBRANCH  13  32
TORSDOF 4
ENDMDL
MODEL 2
REMARK VINA RESULT:       4.9      2.155      4.707
REMARK  Name = 
REMARK                            x       y       z     vdW  Elec       q    Type
REMARK                         _______ _______ _______ _____ _____    ______ ____
ROOT
ATOM      1  O   LIG    1       -0.055  15.322  35.175  0.00  0.00    -0.293 OA
ATOM      2  C   LIG    1        0.809  15.596  34.345  0.00  0.00    +0.157 C 
ATOM      3  C   LIG    1        0.613  15.422  32.847  0.00  0.00    +0.083 C 
ATOM      4  C   LIG    1        1.974  15.256  32.131  0.00  0.00    +0.043 C 
ATOM      5  C   LIG    1        2.894  16.403  32.493  0.00  0.00    -0.044 C 
ATOM      6  C   LIG    1        3.813  17.018  31.706  0.00  0.00    -0.055 C 
ATOM      7  C   LIG    1        4.401  18.340  32.204  0.00  0.00    +0.020 C 
ATOM      8  C   LIG    1        3.966  18.885  33.584  0.00  0.00    +0.013 C 
ATOM      9  C   LIG    1        2.565  18.429  33.914  0.00  0.00    +0.036 C 
ATOM     10  C   LIG    1        5.932  18.647  31.995  0.00  0.00    +0.006 C 
ATOM     11  C   LIG    1        7.003  19.701  32.375  0.00  0.00    +0.008 C 
ATOM     12  C   LIG    1        7.162  20.479  30.988  0.00  0.00    +0.049 C 
ATOM     13  C   LIG    1        6.333  19.605  29.942  0.00  0.00    +0.132 C 
ATOM     14  C   LIG    1        6.471  18.189  30.597  0.00  0.00    +0.012 C 
ATOM     15  C   LIG    1        8.005  17.776  30.580  0.00  0.00    +0.015 C 
ATOM     16  C   LIG    1        5.846  16.826  30.198  0.00  0.00    +0.023 C 
ATOM     17  C   LIG    1        4.358  16.476  30.384  0.00  0.00    +0.046 C 
ATOM     18  C   LIG    1        2.597  16.940  33.823  0.00  0.00    -0.041 C 
ATOM     19  C   LIG    1        2.121  16.165  34.812  0.00  0.00    +0.050 C 
ENDROOT
BRANCH  17  20
ATOM     20  C   LIG    1        3.739  16.624  28.982  0.00  0.00    -0.040 A 
ATOM     21  C   LIG    1        4.533  16.301  27.864  0.00  0.00    +0.006 A 
ATOM     22  C   LIG    1        4.374  16.958  26.623  0.00  0.00    +0.023 A 
ATOM     23  C   LIG    1        3.434  17.982  26.432  0.00  0.00    +0.029 A 
ATOM     24  C   LIG    1        2.564  18.185  27.515  0.00  0.00    +0.023 A 
ATOM     25  C   LIG    1        2.679  17.487  28.737  0.00  0.00    +0.006 A 
BRANCH  23  26
ATOM     26  N   LIG    1        3.427  18.793  25.293  0.00  0.00    -0.336 N 
ATOM     27  C   LIG    1        3.701  20.223  25.413  0.00  0.00    +0.129 C 
ATOM     28  C   LIG    1        3.719  18.214  23.982  0.00  0.00    +0.129 C 
ENDBRANCH  23  26
ENDBRANCH  17  20
BRANCH  13  29
ATOM     29  C   LIG    1        6.678  19.841  28.563  0.00  0.00    -0.067 C 
ATOM     30  C   LIG    1        7.121  20.433  27.631  0.00  0.00    -0.103 C 
ATOM     31  C   LIG    1        7.660  21.151  26.499  0.00  0.00    +0.106 C 
ENDBRANCH  13  29
BRANCH  13  32
ATOM     32  O   LIG    1        4.990  20.129  29.991  0.00  0.00    -0.376 OA
ATOM     33  H   LIG    1        4.989  20.896  30.589  0.00  0.00    +0.211 HD
ENDBRANCH  13  32
TORSDOF 4
ENDMDL
MODEL 3
REMARK VINA RESULT:       6.0      2.506      7.342
REMARK  Name = 
REMARK                            x       y       z     vdW  Elec       q    Type
REMARK                         _______ _______ _______ _____ _____    ______ ____
ROOT
ATOM      1  O   LIG    1        9.750  22.608  25.738  0.00  0.00    -0.293 OA
ATOM      2  C   LIG    1        8.781  22.070  26.270  0.00  0.00    +0.157 C 
ATOM      3  C   LIG    1        7.817  21.160  25.523  0.00  0.00    +0.083 C 
ATOM      4  C   LIG    1        6.439  21.128  26.223  0.00  0.00    +0.043 C 
ATOM      5  C   LIG    1        6.606  20.766  27.684  0.00  0.00    -0.044 C 
ATOM      6  C   LIG    1        5.776  20.026  28.462  0.00  0.00    -0.055 C 
ATOM      7  C   LIG    1        6.311  19.550  29.814  0.00  0.00    +0.020 C 
ATOM      8  C   LIG    1        7.734  19.968  30.251  0.00  0.00    +0.013 C 
ATOM      9  C   LIG    1        8.616  20.179  29.044  0.00  0.00    +0.036 C 
ATOM     10  C   LIG    1        5.369  19.555  31.078  0.00  0.00    +0.006 C 
ATOM     11  C   LIG    1        5.418  19.308  32.607  0.00  0.00    +0.008 C 
ATOM     12  C   LIG    1        4.714  17.876  32.699  0.00  0.00    +0.049 C 
ATOM     13  C   LIG    1        4.145  17.614  31.232  0.00  0.00    +0.132 C 
ATOM     14  C   LIG    1        3.907  19.088  30.763  0.00  0.00    +0.012 C 
ATOM     15  C   LIG    1        2.789  19.735  31.689  0.00  0.00    +0.015 C 
ATOM     16  C   LIG    1        3.445  19.650  29.392  0.00  0.00    +0.023 C 
ATOM     17  C   LIG    1        4.327  19.670  28.130  0.00  0.00    +0.046 C 
ATOM     18  C   LIG    1        7.909  21.190  28.204  0.00  0.00    -0.041 C 
ATOM     19  C   LIG    1        8.538  22.282  27.739  0.00  0.00    +0.050 C 
ENDROOT
BRANCH  17  20
ATOM     20  C   LIG    1        3.820  18.494  27.275  0.00  0.00    -0.040 A 
ATOM     21  C   LIG    1        3.929  17.191  27.800  0.00  0.00    +0.006 A 
ATOM     22  C   LIG    1        4.125  16.067  26.967  0.00  0.00    +0.023 A 
ATOM     23  C   LIG    1        4.244  16.178  25.574  0.00  0.00    +0.029 A 
ATOM     24  C   LIG    1        3.992  17.463  25.066  0.00  0.00    +0.023 A 
ATOM     25  C   LIG    1        3.734  18.580  25.891  0.00  0.00    +0.006 A 
BRANCH  23  26
ATOM     26  N   LIG    1        4.669  15.117  24.769  0.00  0.00    -0.336 N 
ATOM     27  C   LIG    1        5.942  14.455  25.045  0.00  0.00    +0.129 C 
ATOM     28  C   LIG    1        3.686  14.298  24.060  0.00  0.00    +0.129 C 
ENDBRANCH  23  26
ENDBRANCH  17  20
BRANCH  13  29
ATOM     29  C   LIG    1        3.106  16.617  31.165  0.00  0.00    -0.067 C 
ATOM     30  C   LIG    1        2.437  15.707  31.536  0.00  0.00    -0.103 C 
ATOM     31  C   LIG    1        1.624  14.601  31.987  0.00  0.00    +0.106 C 
ENDBRANCH  13  29
BRANCH  13  32
ATOM     32  O   LIG    1        5.215  16.954  30.523  0.00  0.00    -0.376 OA
ATOM     33  H   LIG    1        6.052  17.183  30.962  0.00  0.00    +0.211 HD
ENDBRANCH  13  32
TORSDOF 4
ENDMDL
MODEL 4
REMARK VINA RESULT:       6.0      2.113      4.714
REMARK  Name = 
REMARK                            x       y       z     vdW  Elec       q    Type
REMARK                         _______ _______ _______ _____ _____    ______ ____
ROOT
ATOM      1  O   LIG    1        0.310  15.459  34.962  0.00  0.00    -0.293 OA
ATOM      2  C   LIG    1        1.135  15.787  34.112  0.00  0.00    +0.157 C 
ATOM      3  C   LIG    1        1.117  15.261  32.685  0.00  0.00    +0.083 C 
ATOM      4  C   LIG    1        2.526  15.340  32.053  0.00  0.00    +0.043 C 
ATOM      5  C   LIG    1        3.072  16.747  32.174  0.00  0.00    -0.044 C 
ATOM      6  C   LIG    1        3.854  17.420  31.292  0.00  0.00    -0.055 C 
ATOM      7  C   LIG    1        4.022  18.926  31.499  0.00  0.00    +0.020 C 
ATOM      8  C   LIG    1        3.345  19.599  32.716  0.00  0.00    +0.013 C 
ATOM      9  C   LIG    1        2.095  18.848  33.106  0.00  0.00    +0.036 C 
ATOM     10  C   LIG    1        5.427  19.600  31.262  0.00  0.00    +0.006 C 
ATOM     11  C   LIG    1        6.140  20.966  31.424  0.00  0.00    +0.008 C 
ATOM     12  C   LIG    1        6.199  21.455  29.903  0.00  0.00    +0.049 C 
ATOM     13  C   LIG    1        5.724  20.189  29.058  0.00  0.00    +0.132 C 
ATOM     14  C   LIG    1        6.182  19.035  30.011  0.00  0.00    +0.012 C 
ATOM     15  C   LIG    1        7.767  19.072  30.119  0.00  0.00    +0.015 C 
ATOM     16  C   LIG    1        5.981  17.499  29.908  0.00  0.00    +0.023 C 
ATOM     17  C   LIG    1        4.631  16.793  30.134  0.00  0.00    +0.046 C 
ATOM     18  C   LIG    1        2.533  17.441  33.346  0.00  0.00    -0.041 C 
ATOM     19  C   LIG    1        2.202  16.785  34.471  0.00  0.00    +0.050 C 
ENDROOT
BRANCH  17  20
ATOM     20  C   LIG    1        4.113  16.470  28.720  0.00  0.00    -0.040 A 
ATOM     21  C   LIG    1        5.019  15.934  27.783  0.00  0.00    +0.006 A 
ATOM     22  C   LIG    1        4.898  16.193  26.399  0.00  0.00    +0.023 A 
ATOM     23  C   LIG    1        3.886  17.011  25.876  0.00  0.00    +0.029 A 
ATOM     24  C   LIG    1        2.919  17.415  26.809  0.00  0.00    +0.023 A 
ATOM     25  C   LIG    1        3.001  17.107  28.185  0.00  0.00    +0.006 A 
BRANCH  23  26
ATOM     26  N   LIG    1        3.894  17.462  24.552  0.00  0.00    -0.336 N 
ATOM     27  C   LIG    1        3.662  18.875  24.260  0.00  0.00    +0.129 C 
ATOM     28  C   LIG    1        4.660  16.738  23.538  0.00  0.00    +0.129 C 
ENDBRANCH  23  26
ENDBRANCH  17  20
BRANCH  13  29
ATOM     29  C   LIG    1        6.105  20.224  27.668  0.00  0.00    -0.067 C 
ATOM     30  C   LIG    1        6.843  20.267  26.736  0.00  0.00    -0.103 C 
ATOM     31  C   LIG    1        7.739  20.319  25.604  0.00  0.00    +0.106 C 
ENDBRANCH  13  29
BRANCH  13  32
ATOM     32  O   LIG    1        4.290  20.314  28.960  0.00  0.00    -0.376 OA
ATOM     33  H   LIG    1        4.088  20.853  28.176  0.00  0.00    +0.211 HD
ENDBRANCH  13  32
TORSDOF 4
ENDMDL
