MODEL 1
REMARK VINA RESULT:      -7.2      0.000      0.000
REMARK  Name = 
REMARK                            x       y       z     vdW  Elec       q    Type
REMARK                         _______ _______ _______ _____ _____    ______ ____
ROOT
ATOM      1  O   LIG    1       16.786 -15.575  18.543  0.00  0.00    -0.293 OA
ATOM      2  C   LIG    1       18.001 -15.608  18.356  0.00  0.00    +0.157 C 
ATOM      3  C   LIG    1       18.945 -14.505  18.810  0.00  0.00    +0.083 C 
ATOM      4  C   LIG    1       20.234 -14.501  17.955  0.00  0.00    +0.043 C 
ATOM      5  C   LIG    1       20.864 -15.878  17.957  0.00  0.00    -0.044 C 
ATOM      6  C   LIG    1       22.183 -16.195  17.943  0.00  0.00    -0.055 C 
ATOM      7  C   LIG    1       22.569 -17.642  18.253  0.00  0.00    +0.020 C 
ATOM      8  C   LIG    1       21.451 -18.678  18.517  0.00  0.00    +0.013 C 
ATOM      9  C   LIG    1       20.235 -18.005  19.105  0.00  0.00    +0.036 C 
ATOM     10  C   LIG    1       23.727 -18.338  17.443  0.00  0.00    +0.006 C 
ATOM     11  C   LIG    1       24.404 -19.722  17.274  0.00  0.00    +0.008 C 
ATOM     12  C   LIG    1       25.770 -19.486  18.070  0.00  0.00    +0.049 C 
ATOM     13  C   LIG    1       25.787 -17.921  18.379  0.00  0.00    +0.132 C 
ATOM     14  C   LIG    1       24.946 -17.393  17.168  0.00  0.00    +0.012 C 
ATOM     15  C   LIG    1       25.741 -17.708  15.829  0.00  0.00    +0.015 C 
ATOM     16  C   LIG    1       24.452 -15.961  16.828  0.00  0.00    +0.023 C 
ATOM     17  C   LIG    1       23.323 -15.239  17.587  0.00  0.00    +0.046 C 
ATOM     18  C   LIG    1       19.863 -16.934  18.135  0.00  0.00    -0.041 C 
ATOM     19  C   LIG    1       18.606 -16.805  17.677  0.00  0.00    +0.050 C 
ENDROOT
BRANCH  17  20
ATOM     20  C   LIG    1       24.045 -14.249  18.520  0.00  0.00    -0.040 A 
ATOM     21  C   LIG    1       24.815 -13.223  17.937  0.00  0.00    +0.006 A 
ATOM     22  C   LIG    1       25.966 -12.704  18.571  0.00  0.00    +0.023 A 
ATOM     23  C   LIG    1       26.425 -13.190  19.805  0.00  0.00    +0.029 A 
ATOM     24  C   LIG    1       25.565 -14.108  20.428  0.00  0.00    +0.023 A 
ATOM     25  C   LIG    1       24.379 -14.584  19.826  0.00  0.00    +0.006 A 
BRANCH  23  26
ATOM     26  N   LIG    1       27.679 -12.855  20.325  0.00  0.00    -0.336 N 
ATOM     27  C   LIG    1       28.211 -13.584  21.474  0.00  0.00    +0.129 C 
ATOM     28  C   LIG    1       28.686 -12.236  19.464  0.00  0.00    +0.129 C 
ENDBRANCH  23  26
ENDBRANCH  17  20
BRANCH  13  29
ATOM     29  C   LIG    1       27.090 -17.389  18.688  0.00  0.00    -0.067 C 
ATOM     30  C   LIG    1       27.977 -16.597  18.691  0.00  0.00    -0.103 C 
ATOM     31  C   LIG    1       29.053 -15.633  18.695  0.00  0.00    +0.106 C 
ENDBRANCH  13  29
BRANCH  13  32
ATOM     32  O   LIG    1       25.114 -17.777  19.647  0.00  0.00    -0.376 OA
ATOM     33  H   LIG    1       24.501 -17.025  19.578  0.00  0.00    +0.211 HD
ENDBRANCH  13  32
TORSDOF 4
ENDMDL
