MODEL 1
REMARK VINA RESULT:      -6.9      0.000      0.000
REMARK  Name = 
REMARK                            x       y       z     vdW  Elec       q    Type
REMARK                         _______ _______ _______ _____ _____    ______ ____
ROOT
ATOM      1  O   LIG    1       11.103  12.359  -8.499  0.00  0.00    -0.293 OA
ATOM      2  C   LIG    1       10.130  11.664  -8.213  0.00  0.00    +0.157 C 
ATOM      3  C   LIG    1       10.148  10.144  -8.255  0.00  0.00    +0.083 C 
ATOM      4  C   LIG    1        8.719   9.583  -8.445  0.00  0.00    +0.043 C 
ATOM      5  C   LIG    1        7.795  10.150  -7.387  0.00  0.00    -0.044 C 
ATOM      6  C   LIG    1        6.756   9.534  -6.768  0.00  0.00    -0.055 C 
ATOM      7  C   LIG    1        6.169  10.209  -5.527  0.00  0.00    +0.020 C 
ATOM      8  C   LIG    1        6.744  11.570  -5.068  0.00  0.00    +0.013 C 
ATOM      9  C   LIG    1        8.196  11.690  -5.464  0.00  0.00    +0.036 C 
ATOM     10  C   LIG    1        4.611  10.212  -5.296  0.00  0.00    +0.006 C 
ATOM     11  C   LIG    1        3.544  10.806  -4.342  0.00  0.00    +0.008 C 
ATOM     12  C   LIG    1        3.176   9.519  -3.468  0.00  0.00    +0.049 C 
ATOM     13  C   LIG    1        3.912   8.311  -4.205  0.00  0.00    +0.132 C 
ATOM     14  C   LIG    1        3.927   8.854  -5.673  0.00  0.00    +0.012 C 
ATOM     15  C   LIG    1        2.424   8.984  -6.176  0.00  0.00    +0.015 C 
ATOM     16  C   LIG    1        4.564   8.268  -6.961  0.00  0.00    +0.023 C 
ATOM     17  C   LIG    1        6.080   8.244  -7.235  0.00  0.00    +0.046 C 
ATOM     18  C   LIG    1        8.227  11.476  -6.940  0.00  0.00    -0.041 C 
ATOM     19  C   LIG    1        8.860  12.331  -7.761  0.00  0.00    +0.050 C 
ENDROOT
BRANCH  17  20
ATOM     20  C   LIG    1        6.513   6.796  -6.940  0.00  0.00    -0.040 A 
ATOM     21  C   LIG    1        6.001   6.168  -5.788  0.00  0.00    +0.006 A 
ATOM     22  C   LIG    1        6.743   5.198  -5.077  0.00  0.00    +0.023 A 
ATOM     23  C   LIG    1        8.037   4.816  -5.461  0.00  0.00    +0.029 A 
ATOM     24  C   LIG    1        8.466   5.350  -6.686  0.00  0.00    +0.023 A 
ATOM     25  C   LIG    1        7.701   6.273  -7.433  0.00  0.00    +0.006 A 
BRANCH  23  26
ATOM     26  N   LIG    1        8.866   4.041  -4.643  0.00  0.00    -0.336 N 
ATOM     27  C   LIG    1        8.669   4.039  -3.195  0.00  0.00    +0.129 C 
ATOM     28  C   LIG    1        9.511   2.844  -5.181  0.00  0.00    +0.129 C 
ENDBRANCH  23  26
ENDBRANCH  17  20
BRANCH  13  29
ATOM     29  C   LIG    1        3.388   7.008  -3.881  0.00  0.00    -0.067 C 
ATOM     30  C   LIG    1        2.869   6.171  -3.213  0.00  0.00    -0.103 C 
ATOM     31  C   LIG    1        2.238   5.156  -2.402  0.00  0.00    +0.106 C 
ENDBRANCH  13  29
BRANCH  13  32
ATOM     32  O   LIG    1        5.223   8.244  -3.607  0.00  0.00    -0.376 OA
ATOM     33  H   LIG    1        5.111   8.168  -2.644  0.00  0.00    +0.211 HD
ENDBRANCH  13  32
TORSDOF 4
ENDMDL
MODEL 2
REMARK VINA RESULT:      -4.8      2.442      3.766
REMARK  Name = 
REMARK                            x       y       z     vdW  Elec       q    Type
REMARK                         _______ _______ _______ _____ _____    ______ ____
ROOT
ATOM      1  O   LIG    1        9.836   8.917  -9.283  0.00  0.00    -0.293 OA
ATOM      2  C   LIG    1        8.854   8.922  -8.542  0.00  0.00    +0.157 C 
ATOM      3  C   LIG    1        8.315   7.673  -7.862  0.00  0.00    +0.083 C 
ATOM      4  C   LIG    1        6.816   7.838  -7.520  0.00  0.00    +0.043 C 
ATOM      5  C   LIG    1        6.602   9.105  -6.720  0.00  0.00    -0.044 C 
ATOM      6  C   LIG    1        5.712   9.322  -5.718  0.00  0.00    -0.055 C 
ATOM      7  C   LIG    1        5.894  10.580  -4.867  0.00  0.00    +0.020 C 
ATOM      8  C   LIG    1        7.038  11.562  -5.212  0.00  0.00    +0.013 C 
ATOM      9  C   LIG    1        8.190  10.827  -5.854  0.00  0.00    +0.036 C 
ATOM     10  C   LIG    1        4.635  11.408  -4.408  0.00  0.00    +0.006 C 
ATOM     11  C   LIG    1        4.271  12.729  -3.685  0.00  0.00    +0.008 C 
ATOM     12  C   LIG    1        3.813  12.174  -2.258  0.00  0.00    +0.049 C 
ATOM     13  C   LIG    1        3.753  10.591  -2.446  0.00  0.00    +0.132 C 
ATOM     14  C   LIG    1        3.427  10.508  -3.975  0.00  0.00    +0.012 C 
ATOM     15  C   LIG    1        1.996  11.156  -4.219  0.00  0.00    +0.015 C 
ATOM     16  C   LIG    1        3.303   9.281  -4.917  0.00  0.00    +0.023 C 
ATOM     17  C   LIG    1        4.503   8.443  -5.397  0.00  0.00    +0.046 C 
ATOM     18  C   LIG    1        7.607  10.124  -7.035  0.00  0.00    -0.041 C 
ATOM     19  C   LIG    1        8.158  10.224  -8.256  0.00  0.00    +0.050 C 
ENDROOT
BRANCH  17  20
ATOM     20  C   LIG    1        4.469   7.172  -4.529  0.00  0.00    -0.040 A 
ATOM     21  C   LIG    1        3.297   6.389  -4.536  0.00  0.00    +0.006 A 
ATOM     22  C   LIG    1        2.887   5.652  -3.402  0.00  0.00    +0.023 A 
ATOM     23  C   LIG    1        3.606   5.669  -2.198  0.00  0.00    +0.029 A 
ATOM     24  C   LIG    1        4.837   6.340  -2.261  0.00  0.00    +0.023 A 
ATOM     25  C   LIG    1        5.282   7.027  -3.412  0.00  0.00    +0.006 A 
BRANCH  23  26
ATOM     26  N   LIG    1        3.093   5.141  -1.008  0.00  0.00    -0.336 N 
ATOM     27  C   LIG    1        3.995   4.803   0.090  0.00  0.00    +0.129 C 
ATOM     28  C   LIG    1        1.717   5.436  -0.611  0.00  0.00    +0.129 C 
ENDBRANCH  23  26
ENDBRANCH  17  20
BRANCH  13  29
ATOM     29  C   LIG    1        2.956   9.904  -1.461  0.00  0.00    -0.067 C 
ATOM     30  C   LIG    1        2.727   9.148  -0.571  0.00  0.00    -0.103 C 
ATOM     31  C   LIG    1        2.449   8.231   0.510  0.00  0.00    +0.106 C 
ENDBRANCH  13  29
BRANCH  13  32
ATOM     32  O   LIG    1        5.076  10.119  -2.118  0.00  0.00    -0.376 OA
ATOM     33  H   LIG    1        5.707  10.832  -2.318  0.00  0.00    +0.211 HD
ENDBRANCH  13  32
TORSDOF 4
ENDMDL
MODEL 3
REMARK VINA RESULT:      -4.1      3.529      6.340
REMARK  Name = 
REMARK                            x       y       z     vdW  Elec       q    Type
REMARK                         _______ _______ _______ _____ _____    ______ ____
ROOT
ATOM      1  O   LIG    1        8.116  11.629  -8.322  0.00  0.00    -0.293 OA
ATOM      2  C   LIG    1        7.636  11.146  -7.298  0.00  0.00    +0.157 C 
ATOM      3  C   LIG    1        7.277  11.974  -6.074  0.00  0.00    +0.083 C 
ATOM      4  C   LIG    1        7.282  11.098  -4.799  0.00  0.00    +0.043 C 
ATOM      5  C   LIG    1        6.392   9.889  -4.996  0.00  0.00    -0.044 C 
ATOM      6  C   LIG    1        5.611   9.266  -4.078  0.00  0.00    -0.055 C 
ATOM      7  C   LIG    1        4.580   8.258  -4.590  0.00  0.00    +0.020 C 
ATOM      8  C   LIG    1        4.509   7.959  -6.105  0.00  0.00    +0.013 C 
ATOM      9  C   LIG    1        4.952   9.162  -6.902  0.00  0.00    +0.036 C 
ATOM     10  C   LIG    1        4.325   6.922  -3.795  0.00  0.00    +0.006 C 
ATOM     11  C   LIG    1        3.539   5.592  -3.913  0.00  0.00    +0.008 C 
ATOM     12  C   LIG    1        2.349   5.855  -2.879  0.00  0.00    +0.049 C 
ATOM     13  C   LIG    1        2.757   7.207  -2.136  0.00  0.00    +0.132 C 
ATOM     14  C   LIG    1        4.316   7.118  -2.240  0.00  0.00    +0.012 C 
ATOM     15  C   LIG    1        4.804   5.854  -1.409  0.00  0.00    +0.015 C 
ATOM     16  C   LIG    1        5.417   8.127  -1.818  0.00  0.00    +0.023 C 
ATOM     17  C   LIG    1        5.706   9.444  -2.562  0.00  0.00    +0.046 C 
ATOM     18  C   LIG    1        6.320   9.490  -6.404  0.00  0.00    -0.041 C 
ATOM     19  C   LIG    1        7.350   9.670  -7.248  0.00  0.00    +0.050 C 
ENDROOT
BRANCH  17  20
ATOM     20  C   LIG    1        5.049  10.538  -1.700  0.00  0.00    -0.040 A 
ATOM     21  C   LIG    1        4.062  11.350  -2.292  0.00  0.00    +0.006 A 
ATOM     22  C   LIG    1        3.870  12.694  -1.898  0.00  0.00    +0.023 A 
ATOM     23  C   LIG    1        4.659  13.306  -0.913  0.00  0.00    +0.029 A 
ATOM     24  C   LIG    1        5.536  12.438  -0.243  0.00  0.00    +0.023 A 
ATOM     25  C   LIG    1        5.688  11.078  -0.591  0.00  0.00    +0.006 A 
BRANCH  23  26
ATOM     26  N   LIG    1        4.637  14.685  -0.682  0.00  0.00    -0.336 N 
ATOM     27  C   LIG    1        5.574  15.282   0.267  0.00  0.00    +0.129 C 
ATOM     28  C   LIG    1        4.143  15.592  -1.718  0.00  0.00    +0.129 C 
ENDBRANCH  23  26
ENDBRANCH  17  20
BRANCH  13  29
ATOM     29  C   LIG    1        2.090   7.418  -0.876  0.00  0.00    -0.067 C 
ATOM     30  C   LIG    1        1.523   7.120   0.126  0.00  0.00    -0.103 C 
ATOM     31  C   LIG    1        0.835   6.758   1.344  0.00  0.00    +0.106 C 
ENDBRANCH  13  29
BRANCH  13  32
ATOM     32  O   LIG    1        2.190   8.265  -2.937  0.00  0.00    -0.376 OA
ATOM     33  H   LIG    1        1.343   7.949  -3.295  0.00  0.00    +0.211 HD
ENDBRANCH  13  32
TORSDOF 4
ENDMDL
