MODEL 1
REMARK VINA RESULT:       4.7      0.000      0.000
REMARK  Name = 
REMARK                            x       y       z     vdW  Elec       q    Type
REMARK                         _______ _______ _______ _____ _____    ______ ____
ROOT
ATOM      1  O   LIG    1        4.178  25.339   6.056  0.00  0.00    -0.293 OA
ATOM      2  C   LIG    1        3.675  26.401   5.692  0.00  0.00    +0.157 C 
ATOM      3  C   LIG    1        2.289  26.859   6.120  0.00  0.00    +0.083 C 
ATOM      4  C   LIG    1        1.698  27.852   5.093  0.00  0.00    +0.043 C 
ATOM      5  C   LIG    1        2.667  28.991   4.855  0.00  0.00    -0.044 C 
ATOM      6  C   LIG    1        2.381  30.296   4.615  0.00  0.00    -0.055 C 
ATOM      7  C   LIG    1        3.529  31.303   4.709  0.00  0.00    +0.020 C 
ATOM      8  C   LIG    1        4.955  30.790   5.019  0.00  0.00    +0.013 C 
ATOM      9  C   LIG    1        4.895  29.529   5.846  0.00  0.00    +0.036 C 
ATOM     10  C   LIG    1        3.627  32.482   3.668  0.00  0.00    +0.006 C 
ATOM     11  C   LIG    1        4.576  33.636   3.255  0.00  0.00    +0.008 C 
ATOM     12  C   LIG    1        3.799  34.893   3.864  0.00  0.00    +0.049 C 
ATOM     13  C   LIG    1        2.393  34.306   4.334  0.00  0.00    +0.132 C 
ATOM     14  C   LIG    1        2.239  33.120   3.323  0.00  0.00    +0.012 C 
ATOM     15  C   LIG    1        2.132  33.723   1.856  0.00  0.00    +0.015 C 
ATOM     16  C   LIG    1        1.151  32.019   3.214  0.00  0.00    +0.023 C 
ATOM     17  C   LIG    1        1.015  30.846   4.203  0.00  0.00    +0.046 C 
ATOM     18  C   LIG    1        4.057  28.576   5.061  0.00  0.00    -0.041 C 
ATOM     19  C   LIG    1        4.469  27.323   4.807  0.00  0.00    +0.050 C 
ENDROOT
BRANCH  17  20
ATOM     20  C   LIG    1       -0.157  31.237   5.121  0.00  0.00    -0.040 A 
ATOM     21  C   LIG    1       -1.135  32.118   4.618  0.00  0.00    +0.006 A 
ATOM     22  C   LIG    1       -1.828  33.019   5.457  0.00  0.00    +0.023 A 
ATOM     23  C   LIG    1       -1.572  33.108   6.834  0.00  0.00    +0.029 A 
ATOM     24  C   LIG    1       -0.700  32.128   7.331  0.00  0.00    +0.023 A 
ATOM     25  C   LIG    1       -0.051  31.183   6.505  0.00  0.00    +0.006 A 
BRANCH  23  26
ATOM     26  N   LIG    1       -2.074  34.146   7.626  0.00  0.00    -0.336 N 
ATOM     27  C   LIG    1       -3.516  34.364   7.717  0.00  0.00    +0.129 C 
ATOM     28  C   LIG    1       -1.301  34.633   8.768  0.00  0.00    +0.129 C 
ENDBRANCH  23  26
ENDBRANCH  17  20
BRANCH  13  29
ATOM     29  C   LIG    1        1.361  35.297   4.507  0.00  0.00    -0.067 C 
ATOM     30  C   LIG    1        0.348  35.875   4.273  0.00  0.00    -0.103 C 
ATOM     31  C   LIG    1       -0.882  36.577   3.989  0.00  0.00    +0.106 C 
ENDBRANCH  13  29
BRANCH  13  32
ATOM     32  O   LIG    1        2.598  33.872   5.695  0.00  0.00    -0.376 OA
ATOM     33  H   LIG    1        1.781  33.442   5.999  0.00  0.00    +0.211 HD
ENDBRANCH  13  32
TORSDOF 4
ENDMDL
MODEL 2
REMARK VINA RESULT:       7.6      2.239      5.052
REMARK  Name = 
REMARK                            x       y       z     vdW  Elec       q    Type
REMARK                         _______ _______ _______ _____ _____    ______ ____
ROOT
ATOM      1  O   LIG    1        4.560  25.649   5.579  0.00  0.00    -0.293 OA
ATOM      2  C   LIG    1        4.089  26.785   5.581  0.00  0.00    +0.157 C 
ATOM      3  C   LIG    1        4.689  27.939   4.793  0.00  0.00    +0.083 C 
ATOM      4  C   LIG    1        4.300  29.296   5.425  0.00  0.00    +0.043 C 
ATOM      5  C   LIG    1        2.796  29.384   5.581  0.00  0.00    -0.044 C 
ATOM      6  C   LIG    1        2.005  30.479   5.452  0.00  0.00    -0.055 C 
ATOM      7  C   LIG    1        0.494  30.255   5.358  0.00  0.00    +0.020 C 
ATOM      8  C   LIG    1       -0.061  28.815   5.464  0.00  0.00    +0.013 C 
ATOM      9  C   LIG    1        0.953  27.820   4.955  0.00  0.00    +0.036 C 
ATOM     10  C   LIG    1       -0.493  31.237   6.096  0.00  0.00    +0.006 C 
ATOM     11  C   LIG    1       -2.001  31.402   6.413  0.00  0.00    +0.008 C 
ATOM     12  C   LIG    1       -2.395  32.563   5.388  0.00  0.00    +0.049 C 
ATOM     13  C   LIG    1       -1.002  33.065   4.796  0.00  0.00    +0.132 C 
ATOM     14  C   LIG    1       -0.058  32.739   6.003  0.00  0.00    +0.012 C 
ATOM     15  C   LIG    1       -0.497  33.635   7.239  0.00  0.00    +0.015 C 
ATOM     16  C   LIG    1        1.482  32.865   6.144  0.00  0.00    +0.023 C 
ATOM     17  C   LIG    1        2.488  31.930   5.446  0.00  0.00    +0.046 C 
ATOM     18  C   LIG    1        2.188  28.062   5.756  0.00  0.00    -0.041 C 
ATOM     19  C   LIG    1        2.837  27.058   6.369  0.00  0.00    +0.050 C 
ENDROOT
BRANCH  17  20
ATOM     20  C   LIG    1        3.015  32.740   4.248  0.00  0.00    -0.040 A 
ATOM     21  C   LIG    1        2.141  33.649   3.620  0.00  0.00    +0.006 A 
ATOM     22  C   LIG    1        2.232  33.937   2.239  0.00  0.00    +0.023 A 
ATOM     23  C   LIG    1        3.180  33.324   1.408  0.00  0.00    +0.029 A 
ATOM     24  C   LIG    1        4.125  32.534   2.081  0.00  0.00    +0.023 A 
ATOM     25  C   LIG    1        4.076  32.292   3.472  0.00  0.00    +0.006 A 
BRANCH  23  26
ATOM     26  N   LIG    1        3.130  33.419   0.013  0.00  0.00    -0.336 N 
ATOM     27  C   LIG    1        2.059  34.177  -0.630  0.00  0.00    +0.129 C 
ATOM     28  C   LIG    1        4.358  33.295  -0.772  0.00  0.00    +0.129 C 
ENDBRANCH  23  26
ENDBRANCH  17  20
BRANCH  13  29
ATOM     29  C   LIG    1       -1.046  34.376   4.198  0.00  0.00    -0.067 C 
ATOM     30  C   LIG    1       -0.862  35.548   4.115  0.00  0.00    -0.103 C 
ATOM     31  C   LIG    1       -0.638  36.971   4.014  0.00  0.00    +0.106 C 
ENDBRANCH  13  29
BRANCH  13  32
ATOM     32  O   LIG    1       -0.759  32.236   3.641  0.00  0.00    -0.376 OA
ATOM     33  H   LIG    1       -0.955  31.315   3.886  0.00  0.00    +0.211 HD
ENDBRANCH  13  32
TORSDOF 4
ENDMDL
