MODEL 1
REMARK VINA RESULT:      -8.2      0.000      0.000
REMARK  Name = 
REMARK                            x       y       z     vdW  Elec       q    Type
REMARK                         _______ _______ _______ _____ _____    ______ ____
ROOT
ATOM      1  O   LIG    1      -47.200   9.227 -43.623  0.00  0.00    -0.293 OA
ATOM      2  C   LIG    1      -46.142   9.820 -43.828  0.00  0.00    +0.157 C 
ATOM      3  C   LIG    1      -44.875   9.126 -44.304  0.00  0.00    +0.083 C 
ATOM      4  C   LIG    1      -43.622   9.939 -43.905  0.00  0.00    +0.043 C 
ATOM      5  C   LIG    1      -43.752  11.367 -44.393  0.00  0.00    -0.044 C 
ATOM      6  C   LIG    1      -42.772  12.187 -44.851  0.00  0.00    -0.055 C 
ATOM      7  C   LIG    1      -43.198  13.470 -45.566  0.00  0.00    +0.020 C 
ATOM      8  C   LIG    1      -44.704  13.798 -45.690  0.00  0.00    +0.013 C 
ATOM      9  C   LIG    1      -45.520  12.528 -45.719  0.00  0.00    +0.036 C 
ATOM     10  C   LIG    1      -42.405  14.809 -45.317  0.00  0.00    +0.006 C 
ATOM     11  C   LIG    1      -42.468  16.318 -45.663  0.00  0.00    +0.008 C 
ATOM     12  C   LIG    1      -41.319  16.419 -46.769  0.00  0.00    +0.049 C 
ATOM     13  C   LIG    1      -40.597  14.998 -46.727  0.00  0.00    +0.132 C 
ATOM     14  C   LIG    1      -40.854  14.603 -45.234  0.00  0.00    +0.012 C 
ATOM     15  C   LIG    1      -40.095  15.644 -44.302  0.00  0.00    +0.015 C 
ATOM     16  C   LIG    1      -40.523  13.298 -44.462  0.00  0.00    +0.023 C 
ATOM     17  C   LIG    1      -41.270  11.967 -44.667  0.00  0.00    +0.046 C 
ATOM     18  C   LIG    1      -45.152  11.788 -44.476  0.00  0.00    -0.041 C 
ATOM     19  C   LIG    1      -46.089  11.311 -43.639  0.00  0.00    +0.050 C 
ENDROOT
BRANCH  17  20
ATOM     20  C   LIG    1      -40.330  11.117 -45.541  0.00  0.00    -0.040 A 
ATOM     21  C   LIG    1      -39.116  10.672 -44.981  0.00  0.00    +0.006 A 
ATOM     22  C   LIG    1      -37.957  10.486 -45.767  0.00  0.00    +0.023 A 
ATOM     23  C   LIG    1      -37.936  10.751 -47.144  0.00  0.00    +0.029 A 
ATOM     24  C   LIG    1      -39.188  11.055 -47.701  0.00  0.00    +0.023 A 
ATOM     25  C   LIG    1      -40.364  11.182 -46.929  0.00  0.00    +0.006 A 
BRANCH  23  26
ATOM     26  N   LIG    1      -36.748  10.797 -47.882  0.00  0.00    -0.336 N 
ATOM     27  C   LIG    1      -35.473  10.501 -47.234  0.00  0.00    +0.129 C 
ATOM     28  C   LIG    1      -36.777  10.568 -49.327  0.00  0.00    +0.129 C 
ENDBRANCH  23  26
ENDBRANCH  17  20
BRANCH  13  29
ATOM     29  C   LIG    1      -39.274  14.984 -47.300  0.00  0.00    -0.067 C 
ATOM     30  C   LIG    1      -38.405  14.649 -48.039  0.00  0.00    -0.103 C 
ATOM     31  C   LIG    1      -37.349  14.242 -48.937  0.00  0.00    +0.106 C 
ENDBRANCH  13  29
BRANCH  13  32
ATOM     32  O   LIG    1      -41.320  14.177 -47.668  0.00  0.00    -0.376 OA
ATOM     33  H   LIG    1      -40.694  13.542 -48.055  0.00  0.00    +0.211 HD
ENDBRANCH  13  32
TORSDOF 4
ENDMDL
MODEL 2
REMARK VINA RESULT:      -7.6      3.132      6.366
REMARK  Name = 
REMARK                            x       y       z     vdW  Elec       q    Type
REMARK                         _______ _______ _______ _____ _____    ______ ____
ROOT
ATOM      1  O   LIG    1      -36.251   8.512 -47.338  0.00  0.00    -0.293 OA
ATOM      2  C   LIG    1      -36.723   9.623 -47.106  0.00  0.00    +0.157 C 
ATOM      3  C   LIG    1      -36.452  10.843 -47.973  0.00  0.00    +0.083 C 
ATOM      4  C   LIG    1      -36.643  12.146 -47.161  0.00  0.00    +0.043 C 
ATOM      5  C   LIG    1      -38.009  12.156 -46.509  0.00  0.00    -0.044 C 
ATOM      6  C   LIG    1      -38.826  13.219 -46.297  0.00  0.00    -0.055 C 
ATOM      7  C   LIG    1      -40.275  12.931 -45.897  0.00  0.00    +0.020 C 
ATOM      8  C   LIG    1      -40.725  11.463 -45.707  0.00  0.00    +0.013 C 
ATOM      9  C   LIG    1      -39.914  10.544 -46.587  0.00  0.00    +0.036 C 
ATOM     10  C   LIG    1      -40.983  13.826 -44.811  0.00  0.00    +0.006 C 
ATOM     11  C   LIG    1      -42.303  13.904 -44.002  0.00  0.00    +0.008 C 
ATOM     12  C   LIG    1      -43.047  15.098 -44.760  0.00  0.00    +0.049 C 
ATOM     13  C   LIG    1      -41.945  15.694 -45.747  0.00  0.00    +0.132 C 
ATOM     14  C   LIG    1      -40.644  15.349 -44.946  0.00  0.00    +0.012 C 
ATOM     15  C   LIG    1      -40.667  16.158 -43.579  0.00  0.00    +0.015 C 
ATOM     16  C   LIG    1      -39.149  15.538 -45.317  0.00  0.00    +0.023 C 
ATOM     17  C   LIG    1      -38.411  14.689 -46.368  0.00  0.00    +0.046 C 
ATOM     18  C   LIG    1      -38.489  10.801 -46.228  0.00  0.00    -0.041 C 
ATOM     19  C   LIG    1      -37.646   9.796 -45.931  0.00  0.00    +0.050 C 
ENDROOT
BRANCH  17  20
ATOM     20  C   LIG    1      -38.336  15.584 -47.618  0.00  0.00    -0.040 A 
ATOM     21  C   LIG    1      -38.061  16.955 -47.442  0.00  0.00    +0.006 A 
ATOM     22  C   LIG    1      -38.577  17.936 -48.318  0.00  0.00    +0.023 A 
ATOM     23  C   LIG    1      -39.408  17.611 -49.401  0.00  0.00    +0.029 A 
ATOM     24  C   LIG    1      -39.550  16.235 -49.637  0.00  0.00    +0.023 A 
ATOM     25  C   LIG    1      -38.985  15.248 -48.800  0.00  0.00    +0.006 A 
BRANCH  23  26
ATOM     26  N   LIG    1      -40.110  18.579 -50.127  0.00  0.00    -0.336 N 
ATOM     27  C   LIG    1      -39.725  19.985 -50.032  0.00  0.00    +0.129 C 
ATOM     28  C   LIG    1      -40.799  18.209 -51.362  0.00  0.00    +0.129 C 
ENDBRANCH  23  26
ENDBRANCH  17  20
BRANCH  13  29
ATOM     29  C   LIG    1      -42.221  17.031 -46.210  0.00  0.00    -0.067 C 
ATOM     30  C   LIG    1      -41.978  18.151 -46.530  0.00  0.00    -0.103 C 
ATOM     31  C   LIG    1      -41.683  19.510 -46.918  0.00  0.00    +0.106 C 
ENDBRANCH  13  29
BRANCH  13  32
ATOM     32  O   LIG    1      -42.081  14.938 -46.969  0.00  0.00    -0.376 OA
ATOM     33  H   LIG    1      -41.391  15.238 -47.585  0.00  0.00    +0.211 HD
ENDBRANCH  13  32
TORSDOF 4
ENDMDL
MODEL 3
REMARK VINA RESULT:      -7.6      4.906      9.216
REMARK  Name = 
REMARK                            x       y       z     vdW  Elec       q    Type
REMARK                         _______ _______ _______ _____ _____    ______ ____
ROOT
ATOM      1  O   LIG    1      -54.180   6.805 -48.792  0.00  0.00    -0.293 OA
ATOM      2  C   LIG    1      -53.031   7.025 -48.413  0.00  0.00    +0.157 C 
ATOM      3  C   LIG    1      -52.376   8.396 -48.484  0.00  0.00    +0.083 C 
ATOM      4  C   LIG    1      -50.836   8.268 -48.526  0.00  0.00    +0.043 C 
ATOM      5  C   LIG    1      -50.353   7.424 -47.364  0.00  0.00    -0.044 C 
ATOM      6  C   LIG    1      -49.210   7.566 -46.646  0.00  0.00    -0.055 C 
ATOM      7  C   LIG    1      -49.094   6.783 -45.337  0.00  0.00    +0.020 C 
ATOM      8  C   LIG    1      -50.246   5.839 -44.920  0.00  0.00    +0.013 C 
ATOM      9  C   LIG    1      -51.562   6.336 -45.469  0.00  0.00    +0.036 C 
ATOM     10  C   LIG    1      -47.722   6.119 -44.938  0.00  0.00    +0.006 C 
ATOM     11  C   LIG    1      -47.115   5.182 -43.863  0.00  0.00    +0.008 C 
ATOM     12  C   LIG    1      -46.301   6.234 -42.976  0.00  0.00    +0.049 C 
ATOM     13  C   LIG    1      -46.363   7.592 -43.810  0.00  0.00    +0.132 C 
ATOM     14  C   LIG    1      -46.481   7.018 -45.262  0.00  0.00    +0.012 C 
ATOM     15  C   LIG    1      -45.150   6.217 -45.595  0.00  0.00    +0.015 C 
ATOM     16  C   LIG    1      -46.678   7.740 -46.621  0.00  0.00    +0.023 C 
ATOM     17  C   LIG    1      -47.998   8.402 -47.059  0.00  0.00    +0.046 C 
ATOM     18  C   LIG    1      -51.362   6.448 -46.944  0.00  0.00    -0.041 C 
ATOM     19  C   LIG    1      -52.228   5.903 -47.814  0.00  0.00    +0.050 C 
ENDROOT
BRANCH  17  20
ATOM     20  C   LIG    1      -47.777   9.909 -46.839  0.00  0.00    -0.040 A 
ATOM     21  C   LIG    1      -46.743  10.544 -47.555  0.00  0.00    +0.006 A 
ATOM     22  C   LIG    1      -46.036  11.646 -47.023  0.00  0.00    +0.023 A 
ATOM     23  C   LIG    1      -46.305  12.162 -45.746  0.00  0.00    +0.029 A 
ATOM     24  C   LIG    1      -47.427  11.605 -45.114  0.00  0.00    +0.023 A 
ATOM     25  C   LIG    1      -48.176  10.544 -45.669  0.00  0.00    +0.006 A 
BRANCH  23  26
ATOM     26  N   LIG    1      -45.466  13.089 -45.119  0.00  0.00    -0.336 N 
ATOM     27  C   LIG    1      -45.186  12.971 -43.690  0.00  0.00    +0.129 C 
ATOM     28  C   LIG    1      -44.445  13.793 -45.894  0.00  0.00    +0.129 C 
ENDBRANCH  23  26
ENDBRANCH  17  20
BRANCH  13  29
ATOM     29  C   LIG    1      -45.352   8.556 -43.454  0.00  0.00    -0.067 C 
ATOM     30  C   LIG    1      -44.457   9.319 -43.629  0.00  0.00    -0.103 C 
ATOM     31  C   LIG    1      -43.369  10.246 -43.842  0.00  0.00    +0.106 C 
ENDBRANCH  13  29
BRANCH  13  32
ATOM     32  O   LIG    1      -47.560   8.260 -43.360  0.00  0.00    -0.376 OA
ATOM     33  H   LIG    1      -47.850   8.864 -44.066  0.00  0.00    +0.211 HD
ENDBRANCH  13  32
TORSDOF 4
ENDMDL
MODEL 4
REMARK VINA RESULT:      -7.4      2.725      7.364
REMARK  Name = 
REMARK                            x       y       z     vdW  Elec       q    Type
REMARK                         _______ _______ _______ _____ _____    ______ ____
ROOT
ATOM      1  O   LIG    1      -39.064  20.642 -45.653  0.00  0.00    -0.293 OA
ATOM      2  C   LIG    1      -39.375  19.465 -45.482  0.00  0.00    +0.157 C 
ATOM      3  C   LIG    1      -40.737  19.028 -44.964  0.00  0.00    +0.083 C 
ATOM      4  C   LIG    1      -40.648  17.635 -44.297  0.00  0.00    +0.043 C 
ATOM      5  C   LIG    1      -40.015  16.643 -45.249  0.00  0.00    -0.044 C 
ATOM      6  C   LIG    1      -40.302  15.324 -45.396  0.00  0.00    -0.055 C 
ATOM      7  C   LIG    1      -39.740  14.609 -46.626  0.00  0.00    +0.020 C 
ATOM      8  C   LIG    1      -38.841  15.396 -47.608  0.00  0.00    +0.013 C 
ATOM      9  C   LIG    1      -39.205  16.861 -47.601  0.00  0.00    +0.036 C 
ATOM     10  C   LIG    1      -39.189  13.139 -46.497  0.00  0.00    +0.006 C 
ATOM     11  C   LIG    1      -38.453  12.060 -47.331  0.00  0.00    +0.008 C 
ATOM     12  C   LIG    1      -39.656  11.056 -47.647  0.00  0.00    +0.049 C 
ATOM     13  C   LIG    1      -40.862  11.580 -46.745  0.00  0.00    +0.132 C 
ATOM     14  C   LIG    1      -40.062  12.229 -45.567  0.00  0.00    +0.012 C 
ATOM     15  C   LIG    1      -39.258  11.083 -44.815  0.00  0.00    +0.015 C 
ATOM     16  C   LIG    1      -40.553  13.033 -44.333  0.00  0.00    +0.023 C 
ATOM     17  C   LIG    1      -41.097  14.471 -44.406  0.00  0.00    +0.046 C 
ATOM     18  C   LIG    1      -39.088  17.295 -46.178  0.00  0.00    -0.041 C 
ATOM     19  C   LIG    1      -38.386  18.387 -45.832  0.00  0.00    +0.050 C 
ENDROOT
BRANCH  17  20
ATOM     20  C   LIG    1      -42.627  14.321 -44.313  0.00  0.00    -0.040 A 
ATOM     21  C   LIG    1      -43.148  13.277 -43.523  0.00  0.00    +0.006 A 
ATOM     22  C   LIG    1      -44.370  12.642 -43.840  0.00  0.00    +0.023 A 
ATOM     23  C   LIG    1      -45.127  12.996 -44.967  0.00  0.00    +0.029 A 
ATOM     24  C   LIG    1      -44.661  14.127 -45.654  0.00  0.00    +0.023 A 
ATOM     25  C   LIG    1      -43.471  14.805 -45.304  0.00  0.00    +0.006 A 
BRANCH  23  26
ATOM     26  N   LIG    1      -46.205  12.228 -45.419  0.00  0.00    -0.336 N 
ATOM     27  C   LIG    1      -46.262  11.800 -46.815  0.00  0.00    +0.129 C 
ATOM     28  C   LIG    1      -46.945  11.383 -44.483  0.00  0.00    +0.129 C 
ENDBRANCH  23  26
ENDBRANCH  17  20
BRANCH  13  29
ATOM     29  C   LIG    1      -41.900  10.607 -46.514  0.00  0.00    -0.067 C 
ATOM     30  C   LIG    1      -42.834  10.110 -45.970  0.00  0.00    -0.103 C 
ATOM     31  C   LIG    1      -43.968   9.507 -45.309  0.00  0.00    +0.106 C 
ENDBRANCH  13  29
BRANCH  13  32
ATOM     32  O   LIG    1      -41.557  12.544 -47.564  0.00  0.00    -0.376 OA
ATOM     33  H   LIG    1      -40.910  13.210 -47.857  0.00  0.00    +0.211 HD
ENDBRANCH  13  32
TORSDOF 4
ENDMDL
MODEL 5
REMARK VINA RESULT:      -7.2      4.208      7.009
REMARK  Name = 
REMARK                            x       y       z     vdW  Elec       q    Type
REMARK                         _______ _______ _______ _____ _____    ______ ____
ROOT
ATOM      1  O   LIG    1      -36.186   7.417 -44.218  0.00  0.00    -0.293 OA
ATOM      2  C   LIG    1      -36.672   8.370 -44.825  0.00  0.00    +0.157 C 
ATOM      3  C   LIG    1      -37.312   9.563 -44.131  0.00  0.00    +0.083 C 
ATOM      4  C   LIG    1      -38.327  10.261 -45.066  0.00  0.00    +0.043 C 
ATOM      5  C   LIG    1      -37.666  10.608 -46.384  0.00  0.00    -0.044 C 
ATOM      6  C   LIG    1      -37.883  11.695 -47.168  0.00  0.00    -0.055 C 
ATOM      7  C   LIG    1      -36.880  11.971 -48.289  0.00  0.00    +0.020 C 
ATOM      8  C   LIG    1      -35.707  10.987 -48.510  0.00  0.00    +0.013 C 
ATOM      9  C   LIG    1      -35.328  10.319 -47.211  0.00  0.00    +0.036 C 
ATOM     10  C   LIG    1      -37.389  12.478 -49.692  0.00  0.00    +0.006 C 
ATOM     11  C   LIG    1      -36.862  12.782 -51.117  0.00  0.00    +0.008 C 
ATOM     12  C   LIG    1      -36.848  14.381 -51.095  0.00  0.00    +0.049 C 
ATOM     13  C   LIG    1      -37.597  14.769 -49.741  0.00  0.00    +0.132 C 
ATOM     14  C   LIG    1      -38.545  13.532 -49.587  0.00  0.00    +0.012 C 
ATOM     15  C   LIG    1      -39.562  13.524 -50.808  0.00  0.00    +0.015 C 
ATOM     16  C   LIG    1      -39.526  13.145 -48.449  0.00  0.00    +0.023 C 
ATOM     17  C   LIG    1      -39.078  12.642 -47.063  0.00  0.00    +0.046 C 
ATOM     18  C   LIG    1      -36.579   9.680 -46.709  0.00  0.00    -0.041 C 
ATOM     19  C   LIG    1      -36.608   8.392 -46.328  0.00  0.00    +0.050 C 
ENDROOT
BRANCH  17  20
ATOM     20  C   LIG    1      -39.236  13.858 -46.132  0.00  0.00    -0.040 A 
ATOM     21  C   LIG    1      -40.498  14.478 -46.050  0.00  0.00    +0.006 A 
ATOM     22  C   LIG    1      -40.634  15.862 -45.802  0.00  0.00    +0.023 A 
ATOM     23  C   LIG    1      -39.525  16.707 -45.644  0.00  0.00    +0.029 A 
ATOM     24  C   LIG    1      -38.288  16.045 -45.590  0.00  0.00    +0.023 A 
ATOM     25  C   LIG    1      -38.152  14.651 -45.775  0.00  0.00    +0.006 A 
BRANCH  23  26
ATOM     26  N   LIG    1      -39.637  18.101 -45.634  0.00  0.00    -0.336 N 
ATOM     27  C   LIG    1      -40.775  18.738 -44.976  0.00  0.00    +0.129 C 
ATOM     28  C   LIG    1      -38.437  18.931 -45.737  0.00  0.00    +0.129 C 
ENDBRANCH  23  26
ENDBRANCH  17  20
BRANCH  13  29
ATOM     29  C   LIG    1      -38.099  16.119 -49.704  0.00  0.00    -0.067 C 
ATOM     30  C   LIG    1      -38.861  16.998 -49.455  0.00  0.00    -0.103 C 
ATOM     31  C   LIG    1      -39.787  18.065 -49.150  0.00  0.00    +0.106 C 
ENDBRANCH  13  29
BRANCH  13  32
ATOM     32  O   LIG    1      -36.563  14.824 -48.737  0.00  0.00    -0.376 OA
ATOM     33  H   LIG    1      -36.553  13.972 -48.269  0.00  0.00    +0.211 HD
ENDBRANCH  13  32
TORSDOF 4
ENDMDL
MODEL 6
REMARK VINA RESULT:      -7.1      1.657      2.494
REMARK  Name = 
REMARK                            x       y       z     vdW  Elec       q    Type
REMARK                         _______ _______ _______ _____ _____    ______ ____
ROOT
ATOM      1  O   LIG    1      -44.710  10.797 -42.983  0.00  0.00    -0.293 OA
ATOM      2  C   LIG    1      -43.768  11.382 -43.513  0.00  0.00    +0.157 C 
ATOM      3  C   LIG    1      -42.698  10.674 -44.329  0.00  0.00    +0.083 C 
ATOM      4  C   LIG    1      -41.388  11.495 -44.349  0.00  0.00    +0.043 C 
ATOM      5  C   LIG    1      -41.668  12.909 -44.813  0.00  0.00    -0.044 C 
ATOM      6  C   LIG    1      -40.877  13.714 -45.567  0.00  0.00    -0.055 C 
ATOM      7  C   LIG    1      -41.508  14.978 -46.154  0.00  0.00    +0.020 C 
ATOM      8  C   LIG    1      -42.983  15.305 -45.827  0.00  0.00    +0.013 C 
ATOM      9  C   LIG    1      -43.762  14.037 -45.575  0.00  0.00    +0.036 C 
ATOM     10  C   LIG    1      -40.685  16.322 -46.192  0.00  0.00    +0.006 C 
ATOM     11  C   LIG    1      -40.859  17.821 -46.543  0.00  0.00    +0.008 C 
ATOM     12  C   LIG    1      -40.098  17.890 -47.946  0.00  0.00    +0.049 C 
ATOM     13  C   LIG    1      -39.387  16.469 -48.086  0.00  0.00    +0.132 C 
ATOM     14  C   LIG    1      -39.180  16.116 -46.575  0.00  0.00    +0.012 C 
ATOM     15  C   LIG    1      -38.183  17.180 -45.943  0.00  0.00    +0.015 C 
ATOM     16  C   LIG    1      -38.623  14.832 -45.904  0.00  0.00    +0.023 C 
ATOM     17  C   LIG    1      -39.388  13.497 -45.838  0.00  0.00    +0.046 C 
ATOM     18  C   LIG    1      -43.032  13.331 -44.481  0.00  0.00    -0.041 C 
ATOM     19  C   LIG    1      -43.669  12.878 -43.389  0.00  0.00    +0.050 C 
ENDROOT
BRANCH  17  20
ATOM     20  C   LIG    1      -38.750  12.621 -46.932  0.00  0.00    -0.040 A 
ATOM     21  C   LIG    1      -38.844  11.221 -46.806  0.00  0.00    +0.006 A 
ATOM     22  C   LIG    1      -37.837  10.360 -47.299  0.00  0.00    +0.023 A 
ATOM     23  C   LIG    1      -36.678  10.843 -47.923  0.00  0.00    +0.029 A 
ATOM     24  C   LIG    1      -36.675  12.227 -48.162  0.00  0.00    +0.023 A 
ATOM     25  C   LIG    1      -37.709  13.086 -47.726  0.00  0.00    +0.006 A 
BRANCH  23  26
ATOM     26  N   LIG    1      -35.578  10.026 -48.201  0.00  0.00    -0.336 N 
ATOM     27  C   LIG    1      -34.270  10.625 -48.457  0.00  0.00    +0.129 C 
ATOM     28  C   LIG    1      -35.543   8.653 -47.701  0.00  0.00    +0.129 C 
ENDBRANCH  23  26
ENDBRANCH  17  20
BRANCH  13  29
ATOM     29  C   LIG    1      -38.299  16.437 -49.031  0.00  0.00    -0.067 C 
ATOM     30  C   LIG    1      -37.197  16.226 -49.424  0.00  0.00    -0.103 C 
ATOM     31  C   LIG    1      -35.858  15.968 -49.902  0.00  0.00    +0.106 C 
ENDBRANCH  13  29
BRANCH  13  32
ATOM     32  O   LIG    1      -40.355  15.624 -48.742  0.00  0.00    -0.376 OA
ATOM     33  H   LIG    1      -40.176  14.704 -48.481  0.00  0.00    +0.211 HD
ENDBRANCH  13  32
TORSDOF 4
ENDMDL
MODEL 7
REMARK VINA RESULT:      -7.1      4.258      7.782
REMARK  Name = 
REMARK                            x       y       z     vdW  Elec       q    Type
REMARK                         _______ _______ _______ _____ _____    ______ ____
ROOT
ATOM      1  O   LIG    1      -50.157   6.591 -47.463  0.00  0.00    -0.293 OA
ATOM      2  C   LIG    1      -49.447   7.521 -47.086  0.00  0.00    +0.157 C 
ATOM      3  C   LIG    1      -49.796   8.412 -45.903  0.00  0.00    +0.083 C 
ATOM      4  C   LIG    1      -49.100   9.787 -46.028  0.00  0.00    +0.043 C 
ATOM      5  C   LIG    1      -47.611   9.600 -46.228  0.00  0.00    -0.044 C 
ATOM      6  C   LIG    1      -46.601  10.376 -45.761  0.00  0.00    -0.055 C 
ATOM      7  C   LIG    1      -45.180   9.814 -45.840  0.00  0.00    +0.020 C 
ATOM      8  C   LIG    1      -44.955   8.427 -46.486  0.00  0.00    +0.013 C 
ATOM      9  C   LIG    1      -46.177   7.558 -46.310  0.00  0.00    +0.036 C 
ATOM     10  C   LIG    1      -43.982  10.759 -46.233  0.00  0.00    +0.006 C 
ATOM     11  C   LIG    1      -42.467  10.698 -46.554  0.00  0.00    +0.008 C 
ATOM     12  C   LIG    1      -41.851  11.296 -45.206  0.00  0.00    +0.049 C 
ATOM     13  C   LIG    1      -43.114  11.837 -44.395  0.00  0.00    +0.132 C 
ATOM     14  C   LIG    1      -44.075  12.181 -45.583  0.00  0.00    +0.012 C 
ATOM     15  C   LIG    1      -43.418  13.347 -46.439  0.00  0.00    +0.015 C 
ATOM     16  C   LIG    1      -45.545  12.678 -45.581  0.00  0.00    +0.023 C 
ATOM     17  C   LIG    1      -46.750  11.794 -45.208  0.00  0.00    +0.046 C 
ATOM     18  C   LIG    1      -47.307   8.334 -46.899  0.00  0.00    -0.041 C 
ATOM     19  C   LIG    1      -48.146   7.784 -47.793  0.00  0.00    +0.050 C 
ENDROOT
BRANCH  17  20
ATOM     20  C   LIG    1      -47.116  12.210 -43.772  0.00  0.00    -0.040 A 
ATOM     21  C   LIG    1      -46.355  11.681 -42.710  0.00  0.00    +0.006 A 
ATOM     22  C   LIG    1      -46.920  11.440 -41.437  0.00  0.00    +0.023 A 
ATOM     23  C   LIG    1      -48.272  11.692 -41.158  0.00  0.00    +0.029 A 
ATOM     24  C   LIG    1      -48.969  12.348 -42.185  0.00  0.00    +0.023 A 
ATOM     25  C   LIG    1      -48.391  12.647 -43.438  0.00  0.00    +0.006 A 
BRANCH  23  26
ATOM     26  N   LIG    1      -48.894  11.244 -39.988  0.00  0.00    -0.336 N 
ATOM     27  C   LIG    1      -50.305  11.540 -39.752  0.00  0.00    +0.129 C 
ATOM     28  C   LIG    1      -48.386  10.058 -39.299  0.00  0.00    +0.129 C 
ENDBRANCH  23  26
ENDBRANCH  17  20
BRANCH  13  29
ATOM     29  C   LIG    1      -42.796  12.800 -43.371  0.00  0.00    -0.067 C 
ATOM     30  C   LIG    1      -42.238  13.726 -42.874  0.00  0.00    -0.103 C 
ATOM     31  C   LIG    1      -41.561  14.850 -42.270  0.00  0.00    +0.106 C 
ENDBRANCH  13  29
BRANCH  13  32
ATOM     32  O   LIG    1      -43.564  10.719 -43.602  0.00  0.00    -0.376 OA
ATOM     33  H   LIG    1      -43.683   9.958 -44.196  0.00  0.00    +0.211 HD
ENDBRANCH  13  32
TORSDOF 4
ENDMDL
MODEL 8
REMARK VINA RESULT:      -7.0      4.471      8.262
REMARK  Name = 
REMARK                            x       y       z     vdW  Elec       q    Type
REMARK                         _______ _______ _______ _____ _____    ______ ____
ROOT
ATOM      1  O   LIG    1      -46.211  22.536 -50.215  0.00  0.00    -0.293 OA
ATOM      2  C   LIG    1      -45.214  21.979 -49.759  0.00  0.00    +0.157 C 
ATOM      3  C   LIG    1      -45.200  21.258 -48.420  0.00  0.00    +0.083 C 
ATOM      4  C   LIG    1      -43.767  21.198 -47.843  0.00  0.00    +0.043 C 
ATOM      5  C   LIG    1      -42.821  20.600 -48.864  0.00  0.00    -0.044 C 
ATOM      6  C   LIG    1      -41.750  19.797 -48.642  0.00  0.00    -0.055 C 
ATOM      7  C   LIG    1      -41.139  19.081 -49.848  0.00  0.00    +0.020 C 
ATOM      8  C   LIG    1      -41.728  19.340 -51.255  0.00  0.00    +0.013 C 
ATOM      9  C   LIG    1      -43.194  19.686 -51.158  0.00  0.00    +0.036 C 
ATOM     10  C   LIG    1      -39.574  18.943 -49.970  0.00  0.00    +0.006 C 
ATOM     11  C   LIG    1      -38.490  18.454 -50.964  0.00  0.00    +0.008 C 
ATOM     12  C   LIG    1      -38.066  17.070 -50.285  0.00  0.00    +0.049 C 
ATOM     13  C   LIG    1      -38.799  17.078 -48.869  0.00  0.00    +0.132 C 
ATOM     14  C   LIG    1      -38.873  18.619 -48.607  0.00  0.00    +0.012 C 
ATOM     15  C   LIG    1      -37.391  19.177 -48.473  0.00  0.00    +0.015 C 
ATOM     16  C   LIG    1      -39.539  19.418 -47.455  0.00  0.00    +0.023 C 
ATOM     17  C   LIG    1      -41.061  19.585 -47.293  0.00  0.00    +0.046 C 
ATOM     18  C   LIG    1      -43.268  20.857 -50.236  0.00  0.00    -0.041 C 
ATOM     19  C   LIG    1      -43.945  21.970 -50.566  0.00  0.00    +0.050 C 
ENDROOT
BRANCH  17  20
ATOM     20  C   LIG    1      -41.453  18.591 -46.184  0.00  0.00    -0.040 A 
ATOM     21  C   LIG    1      -40.561  18.404 -45.110  0.00  0.00    +0.006 A 
ATOM     22  C   LIG    1      -40.455  17.166 -44.437  0.00  0.00    +0.023 A 
ATOM     23  C   LIG    1      -41.213  16.046 -44.807  0.00  0.00    +0.029 A 
ATOM     24  C   LIG    1      -42.190  16.297 -45.782  0.00  0.00    +0.023 A 
ATOM     25  C   LIG    1      -42.343  17.550 -46.416  0.00  0.00    +0.006 A 
BRANCH  23  26
ATOM     26  N   LIG    1      -40.952  14.764 -44.310  0.00  0.00    -0.336 N 
ATOM     27  C   LIG    1      -41.503  14.355 -43.021  0.00  0.00    +0.129 C 
ATOM     28  C   LIG    1      -40.655  13.669 -45.233  0.00  0.00    +0.129 C 
ENDBRANCH  23  26
ENDBRANCH  17  20
BRANCH  13  29
ATOM     29  C   LIG    1      -38.237  16.168 -47.902  0.00  0.00    -0.067 C 
ATOM     30  C   LIG    1      -37.866  15.796 -46.835  0.00  0.00    -0.103 C 
ATOM     31  C   LIG    1      -37.416  15.345 -45.539  0.00  0.00    +0.106 C 
ENDBRANCH  13  29
BRANCH  13  32
ATOM     32  O   LIG    1      -40.089  16.476 -49.106  0.00  0.00    -0.376 OA
ATOM     33  H   LIG    1      -40.038  15.542 -48.839  0.00  0.00    +0.211 HD
ENDBRANCH  13  32
TORSDOF 4
ENDMDL
MODEL 9
REMARK VINA RESULT:      -7.0      2.537      5.233
REMARK  Name = 
REMARK                            x       y       z     vdW  Elec       q    Type
REMARK                         _______ _______ _______ _____ _____    ______ ____
ROOT
ATOM      1  O   LIG    1      -45.193   9.696 -42.524  0.00  0.00    -0.293 OA
ATOM      2  C   LIG    1      -44.569  10.480 -43.237  0.00  0.00    +0.157 C 
ATOM      3  C   LIG    1      -44.566  11.986 -43.019  0.00  0.00    +0.083 C 
ATOM      4  C   LIG    1      -44.239  12.730 -44.335  0.00  0.00    +0.043 C 
ATOM      5  C   LIG    1      -42.949  12.200 -44.924  0.00  0.00    -0.044 C 
ATOM      6  C   LIG    1      -41.993  12.887 -45.599  0.00  0.00    -0.055 C 
ATOM      7  C   LIG    1      -40.648  12.193 -45.828  0.00  0.00    +0.020 C 
ATOM      8  C   LIG    1      -40.458  10.741 -45.332  0.00  0.00    +0.013 C 
ATOM      9  C   LIG    1      -41.328  10.475 -44.127  0.00  0.00    +0.036 C 
ATOM     10  C   LIG    1      -39.901  12.364 -47.204  0.00  0.00    +0.006 C 
ATOM     11  C   LIG    1      -38.659  11.831 -47.964  0.00  0.00    +0.008 C 
ATOM     12  C   LIG    1      -37.671  13.081 -47.833  0.00  0.00    +0.049 C 
ATOM     13  C   LIG    1      -38.575  14.244 -47.222  0.00  0.00    +0.132 C 
ATOM     14  C   LIG    1      -39.978  13.820 -47.775  0.00  0.00    +0.012 C 
ATOM     15  C   LIG    1      -39.942  13.915 -49.361  0.00  0.00    +0.015 C 
ATOM     16  C   LIG    1      -41.386  14.423 -47.526  0.00  0.00    +0.023 C 
ATOM     17  C   LIG    1      -42.159  14.283 -46.202  0.00  0.00    +0.046 C 
ATOM     18  C   LIG    1      -42.719  10.799 -44.560  0.00  0.00    -0.041 C 
ATOM     19  C   LIG    1      -43.734   9.940 -44.365  0.00  0.00    +0.050 C 
ENDROOT
BRANCH  17  20
ATOM     20  C   LIG    1      -41.983  15.639 -45.495  0.00  0.00    -0.040 A 
ATOM     21  C   LIG    1      -42.324  16.809 -46.202  0.00  0.00    +0.006 A 
ATOM     22  C   LIG    1      -41.655  18.034 -45.981  0.00  0.00    +0.023 A 
ATOM     23  C   LIG    1      -40.600  18.157 -45.065  0.00  0.00    +0.029 A 
ATOM     24  C   LIG    1      -40.375  17.018 -44.277  0.00  0.00    +0.023 A 
ATOM     25  C   LIG    1      -41.084  15.808 -44.450  0.00  0.00    +0.006 A 
BRANCH  23  26
ATOM     26  N   LIG    1      -39.782  19.290 -45.008  0.00  0.00    -0.336 N 
ATOM     27  C   LIG    1      -38.484  19.288 -45.677  0.00  0.00    +0.129 C 
ATOM     28  C   LIG    1      -40.377  20.612 -44.815  0.00  0.00    +0.129 C 
ENDBRANCH  23  26
ENDBRANCH  17  20
BRANCH  13  29
ATOM     29  C   LIG    1      -38.050  15.572 -47.418  0.00  0.00    -0.067 C 
ATOM     30  C   LIG    1      -37.722  16.541 -48.025  0.00  0.00    -0.103 C 
ATOM     31  C   LIG    1      -37.324  17.718 -48.762  0.00  0.00    +0.106 C 
ENDBRANCH  13  29
BRANCH  13  32
ATOM     32  O   LIG    1      -38.459  14.103 -45.791  0.00  0.00    -0.376 OA
ATOM     33  H   LIG    1      -37.527  13.916 -45.583  0.00  0.00    +0.211 HD
ENDBRANCH  13  32
TORSDOF 4
ENDMDL
