MODEL 1
REMARK VINA RESULT:       1.2      0.000      0.000
REMARK  Name = 
REMARK                            x       y       z     vdW  Elec       q    Type
REMARK                         _______ _______ _______ _____ _____    ______ ____
ROOT
ATOM      1  O   LIG    1       25.892 -20.966 -12.568  0.00  0.00    -0.293 OA
ATOM      2  C   LIG    1       25.785 -22.190 -12.560  0.00  0.00    +0.157 C 
ATOM      3  C   LIG    1       26.801 -23.113 -11.903  0.00  0.00    +0.083 C 
ATOM      4  C   LIG    1       26.754 -24.522 -12.538  0.00  0.00    +0.043 C 
ATOM      5  C   LIG    1       25.338 -25.058 -12.506  0.00  0.00    -0.044 C 
ATOM      6  C   LIG    1       24.934 -26.341 -12.325  0.00  0.00    -0.055 C 
ATOM      7  C   LIG    1       23.452 -26.583 -12.032  0.00  0.00    +0.020 C 
ATOM      8  C   LIG    1       22.484 -25.377 -12.005  0.00  0.00    +0.013 C 
ATOM      9  C   LIG    1       23.214 -24.123 -11.586  0.00  0.00    +0.036 C 
ATOM     10  C   LIG    1       22.713 -27.814 -12.680  0.00  0.00    +0.006 C 
ATOM     11  C   LIG    1       21.294 -28.424 -12.810  0.00  0.00    +0.008 C 
ATOM     12  C   LIG    1       21.405 -29.653 -11.794  0.00  0.00    +0.049 C 
ATOM     13  C   LIG    1       22.950 -29.714 -11.406  0.00  0.00    +0.132 C 
ATOM     14  C   LIG    1       23.584 -29.116 -12.707  0.00  0.00    +0.012 C 
ATOM     15  C   LIG    1       23.271 -30.099 -13.915  0.00  0.00    +0.015 C 
ATOM     16  C   LIG    1       25.058 -28.772 -13.047  0.00  0.00    +0.023 C 
ATOM     17  C   LIG    1       25.823 -27.579 -12.443  0.00  0.00    +0.046 C 
ATOM     18  C   LIG    1       24.346 -23.980 -12.547  0.00  0.00    -0.041 C 
ATOM     19  C   LIG    1       24.578 -22.826 -13.194  0.00  0.00    +0.050 C 
ENDROOT
BRANCH  17  20
ATOM     20  C   LIG    1       26.723 -28.197 -11.357  0.00  0.00    -0.040 A 
ATOM     21  C   LIG    1       26.254 -28.209 -10.028  0.00  0.00    +0.006 A 
ATOM     22  C   LIG    1       27.136 -28.121  -8.927  0.00  0.00    +0.023 A 
ATOM     23  C   LIG    1       28.524 -27.997  -9.086  0.00  0.00    +0.029 A 
ATOM     24  C   LIG    1       28.975 -28.130 -10.409  0.00  0.00    +0.023 A 
ATOM     25  C   LIG    1       28.102 -28.279 -11.509  0.00  0.00    +0.006 A 
BRANCH  23  26
ATOM     26  N   LIG    1       29.376 -27.676  -8.025  0.00  0.00    -0.336 N 
ATOM     27  C   LIG    1       29.953 -26.337  -7.931  0.00  0.00    +0.129 C 
ATOM     28  C   LIG    1       29.265 -28.393  -6.755  0.00  0.00    +0.129 C 
ENDBRANCH  23  26
ENDBRANCH  17  20
BRANCH  13  29
ATOM     29  C   LIG    1       23.379 -30.979 -10.864  0.00  0.00    -0.067 C 
ATOM     30  C   LIG    1       24.121 -31.757 -10.356  0.00  0.00    -0.103 C 
ATOM     31  C   LIG    1       25.023 -32.702  -9.738  0.00  0.00    +0.106 C 
ENDBRANCH  13  29
BRANCH  13  32
ATOM     32  O   LIG    1       23.087 -28.853 -10.256  0.00  0.00    -0.376 OA
ATOM     33  H   LIG    1       23.381 -29.399  -9.506  0.00  0.00    +0.211 HD
ENDBRANCH  13  32
TORSDOF 4
ENDMDL
MODEL 2
REMARK VINA RESULT:       1.7      2.275      5.166
REMARK  Name = 
REMARK                            x       y       z     vdW  Elec       q    Type
REMARK                         _______ _______ _______ _____ _____    ______ ____
ROOT
ATOM      1  O   LIG    1       25.166 -20.904 -13.468  0.00  0.00    -0.293 OA
ATOM      2  C   LIG    1       25.181 -21.985 -12.883  0.00  0.00    +0.157 C 
ATOM      3  C   LIG    1       23.942 -22.847 -12.690  0.00  0.00    +0.083 C 
ATOM      4  C   LIG    1       24.108 -23.779 -11.467  0.00  0.00    +0.043 C 
ATOM      5  C   LIG    1       25.389 -24.577 -11.592  0.00  0.00    -0.044 C 
ATOM      6  C   LIG    1       25.620 -25.855 -11.198  0.00  0.00    -0.055 C 
ATOM      7  C   LIG    1       26.894 -26.534 -11.705  0.00  0.00    +0.020 C 
ATOM      8  C   LIG    1       27.874 -25.730 -12.591  0.00  0.00    +0.013 C 
ATOM      9  C   LIG    1       27.131 -24.677 -13.378  0.00  0.00    +0.036 C 
ATOM     10  C   LIG    1       27.725 -27.464 -10.742  0.00  0.00    +0.006 C 
ATOM     11  C   LIG    1       29.058 -28.253 -10.698  0.00  0.00    +0.008 C 
ATOM     12  C   LIG    1       28.526 -29.749 -10.882  0.00  0.00    +0.049 C 
ATOM     13  C   LIG    1       26.941 -29.627 -10.766  0.00  0.00    +0.132 C 
ATOM     14  C   LIG    1       26.829 -28.374  -9.833  0.00  0.00    +0.012 C 
ATOM     15  C   LIG    1       27.468 -28.738  -8.424  0.00  0.00    +0.015 C 
ATOM     16  C   LIG    1       25.586 -27.587  -9.342  0.00  0.00    +0.023 C 
ATOM     17  C   LIG    1       24.742 -26.664 -10.241  0.00  0.00    +0.046 C 
ATOM     18  C   LIG    1       26.406 -23.858 -12.364  0.00  0.00    -0.041 C 
ATOM     19  C   LIG    1       26.486 -22.516 -12.356  0.00  0.00    +0.050 C 
ENDROOT
BRANCH  17  20
ATOM     20  C   LIG    1       23.487 -27.486 -10.586  0.00  0.00    -0.040 A 
ATOM     21  C   LIG    1       23.030 -28.431  -9.646  0.00  0.00    +0.006 A 
ATOM     22  C   LIG    1       22.375 -29.619 -10.043  0.00  0.00    +0.023 A 
ATOM     23  C   LIG    1       22.159 -29.940 -11.392  0.00  0.00    +0.029 A 
ATOM     24  C   LIG    1       22.495 -28.921 -12.297  0.00  0.00    +0.023 A 
ATOM     25  C   LIG    1       23.094 -27.705 -11.900  0.00  0.00    +0.006 A 
BRANCH  23  26
ATOM     26  N   LIG    1       21.729 -31.206 -11.803  0.00  0.00    -0.336 N 
ATOM     27  C   LIG    1       21.974 -32.371 -10.957  0.00  0.00    +0.129 C 
ATOM     28  C   LIG    1       20.593 -31.331 -12.716  0.00  0.00    +0.129 C 
ENDBRANCH  23  26
ENDBRANCH  17  20
BRANCH  13  29
ATOM     29  C   LIG    1       26.269 -30.864 -10.459  0.00  0.00    -0.067 C 
ATOM     30  C   LIG    1       25.464 -31.576  -9.948  0.00  0.00    -0.103 C 
ATOM     31  C   LIG    1       24.486 -32.440  -9.328  0.00  0.00    +0.106 C 
ENDBRANCH  13  29
BRANCH  13  32
ATOM     32  O   LIG    1       26.479 -29.381 -12.110  0.00  0.00    -0.376 OA
ATOM     33  H   LIG    1       25.716 -28.780 -12.060  0.00  0.00    +0.211 HD
ENDBRANCH  13  32
TORSDOF 4
ENDMDL
MODEL 3
REMARK VINA RESULT:       3.3      1.046      1.135
REMARK  Name = 
REMARK                            x       y       z     vdW  Elec       q    Type
REMARK                         _______ _______ _______ _____ _____    ______ ____
ROOT
ATOM      1  O   LIG    1       26.138 -21.332 -13.246  0.00  0.00    -0.293 OA
ATOM      2  C   LIG    1       25.859 -22.518 -13.083  0.00  0.00    +0.157 C 
ATOM      3  C   LIG    1       26.902 -23.591 -12.805  0.00  0.00    +0.083 C 
ATOM      4  C   LIG    1       26.385 -24.983 -13.236  0.00  0.00    +0.043 C 
ATOM      5  C   LIG    1       25.043 -25.261 -12.592  0.00  0.00    -0.044 C 
ATOM      6  C   LIG    1       24.558 -26.448 -12.148  0.00  0.00    -0.055 C 
ATOM      7  C   LIG    1       23.308 -26.418 -11.266  0.00  0.00    +0.020 C 
ATOM      8  C   LIG    1       22.631 -25.060 -10.966  0.00  0.00    +0.013 C 
ATOM      9  C   LIG    1       23.650 -23.946 -10.991  0.00  0.00    +0.036 C 
ATOM     10  C   LIG    1       22.190 -27.513 -11.450  0.00  0.00    +0.006 C 
ATOM     11  C   LIG    1       20.768 -27.867 -10.946  0.00  0.00    +0.008 C 
ATOM     12  C   LIG    1       21.096 -29.074  -9.950  0.00  0.00    +0.049 C 
ATOM     13  C   LIG    1       22.637 -29.397 -10.207  0.00  0.00    +0.132 C 
ATOM     14  C   LIG    1       22.765 -28.949 -11.702  0.00  0.00    +0.012 C 
ATOM     15  C   LIG    1       21.840 -29.888 -12.589  0.00  0.00    +0.015 C 
ATOM     16  C   LIG    1       24.005 -28.877 -12.633  0.00  0.00    +0.023 C 
ATOM     17  C   LIG    1       25.122 -27.826 -12.497  0.00  0.00    +0.046 C 
ATOM     18  C   LIG    1       24.298 -24.026 -12.332  0.00  0.00    -0.041 C 
ATOM     19  C   LIG    1       24.417 -22.945 -13.121  0.00  0.00    +0.050 C 
ENDROOT
BRANCH  17  20
ATOM     20  C   LIG    1       26.282 -28.568 -11.809  0.00  0.00    -0.040 A 
ATOM     21  C   LIG    1       26.053 -29.134 -10.539  0.00  0.00    +0.006 A 
ATOM     22  C   LIG    1       27.081 -29.241  -9.575  0.00  0.00    +0.023 A 
ATOM     23  C   LIG    1       28.383 -28.775  -9.813  0.00  0.00    +0.029 A 
ATOM     24  C   LIG    1       28.619 -28.347 -11.129  0.00  0.00    +0.023 A 
ATOM     25  C   LIG    1       27.609 -28.295 -12.116  0.00  0.00    +0.006 A 
BRANCH  23  26
ATOM     26  N   LIG    1       29.338 -28.660  -8.798  0.00  0.00    -0.336 N 
ATOM     27  C   LIG    1       30.688 -28.201  -9.114  0.00  0.00    +0.129 C 
ATOM     28  C   LIG    1       28.913 -28.431  -7.418  0.00  0.00    +0.129 C 
ENDBRANCH  23  26
ENDBRANCH  17  20
BRANCH  13  29
ATOM     29  C   LIG    1       23.052 -30.706  -9.768  0.00  0.00    -0.067 C 
ATOM     30  C   LIG    1       23.771 -31.647  -9.658  0.00  0.00    -0.103 C 
ATOM     31  C   LIG    1       24.646 -32.789  -9.525  0.00  0.00    +0.106 C 
ENDBRANCH  13  29
BRANCH  13  32
ATOM     32  O   LIG    1       23.361 -28.549  -9.292  0.00  0.00    -0.376 OA
ATOM     33  H   LIG    1       22.728 -27.925  -8.897  0.00  0.00    +0.211 HD
ENDBRANCH  13  32
TORSDOF 4
ENDMDL
