MODEL 1
REMARK VINA RESULT:       0.5      0.000      0.000
REMARK  Name = 
REMARK                            x       y       z     vdW  Elec       q    Type
REMARK                         _______ _______ _______ _____ _____    ______ ____
ROOT
ATOM      1  O   LIG    1       23.327  49.899  11.361  0.00  0.00    -0.293 OA
ATOM      2  C   LIG    1       22.446  49.879  12.218  0.00  0.00    +0.157 C 
ATOM      3  C   LIG    1       20.972  49.681  11.896  0.00  0.00    +0.083 C 
ATOM      4  C   LIG    1       20.082  50.284  13.008  0.00  0.00    +0.043 C 
ATOM      5  C   LIG    1       20.488  49.729  14.357  0.00  0.00    -0.044 C 
ATOM      6  C   LIG    1       19.691  49.439  15.416  0.00  0.00    -0.055 C 
ATOM      7  C   LIG    1       20.294  48.610  16.552  0.00  0.00    +0.020 C 
ATOM      8  C   LIG    1       21.780  48.188  16.468  0.00  0.00    +0.013 C 
ATOM      9  C   LIG    1       22.208  48.048  15.027  0.00  0.00    +0.036 C 
ATOM     10  C   LIG    1       19.949  48.958  18.049  0.00  0.00    +0.006 C 
ATOM     11  C   LIG    1       20.341  48.553  19.492  0.00  0.00    +0.008 C 
ATOM     12  C   LIG    1       19.067  47.686  19.916  0.00  0.00    +0.049 C 
ATOM     13  C   LIG    1       18.017  47.916  18.738  0.00  0.00    +0.132 C 
ATOM     14  C   LIG    1       18.446  49.345  18.264  0.00  0.00    +0.012 C 
ATOM     15  C   LIG    1       18.187  50.368  19.453  0.00  0.00    +0.015 C 
ATOM     16  C   LIG    1       17.938  50.213  17.081  0.00  0.00    +0.023 C 
ATOM     17  C   LIG    1       18.250  49.916  15.602  0.00  0.00    +0.046 C 
ATOM     18  C   LIG    1       21.907  49.364  14.391  0.00  0.00    -0.041 C 
ATOM     19  C   LIG    1       22.827  50.022  13.666  0.00  0.00    +0.050 C 
ENDROOT
BRANCH  17  20
ATOM     20  C   LIG    1       16.967  49.270  15.049  0.00  0.00    -0.040 A 
ATOM     21  C   LIG    1       16.461  48.126  15.699  0.00  0.00    +0.006 A 
ATOM     22  C   LIG    1       15.764  47.117  14.997  0.00  0.00    +0.023 A 
ATOM     23  C   LIG    1       15.551  47.180  13.612  0.00  0.00    +0.029 A 
ATOM     24  C   LIG    1       15.938  48.390  13.015  0.00  0.00    +0.023 A 
ATOM     25  C   LIG    1       16.580  49.429  13.725  0.00  0.00    +0.006 A 
BRANCH  23  26
ATOM     26  N   LIG    1       15.076  46.091  12.875  0.00  0.00    -0.336 N 
ATOM     27  C   LIG    1       15.925  44.918  12.675  0.00  0.00    +0.129 C 
ATOM     28  C   LIG    1       13.638  45.835  12.791  0.00  0.00    +0.129 C 
ENDBRANCH  23  26
ENDBRANCH  17  20
BRANCH  13  29
ATOM     29  C   LIG    1       16.653  47.609  19.088  0.00  0.00    -0.067 C 
ATOM     30  C   LIG    1       15.562  47.807  19.517  0.00  0.00    -0.103 C 
ATOM     31  C   LIG    1       14.236  48.048  20.039  0.00  0.00    +0.106 C 
ENDBRANCH  13  29
BRANCH  13  32
ATOM     32  O   LIG    1       18.300  46.884  17.770  0.00  0.00    -0.376 OA
ATOM     33  H   LIG    1       18.284  47.290  16.886  0.00  0.00    +0.211 HD
ENDBRANCH  13  32
TORSDOF 4
ENDMDL
MODEL 2
REMARK VINA RESULT:       1.5      2.112      6.167
REMARK  Name = 
REMARK                            x       y       z     vdW  Elec       q    Type
REMARK                         _______ _______ _______ _____ _____    ______ ____
ROOT
ATOM      1  O   LIG    1       13.890  50.209  21.462  0.00  0.00    -0.293 OA
ATOM      2  C   LIG    1       14.755  49.752  20.716  0.00  0.00    +0.157 C 
ATOM      3  C   LIG    1       14.535  48.534  19.831  0.00  0.00    +0.083 C 
ATOM      4  C   LIG    1       15.881  47.850  19.496  0.00  0.00    +0.043 C 
ATOM      5  C   LIG    1       16.846  48.859  18.911  0.00  0.00    -0.044 C 
ATOM      6  C   LIG    1       17.778  48.663  17.944  0.00  0.00    -0.055 C 
ATOM      7  C   LIG    1       18.418  49.901  17.314  0.00  0.00    +0.020 C 
ATOM      8  C   LIG    1       18.018  51.302  17.834  0.00  0.00    +0.013 C 
ATOM      9  C   LIG    1       16.606  51.284  18.366  0.00  0.00    +0.036 C 
ATOM     10  C   LIG    1       19.957  49.904  16.975  0.00  0.00    +0.006 C 
ATOM     11  C   LIG    1       21.069  50.860  16.474  0.00  0.00    +0.008 C 
ATOM     12  C   LIG    1       21.240  50.353  14.967  0.00  0.00    +0.049 C 
ATOM     13  C   LIG    1       20.368  49.020  14.892  0.00  0.00    +0.132 C 
ATOM     14  C   LIG    1       20.463  48.546  16.381  0.00  0.00    +0.012 C 
ATOM     15  C   LIG    1       21.981  48.205  16.704  0.00  0.00    +0.015 C 
ATOM     16  C   LIG    1       19.785  47.354  17.107  0.00  0.00    +0.023 C 
ATOM     17  C   LIG    1       18.287  47.303  17.463  0.00  0.00    +0.046 C 
ATOM     18  C   LIG    1       16.583  50.214  19.405  0.00  0.00    -0.041 C 
ATOM     19  C   LIG    1       16.091  50.438  20.635  0.00  0.00    +0.050 C 
ENDROOT
BRANCH  17  20
ATOM     20  C   LIG    1       17.658  46.387  16.397  0.00  0.00    -0.040 A 
ATOM     21  C   LIG    1       18.169  46.441  15.085  0.00  0.00    +0.006 A 
ATOM     22  C   LIG    1       17.351  46.201  13.958  0.00  0.00    +0.023 A 
ATOM     23  C   LIG    1       15.983  45.916  14.072  0.00  0.00    +0.029 A 
ATOM     24  C   LIG    1       15.532  45.730  15.388  0.00  0.00    +0.023 A 
ATOM     25  C   LIG    1       16.360  45.908  16.519  0.00  0.00    +0.006 A 
BRANCH  23  26
ATOM     26  N   LIG    1       15.121  45.910  12.970  0.00  0.00    -0.336 N 
ATOM     27  C   LIG    1       13.717  46.276  13.138  0.00  0.00    +0.129 C 
ATOM     28  C   LIG    1       15.656  46.110  11.624  0.00  0.00    +0.129 C 
ENDBRANCH  23  26
ENDBRANCH  17  20
BRANCH  13  29
ATOM     29  C   LIG    1       20.706  48.149  13.794  0.00  0.00    -0.067 C 
ATOM     30  C   LIG    1       21.062  47.147  13.261  0.00  0.00    -0.103 C 
ATOM     31  C   LIG    1       21.494  45.930  12.614  0.00  0.00    +0.106 C 
ENDBRANCH  13  29
BRANCH  13  32
ATOM     32  O   LIG    1       19.045  49.452  14.513  0.00  0.00    -0.376 OA
ATOM     33  H   LIG    1       18.542  49.627  15.327  0.00  0.00    +0.211 HD
ENDBRANCH  13  32
TORSDOF 4
ENDMDL
MODEL 3
REMARK VINA RESULT:       3.2      2.574      7.066
REMARK  Name = 
REMARK                            x       y       z     vdW  Elec       q    Type
REMARK                         _______ _______ _______ _____ _____    ______ ____
ROOT
ATOM      1  O   LIG    1       15.280  51.161  21.850  0.00  0.00    -0.293 OA
ATOM      2  C   LIG    1       15.674  50.775  20.752  0.00  0.00    +0.157 C 
ATOM      3  C   LIG    1       16.947  51.286  20.095  0.00  0.00    +0.083 C 
ATOM      4  C   LIG    1       16.879  51.116  18.559  0.00  0.00    +0.043 C 
ATOM      5  C   LIG    1       16.549  49.679  18.210  0.00  0.00    -0.044 C 
ATOM      6  C   LIG    1       16.997  48.951  17.155  0.00  0.00    -0.055 C 
ATOM      7  C   LIG    1       16.763  47.440  17.187  0.00  0.00    +0.020 C 
ATOM      8  C   LIG    1       15.993  46.822  18.378  0.00  0.00    +0.013 C 
ATOM      9  C   LIG    1       16.193  47.652  19.623  0.00  0.00    +0.036 C 
ATOM     10  C   LIG    1       16.354  46.680  15.868  0.00  0.00    +0.006 C 
ATOM     11  C   LIG    1       15.912  45.276  15.385  0.00  0.00    +0.008 C 
ATOM     12  C   LIG    1       17.252  44.768  14.677  0.00  0.00    +0.049 C 
ATOM     13  C   LIG    1       18.199  46.051  14.646  0.00  0.00    +0.132 C 
ATOM     14  C   LIG    1       17.121  47.186  14.599  0.00  0.00    +0.012 C 
ATOM     15  C   LIG    1       16.312  47.054  13.238  0.00  0.00    +0.015 C 
ATOM     16  C   LIG    1       17.277  48.729  14.642  0.00  0.00    +0.023 C 
ATOM     17  C   LIG    1       17.671  49.518  15.905  0.00  0.00    +0.046 C 
ATOM     18  C   LIG    1       15.757  49.032  19.259  0.00  0.00    -0.041 C 
ATOM     19  C   LIG    1       14.890  49.719  20.021  0.00  0.00    +0.050 C 
ENDROOT
BRANCH  17  20
ATOM     20  C   LIG    1       19.160  49.856  15.711  0.00  0.00    -0.040 A 
ATOM     21  C   LIG    1       19.495  50.943  14.879  0.00  0.00    +0.006 A 
ATOM     22  C   LIG    1       20.692  50.964  14.128  0.00  0.00    +0.023 A 
ATOM     23  C   LIG    1       21.607  49.901  14.148  0.00  0.00    +0.029 A 
ATOM     24  C   LIG    1       21.320  48.899  15.088  0.00  0.00    +0.023 A 
ATOM     25  C   LIG    1       20.156  48.904  15.887  0.00  0.00    +0.006 A 
BRANCH  23  26
ATOM     26  N   LIG    1       22.667  49.805  13.240  0.00  0.00    -0.336 N 
ATOM     27  C   LIG    1       22.407  49.869  11.804  0.00  0.00    +0.129 C 
ATOM     28  C   LIG    1       24.014  50.207  13.644  0.00  0.00    +0.129 C 
ENDBRANCH  23  26
ENDBRANCH  17  20
BRANCH  13  29
ATOM     29  C   LIG    1       19.269  45.978  13.683  0.00  0.00    -0.067 C 
ATOM     30  C   LIG    1       20.353  46.172  13.234  0.00  0.00    -0.103 C 
ATOM     31  C   LIG    1       21.671  46.406  12.690  0.00  0.00    +0.106 C 
ENDBRANCH  13  29
BRANCH  13  32
ATOM     32  O   LIG    1       18.933  46.011  15.887  0.00  0.00    -0.376 OA
ATOM     33  H   LIG    1       19.794  46.441  15.740  0.00  0.00    +0.211 HD
ENDBRANCH  13  32
TORSDOF 4
ENDMDL
