REMARK  Name = 
REMARK                            x       y       z     vdW  Elec       q    Type
REMARK                         _______ _______ _______ _____ _____    ______ ____
ROOT
ATOM      1  O   LIG    1        2.071  -1.625   1.063  0.00  0.00    -0.293 OA
ATOM      2  C   LIG    1        2.532  -1.366  -0.047  0.00  0.00    +0.157 C 
ATOM      3  C   LIG    1        3.858  -0.650  -0.254  0.00  0.00    +0.083 C 
ATOM      4  C   LIG    1        3.892   0.055  -1.630  0.00  0.00    +0.043 C 
ATOM      5  C   LIG    1        3.558  -0.933  -2.728  0.00  0.00    -0.044 C 
ATOM      6  C   LIG    1        4.062  -0.986  -3.987  0.00  0.00    -0.055 C 
ATOM      7  C   LIG    1        3.795  -2.251  -4.805  0.00  0.00    +0.020 C 
ATOM      8  C   LIG    1        2.932  -3.377  -4.189  0.00  0.00    +0.013 C 
ATOM      9  C   LIG    1        3.063  -3.380  -2.685  0.00  0.00    +0.036 C 
ATOM     10  C   LIG    1        3.463  -2.138  -6.341  0.00  0.00    +0.006 C 
ATOM     11  C   LIG    1        3.026  -3.020  -7.538  0.00  0.00    +0.008 C 
ATOM     12  C   LIG    1        4.401  -3.129  -8.346  0.00  0.00    +0.049 C 
ATOM     13  C   LIG    1        5.374  -2.094  -7.621  0.00  0.00    +0.132 C 
ATOM     14  C   LIG    1        4.326  -1.062  -7.084  0.00  0.00    +0.012 C 
ATOM     15  C   LIG    1        3.610  -0.380  -8.328  0.00  0.00    +0.015 C 
ATOM     16  C   LIG    1        4.510   0.193  -6.190  0.00  0.00    +0.023 C 
ATOM     17  C   LIG    1        4.832   0.136  -4.685  0.00  0.00    +0.046 C 
ATOM     18  C   LIG    1        2.682  -2.005  -2.248  0.00  0.00    -0.041 C 
ATOM     19  C   LIG    1        1.779  -1.802  -1.274  0.00  0.00    +0.050 C 
ENDROOT
BRANCH  17  20
ATOM     20  C   LIG    1        6.338   0.442  -4.591  0.00  0.00    -0.040 A 
ATOM     21  C   LIG    1        6.736   1.776  -4.374  0.00  0.00    +0.006 A 
ATOM     22  C   LIG    1        7.950   2.284  -4.889  0.00  0.00    +0.023 A 
ATOM     23  C   LIG    1        8.821   1.502  -5.662  0.00  0.00    +0.029 A 
ATOM     24  C   LIG    1        8.472   0.145  -5.744  0.00  0.00    +0.023 A 
ATOM     25  C   LIG    1        7.290  -0.382  -5.178  0.00  0.00    +0.006 A 
BRANCH  23  26
ATOM     26  N   LIG    1        9.897   2.050  -6.368  0.00  0.00    -0.336 N 
ATOM     27  C   LIG    1       10.528   3.281  -5.898  0.00  0.00    +0.129 C 
ATOM     28  C   LIG    1       10.753   1.187  -7.181  0.00  0.00    +0.129 C 
ENDBRANCH  23  26
ENDBRANCH  17  20
BRANCH  13  29
ATOM     29  C   LIG    1        6.506  -1.685  -8.414  0.00  0.00    -0.067 C 
ATOM     30  C   LIG    1        7.569  -1.785  -8.938  0.00  0.00    -0.103 C 
ATOM     31  C   LIG    1        8.860  -1.907  -9.575  0.00  0.00    +0.106 C 
ENDBRANCH  13  29
BRANCH  13  32
ATOM     32  O   LIG    1        6.020  -2.849  -6.575  0.00  0.00    -0.376 OA
ATOM     33  H   LIG    1        6.718  -3.390  -6.983  0.00  0.00    +0.211 HD
ENDBRANCH  13  32
TORSDOF 4
