MODEL 1
REMARK VINA RESULT:      -8.6      0.000      0.000
REMARK  Name = 
REMARK                            x       y       z     vdW  Elec       q    Type
REMARK                         _______ _______ _______ _____ _____    ______ ____
ROOT
ATOM      1  C   LIG    1      -11.628   2.613  13.082  0.00  0.00    +0.109 A 
ATOM      2  C   LIG    1      -12.542   1.643  12.669  0.00  0.00    +0.029 A 
ATOM      3  C   LIG    1      -12.124   0.321  12.533  0.00  0.00    +0.005 A 
ATOM      4  C   LIG    1      -10.796  -0.028  12.803  0.00  0.00    -0.046 A 
ATOM      5  C   LIG    1       -9.895   0.965  13.232  0.00  0.00    +0.005 A 
ATOM      6  C   LIG    1      -10.306   2.285  13.377  0.00  0.00    +0.029 A 
ENDROOT
BRANCH   1   7
ATOM      7  S   LIG    1      -12.118   4.310  13.125  0.00  0.00    +0.076 S 
ATOM      8  O   LIG    1      -13.557   4.374  13.251  0.00  0.00    -0.150 OA
ATOM      9  O   LIG    1      -11.252   5.017  14.041  0.00  0.00    -0.150 OA
BRANCH   7  12
ATOM     10  O   LIG    1      -10.931   5.960   9.930  0.00  0.00    -0.251 OA
ATOM     11  C   LIG    1      -10.977   5.815  11.139  0.00  0.00    +0.319 C 
ATOM     12  N   LIG    1      -11.714   4.740  11.591  0.00  0.00    -0.169 N 
ATOM     13  H   LIG    1      -12.140   4.207  10.839  0.00  0.00    +0.178 HD
ATOM     14  N   LIG    1      -10.368   6.597  12.068  0.00  0.00    -0.295 N 
ATOM     15  H   LIG    1      -10.500   6.334  13.034  0.00  0.00    +0.151 HD
BRANCH  14  16
ATOM     16  C   LIG    1       -9.529   7.770  11.842  0.00  0.00    +0.074 C 
ATOM     17  C   LIG    1       -8.036   7.466  11.716  0.00  0.00    +0.022 C 
ATOM     18  C   LIG    1       -7.318   7.285  13.047  0.00  0.00    +0.002 C 
ATOM     19  C   LIG    1       -7.642   8.374  14.071  0.00  0.00    +0.000 C 
ATOM     20  C   LIG    1       -9.109   8.793  14.159  0.00  0.00    +0.002 C 
ATOM     21  C   LIG    1       -9.793   8.930  12.804  0.00  0.00    +0.022 C 
ENDBRANCH  14  16
ENDBRANCH   7  12
ENDBRANCH   1   7
BRANCH   4  22
ATOM     22  C   LIG    1      -10.252  -1.419  12.634  0.00  0.00    +0.054 C 
BRANCH  22  23
ATOM     23  C   LIG    1       -9.257  -1.702  11.491  0.00  0.00    +0.121 C 
BRANCH  23  24
ATOM     24  N   LIG    1       -8.598  -2.966  11.791  0.00  0.00    -0.237 N 
ATOM     25  C   LIG    1       -9.041  -4.123  11.180  0.00  0.00    +0.232 C 
ATOM     26  O   LIG    1      -10.217  -4.304  10.866  0.00  0.00    -0.274 OA
ATOM     27  C   LIG    1       -7.913  -5.074  10.758  0.00  0.00    +0.067 C 
ATOM     28  C   LIG    1       -7.462  -4.561   9.372  0.00  0.00    +0.025 C 
ATOM     29  C   LIG    1       -8.484  -6.496  10.611  0.00  0.00    +0.025 C 
ATOM     30  C   LIG    1       -6.727  -5.039  11.715  0.00  0.00    -0.021 A 
ATOM     31  C   LIG    1       -5.636  -5.909  11.564  0.00  0.00    +0.009 A 
ATOM     32  C   LIG    1       -4.527  -5.832  12.414  0.00  0.00    +0.046 A 
ATOM     33  C   LIG    1       -4.490  -4.895  13.443  0.00  0.00    +0.121 A 
ATOM     34  C   LIG    1       -5.564  -4.025  13.606  0.00  0.00    +0.059 A 
ATOM     35  C   LIG    1       -6.663  -4.080  12.737  0.00  0.00    +0.045 A 
ATOM     36  C   LIG    1       -7.663  -2.992  12.810  0.00  0.00    +0.253 C 
ATOM     37  O   LIG    1       -7.591  -2.138  13.687  0.00  0.00    -0.270 OA
BRANCH  33  38
ATOM     38  O   LIG    1       -3.465  -4.706  14.327  0.00  0.00    -0.495 OA
ATOM     39  C   LIG    1       -3.806  -4.668  15.707  0.00  0.00    +0.277 C 
ENDBRANCH  33  38
ENDBRANCH  23  24
ENDBRANCH  22  23
ENDBRANCH   4  22
TORSDOF 7
ENDMDL
MODEL 2
REMARK VINA RESULT:      -7.9      1.569      2.234
REMARK  Name = 
REMARK                            x       y       z     vdW  Elec       q    Type
REMARK                         _______ _______ _______ _____ _____    ______ ____
ROOT
ATOM      1  C   LIG    1      -11.068   2.220  12.764  0.00  0.00    +0.109 A 
ATOM      2  C   LIG    1      -11.986   1.291  12.272  0.00  0.00    +0.029 A 
ATOM      3  C   LIG    1      -11.753  -0.068  12.461  0.00  0.00    +0.005 A 
ATOM      4  C   LIG    1      -10.606  -0.499  13.135  0.00  0.00    -0.046 A 
ATOM      5  C   LIG    1       -9.700   0.456  13.635  0.00  0.00    +0.005 A 
ATOM      6  C   LIG    1       -9.927   1.815  13.456  0.00  0.00    +0.029 A 
ENDROOT
BRANCH   1   7
ATOM      7  S   LIG    1      -11.288   3.937  12.409  0.00  0.00    +0.076 S 
ATOM      8  O   LIG    1      -11.306   4.114  10.974  0.00  0.00    -0.150 OA
ATOM      9  O   LIG    1      -12.354   4.447  13.242  0.00  0.00    -0.150 OA
BRANCH   7  12
ATOM     10  O   LIG    1       -8.077   5.794  13.165  0.00  0.00    -0.251 OA
ATOM     11  C   LIG    1       -9.187   5.675  12.675  0.00  0.00    +0.319 C 
ATOM     12  N   LIG    1       -9.859   4.511  12.983  0.00  0.00    -0.169 N 
ATOM     13  H   LIG    1       -9.323   3.889  13.581  0.00  0.00    +0.178 HD
ATOM     14  N   LIG    1       -9.815   6.574  11.875  0.00  0.00    -0.295 N 
ATOM     15  H   LIG    1      -10.741   6.324  11.558  0.00  0.00    +0.151 HD
BRANCH  14  16
ATOM     16  C   LIG    1       -9.323   7.872  11.425  0.00  0.00    +0.074 C 
ATOM     17  C   LIG    1      -10.407   8.812  10.895  0.00  0.00    +0.022 C 
ATOM     18  C   LIG    1      -10.824   8.539   9.456  0.00  0.00    +0.002 C 
ATOM     19  C   LIG    1       -9.645   8.357   8.500  0.00  0.00    +0.000 C 
ATOM     20  C   LIG    1       -8.484   7.514   9.025  0.00  0.00    +0.002 C 
ATOM     21  C   LIG    1       -8.124   7.799  10.478  0.00  0.00    +0.022 C 
ENDBRANCH  14  16
ENDBRANCH   7  12
ENDBRANCH   1   7
BRANCH   4  22
ATOM     22  C   LIG    1      -10.254  -1.946  13.337  0.00  0.00    +0.054 C 
BRANCH  22  23
ATOM     23  C   LIG    1      -10.705  -2.983  12.289  0.00  0.00    +0.121 C 
BRANCH  23  24
ATOM     24  N   LIG    1       -9.578  -3.871  12.043  0.00  0.00    -0.237 N 
ATOM     25  C   LIG    1       -9.441  -4.467  10.805  0.00  0.00    +0.232 C 
ATOM     26  O   LIG    1      -10.404  -4.775  10.103  0.00  0.00    -0.274 OA
ATOM     27  C   LIG    1       -7.992  -4.535  10.303  0.00  0.00    +0.067 C 
ATOM     28  C   LIG    1       -7.743  -3.167   9.630  0.00  0.00    +0.025 C 
ATOM     29  C   LIG    1       -7.879  -5.649   9.246  0.00  0.00    +0.025 C 
ATOM     30  C   LIG    1       -6.989  -4.726  11.434  0.00  0.00    -0.021 A 
ATOM     31  C   LIG    1       -5.621  -4.915  11.178  0.00  0.00    +0.009 A 
ATOM     32  C   LIG    1       -4.699  -5.034  12.225  0.00  0.00    +0.046 A 
ATOM     33  C   LIG    1       -5.125  -4.983  13.549  0.00  0.00    +0.121 A 
ATOM     34  C   LIG    1       -6.477  -4.796  13.819  0.00  0.00    +0.059 A 
ATOM     35  C   LIG    1       -7.398  -4.647  12.773  0.00  0.00    +0.045 A 
ATOM     36  C   LIG    1       -8.775  -4.224  13.113  0.00  0.00    +0.253 C 
ATOM     37  O   LIG    1       -9.125  -4.128  14.285  0.00  0.00    -0.270 OA
BRANCH  33  38
ATOM     38  O   LIG    1       -4.329  -5.069  14.657  0.00  0.00    -0.495 OA
ATOM     39  C   LIG    1       -4.763  -4.368  15.815  0.00  0.00    +0.277 C 
ENDBRANCH  33  38
ENDBRANCH  23  24
ENDBRANCH  22  23
ENDBRANCH   4  22
TORSDOF 7
ENDMDL
MODEL 3
REMARK VINA RESULT:      -7.9      1.795      2.369
REMARK  Name = 
REMARK                            x       y       z     vdW  Elec       q    Type
REMARK                         _______ _______ _______ _____ _____    ______ ____
ROOT
ATOM      1  C   LIG    1      -10.522   0.256  12.670  0.00  0.00    +0.109 A 
ATOM      2  C   LIG    1      -11.363  -0.787  13.060  0.00  0.00    +0.029 A 
ATOM      3  C   LIG    1      -11.060  -2.091  12.677  0.00  0.00    +0.005 A 
ATOM      4  C   LIG    1       -9.924  -2.352  11.903  0.00  0.00    -0.046 A 
ATOM      5  C   LIG    1       -9.082  -1.286  11.531  0.00  0.00    +0.005 A 
ATOM      6  C   LIG    1       -9.374   0.018  11.915  0.00  0.00    +0.029 A 
ENDROOT
BRANCH   1   7
ATOM      7  S   LIG    1      -10.974   1.924  13.036  0.00  0.00    +0.076 S 
ATOM      8  O   LIG    1      -12.355   1.946  13.464  0.00  0.00    -0.150 OA
ATOM      9  O   LIG    1       -9.929   2.520  13.838  0.00  0.00    -0.150 OA
BRANCH   7  12
ATOM     10  O   LIG    1      -10.951   4.060   9.910  0.00  0.00    -0.251 OA
ATOM     11  C   LIG    1      -10.903   3.876  11.114  0.00  0.00    +0.319 C 
ATOM     12  N   LIG    1      -10.891   2.559  11.522  0.00  0.00    -0.169 N 
ATOM     13  H   LIG    1      -10.937   1.903  10.748  0.00  0.00    +0.178 HD
ATOM     14  N   LIG    1      -10.851   4.834  12.074  0.00  0.00    -0.295 N 
ATOM     15  H   LIG    1      -10.807   4.511  13.030  0.00  0.00    +0.151 HD
BRANCH  14  16
ATOM     16  C   LIG    1      -10.835   6.283  11.896  0.00  0.00    +0.074 C 
ATOM     17  C   LIG    1      -10.324   6.748  10.531  0.00  0.00    +0.022 C 
ATOM     18  C   LIG    1       -8.806   6.778  10.407  0.00  0.00    +0.002 C 
ATOM     19  C   LIG    1       -8.108   7.450  11.590  0.00  0.00    +0.000 C 
ATOM     20  C   LIG    1       -8.654   7.103  12.974  0.00  0.00    +0.002 C 
ATOM     21  C   LIG    1      -10.175   7.053  13.041  0.00  0.00    +0.022 C 
ENDBRANCH  14  16
ENDBRANCH   7  12
ENDBRANCH   1   7
BRANCH   4  22
ATOM     22  C   LIG    1       -9.553  -3.721  11.406  0.00  0.00    +0.054 C 
BRANCH  22  23
ATOM     23  C   LIG    1       -9.704  -4.930  12.351  0.00  0.00    +0.121 C 
BRANCH  23  24
ATOM     24  N   LIG    1       -8.383  -5.521  12.515  0.00  0.00    -0.237 N 
ATOM     25  C   LIG    1       -7.950  -6.476  11.616  0.00  0.00    +0.232 C 
ATOM     26  O   LIG    1       -8.716  -7.261  11.057  0.00  0.00    -0.274 OA
ATOM     27  C   LIG    1       -6.469  -6.348  11.235  0.00  0.00    +0.067 C 
ATOM     28  C   LIG    1       -6.446  -5.312  10.088  0.00  0.00    +0.025 C 
ATOM     29  C   LIG    1       -5.968  -7.703  10.706  0.00  0.00    +0.025 C 
ATOM     30  C   LIG    1       -5.610  -5.838  12.387  0.00  0.00    -0.021 A 
ATOM     31  C   LIG    1       -4.214  -5.747  12.276  0.00  0.00    +0.009 A 
ATOM     32  C   LIG    1       -3.438  -5.226  13.318  0.00  0.00    +0.046 A 
ATOM     33  C   LIG    1       -4.039  -4.800  14.499  0.00  0.00    +0.121 A 
ATOM     34  C   LIG    1       -5.422  -4.884  14.625  0.00  0.00    +0.059 A 
ATOM     35  C   LIG    1       -6.204  -5.377  13.571  0.00  0.00    +0.045 A 
ATOM     36  C   LIG    1       -7.673  -5.231  13.667  0.00  0.00    +0.253 C 
ATOM     37  O   LIG    1       -8.190  -4.801  14.692  0.00  0.00    -0.270 OA
BRANCH  33  38
ATOM     38  O   LIG    1       -3.400  -4.260  15.581  0.00  0.00    -0.495 OA
ATOM     39  C   LIG    1       -4.090  -4.307  16.823  0.00  0.00    +0.277 C 
ENDBRANCH  33  38
ENDBRANCH  23  24
ENDBRANCH  22  23
ENDBRANCH   4  22
TORSDOF 7
ENDMDL
MODEL 4
REMARK VINA RESULT:      -7.7      1.962      2.699
REMARK  Name = 
REMARK                            x       y       z     vdW  Elec       q    Type
REMARK                         _______ _______ _______ _____ _____    ______ ____
ROOT
ATOM      1  C   LIG    1      -10.942   1.573  12.820  0.00  0.00    +0.109 A 
ATOM      2  C   LIG    1      -11.976   0.721  12.432  0.00  0.00    +0.029 A 
ATOM      3  C   LIG    1      -11.799  -0.657  12.522  0.00  0.00    +0.005 A 
ATOM      4  C   LIG    1      -10.590  -1.182  12.992  0.00  0.00    -0.046 A 
ATOM      5  C   LIG    1       -9.564  -0.303  13.390  0.00  0.00    +0.005 A 
ATOM      6  C   LIG    1       -9.736   1.074  13.310  0.00  0.00    +0.029 A 
ENDROOT
BRANCH   1   7
ATOM      7  S   LIG    1      -11.111   3.316  12.579  0.00  0.00    +0.076 S 
ATOM      8  O   LIG    1      -10.236   3.998  13.506  0.00  0.00    -0.150 OA
ATOM      9  O   LIG    1      -11.066   3.592  11.161  0.00  0.00    -0.150 OA
BRANCH   7  12
ATOM     10  O   LIG    1      -14.486   4.509  13.813  0.00  0.00    -0.251 OA
ATOM     11  C   LIG    1      -13.387   4.657  13.308  0.00  0.00    +0.319 C 
ATOM     12  N   LIG    1      -12.660   3.505  13.096  0.00  0.00    -0.169 N 
ATOM     13  H   LIG    1      -13.144   2.667  13.407  0.00  0.00    +0.178 HD
ATOM     14  N   LIG    1      -12.826   5.835  12.931  0.00  0.00    -0.295 N 
ATOM     15  H   LIG    1      -11.905   5.783  12.518  0.00  0.00    +0.151 HD
BRANCH  14  16
ATOM     16  C   LIG    1      -13.396   7.174  13.035  0.00  0.00    +0.074 C 
ATOM     17  C   LIG    1      -14.300   7.571  11.866  0.00  0.00    +0.022 C 
ATOM     18  C   LIG    1      -13.551   8.052  10.630  0.00  0.00    +0.002 C 
ATOM     19  C   LIG    1      -12.454   9.073  10.936  0.00  0.00    +0.000 C 
ATOM     20  C   LIG    1      -11.592   8.779  12.163  0.00  0.00    +0.002 C 
ATOM     21  C   LIG    1      -12.380   8.270  13.363  0.00  0.00    +0.022 C 
ENDBRANCH  14  16
ENDBRANCH   7  12
ENDBRANCH   1   7
BRANCH   4  22
ATOM     22  C   LIG    1      -10.299  -2.654  13.074  0.00  0.00    +0.054 C 
BRANCH  22  23
ATOM     23  C   LIG    1      -10.151  -3.464  11.770  0.00  0.00    +0.121 C 
BRANCH  23  24
ATOM     24  N   LIG    1       -8.978  -4.315  11.918  0.00  0.00    -0.237 N 
ATOM     25  C   LIG    1       -8.668  -5.221  10.923  0.00  0.00    +0.232 C 
ATOM     26  O   LIG    1       -9.524  -5.769  10.229  0.00  0.00    -0.274 OA
ATOM     27  C   LIG    1       -7.165  -5.338  10.633  0.00  0.00    +0.067 C 
ATOM     28  C   LIG    1       -6.866  -4.196   9.635  0.00  0.00    +0.025 C 
ATOM     29  C   LIG    1       -6.888  -6.691   9.955  0.00  0.00    +0.025 C 
ATOM     30  C   LIG    1       -6.311  -5.146  11.882  0.00  0.00    -0.021 A 
ATOM     31  C   LIG    1       -4.918  -5.315  11.851  0.00  0.00    +0.009 A 
ATOM     32  C   LIG    1       -4.136  -5.084  12.989  0.00  0.00    +0.046 A 
ATOM     33  C   LIG    1       -4.730  -4.694  14.186  0.00  0.00    +0.121 A 
ATOM     34  C   LIG    1       -6.111  -4.522  14.232  0.00  0.00    +0.059 A 
ATOM     35  C   LIG    1       -6.892  -4.725  13.087  0.00  0.00    +0.045 A 
ATOM     36  C   LIG    1       -8.312  -4.309  13.130  0.00  0.00    +0.253 C 
ATOM     37  O   LIG    1       -8.812  -3.914  14.178  0.00  0.00    -0.270 OA
BRANCH  33  38
ATOM     38  O   LIG    1       -4.082  -4.422  15.358  0.00  0.00    -0.495 OA
ATOM     39  C   LIG    1       -4.452  -5.197  16.491  0.00  0.00    +0.277 C 
ENDBRANCH  33  38
ENDBRANCH  23  24
ENDBRANCH  22  23
ENDBRANCH   4  22
TORSDOF 7
ENDMDL
MODEL 5
REMARK VINA RESULT:      -7.6      2.484      4.149
REMARK  Name = 
REMARK                            x       y       z     vdW  Elec       q    Type
REMARK                         _______ _______ _______ _____ _____    ______ ____
ROOT
ATOM      1  C   LIG    1      -10.648   3.906  13.170  0.00  0.00    +0.109 A 
ATOM      2  C   LIG    1       -9.808   3.295  14.101  0.00  0.00    +0.029 A 
ATOM      3  C   LIG    1       -9.638   1.913  14.067  0.00  0.00    +0.005 A 
ATOM      4  C   LIG    1      -10.310   1.145  13.111  0.00  0.00    -0.046 A 
ATOM      5  C   LIG    1      -11.143   1.784  12.173  0.00  0.00    +0.005 A 
ATOM      6  C   LIG    1      -11.313   3.163  12.195  0.00  0.00    +0.029 A 
ENDROOT
BRANCH   1   7
ATOM      7  S   LIG    1      -10.973   5.639  13.294  0.00  0.00    +0.076 S 
ATOM      8  O   LIG    1       -9.721   6.353  13.191  0.00  0.00    -0.150 OA
ATOM      9  O   LIG    1      -12.094   5.960  12.439  0.00  0.00    -0.150 OA
BRANCH   7  12
ATOM     10  O   LIG    1      -12.846   5.867  16.576  0.00  0.00    -0.251 OA
ATOM     11  C   LIG    1      -12.756   5.685  15.375  0.00  0.00    +0.319 C 
ATOM     12  N   LIG    1      -11.478   5.702  14.857  0.00  0.00    -0.169 N 
ATOM     13  H   LIG    1      -10.767   5.878  15.561  0.00  0.00    +0.178 HD
ATOM     14  N   LIG    1      -13.782   5.462  14.515  0.00  0.00    -0.295 N 
ATOM     15  H   LIG    1      -13.535   5.322  13.545  0.00  0.00    +0.151 HD
BRANCH  14  16
ATOM     16  C   LIG    1      -15.207   5.383  14.819  0.00  0.00    +0.074 C 
ATOM     17  C   LIG    1      -15.665   4.029  15.364  0.00  0.00    +0.022 C 
ATOM     18  C   LIG    1      -15.898   2.970  14.295  0.00  0.00    +0.002 C 
ATOM     19  C   LIG    1      -16.722   3.468  13.107  0.00  0.00    +0.000 C 
ATOM     20  C   LIG    1      -16.377   4.865  12.593  0.00  0.00    +0.002 C 
ATOM     21  C   LIG    1      -16.121   5.882  13.698  0.00  0.00    +0.022 C 
ENDBRANCH  14  16
ENDBRANCH   7  12
ENDBRANCH   1   7
BRANCH   4  22
ATOM     22  C   LIG    1      -10.222  -0.354  13.037  0.00  0.00    +0.054 C 
BRANCH  22  23
ATOM     23  C   LIG    1       -9.640  -1.011  11.769  0.00  0.00    +0.121 C 
BRANCH  23  24
ATOM     24  N   LIG    1       -9.144  -2.326  12.150  0.00  0.00    -0.237 N 
ATOM     25  C   LIG    1       -9.944  -3.436  11.956  0.00  0.00    +0.232 C 
ATOM     26  O   LIG    1      -11.172  -3.392  12.024  0.00  0.00    -0.274 OA
ATOM     27  C   LIG    1       -9.183  -4.674  11.463  0.00  0.00    +0.067 C 
ATOM     28  C   LIG    1       -9.108  -4.505   9.929  0.00  0.00    +0.025 C 
ATOM     29  C   LIG    1      -10.003  -5.933  11.796  0.00  0.00    +0.025 C 
ATOM     30  C   LIG    1       -7.769  -4.755  12.027  0.00  0.00    -0.021 A 
ATOM     31  C   LIG    1       -6.943  -5.863  11.779  0.00  0.00    +0.009 A 
ATOM     32  C   LIG    1       -5.627  -5.904  12.255  0.00  0.00    +0.046 A 
ATOM     33  C   LIG    1       -5.113  -4.847  13.001  0.00  0.00    +0.121 A 
ATOM     34  C   LIG    1       -5.919  -3.742  13.254  0.00  0.00    +0.059 A 
ATOM     35  C   LIG    1       -7.227  -3.685  12.754  0.00  0.00    +0.045 A 
ATOM     36  C   LIG    1       -7.956  -2.401  12.854  0.00  0.00    +0.253 C 
ATOM     37  O   LIG    1       -7.470  -1.456  13.467  0.00  0.00    -0.270 OA
BRANCH  33  38
ATOM     38  O   LIG    1       -3.846  -4.757  13.506  0.00  0.00    -0.495 OA
ATOM     39  C   LIG    1       -3.722  -4.709  14.922  0.00  0.00    +0.277 C 
ENDBRANCH  33  38
ENDBRANCH  23  24
ENDBRANCH  22  23
ENDBRANCH   4  22
TORSDOF 7
ENDMDL
MODEL 6
REMARK VINA RESULT:      -7.6      1.840      2.475
REMARK  Name = 
REMARK                            x       y       z     vdW  Elec       q    Type
REMARK                         _______ _______ _______ _____ _____    ______ ____
ROOT
ATOM      1  C   LIG    1      -11.640   2.635  13.024  0.00  0.00    +0.109 A 
ATOM      2  C   LIG    1      -12.591   1.681  12.662  0.00  0.00    +0.029 A 
ATOM      3  C   LIG    1      -12.220   0.342  12.574  0.00  0.00    +0.005 A 
ATOM      4  C   LIG    1      -10.902  -0.042  12.841  0.00  0.00    -0.046 A 
ATOM      5  C   LIG    1       -9.961   0.935  13.218  0.00  0.00    +0.005 A 
ATOM      6  C   LIG    1      -10.325   2.273  13.314  0.00  0.00    +0.029 A 
ENDROOT
BRANCH   1   7
ATOM      7  S   LIG    1      -12.071   4.348  13.003  0.00  0.00    +0.076 S 
ATOM      8  O   LIG    1      -13.468   4.478  13.353  0.00  0.00    -0.150 OA
ATOM      9  O   LIG    1      -11.048   5.089  13.707  0.00  0.00    -0.150 OA
BRANCH   7  12
ATOM     10  O   LIG    1      -12.017   5.720   9.475  0.00  0.00    -0.251 OA
ATOM     11  C   LIG    1      -12.084   5.814  10.688  0.00  0.00    +0.319 C 
ATOM     12  N   LIG    1      -11.910   4.642  11.394  0.00  0.00    -0.169 N 
ATOM     13  H   LIG    1      -11.757   3.836  10.795  0.00  0.00    +0.178 HD
ATOM     14  N   LIG    1      -12.301   6.951  11.397  0.00  0.00    -0.295 N 
ATOM     15  H   LIG    1      -12.321   6.858  12.403  0.00  0.00    +0.151 HD
BRANCH  14  16
ATOM     16  C   LIG    1      -12.497   8.304  10.885  0.00  0.00    +0.074 C 
ATOM     17  C   LIG    1      -12.552   9.388  11.963  0.00  0.00    +0.022 C 
ATOM     18  C   LIG    1      -13.905   9.518  12.651  0.00  0.00    +0.002 C 
ATOM     19  C   LIG    1      -15.086   9.552  11.680  0.00  0.00    +0.000 C 
ATOM     20  C   LIG    1      -15.025   8.561  10.519  0.00  0.00    +0.002 C 
ATOM     21  C   LIG    1      -13.645   8.441   9.884  0.00  0.00    +0.022 C 
ENDBRANCH  14  16
ENDBRANCH   7  12
ENDBRANCH   1   7
BRANCH   4  22
ATOM     22  C   LIG    1      -10.407  -1.457  12.721  0.00  0.00    +0.054 C 
BRANCH  22  23
ATOM     23  C   LIG    1       -9.433  -1.818  11.582  0.00  0.00    +0.121 C 
BRANCH  23  24
ATOM     24  N   LIG    1       -8.787  -3.072  11.945  0.00  0.00    -0.237 N 
ATOM     25  C   LIG    1       -9.297  -4.262  11.462  0.00  0.00    +0.232 C 
ATOM     26  O   LIG    1      -10.496  -4.433  11.240  0.00  0.00    -0.274 OA
ATOM     27  C   LIG    1       -8.223  -5.278  11.050  0.00  0.00    +0.067 C 
ATOM     28  C   LIG    1       -7.852  -4.892   9.600  0.00  0.00    +0.025 C 
ATOM     29  C   LIG    1       -8.837  -6.689  11.059  0.00  0.00    +0.025 C 
ATOM     30  C   LIG    1       -6.976  -5.199  11.923  0.00  0.00    -0.021 A 
ATOM     31  C   LIG    1       -5.918  -6.110  11.775  0.00  0.00    +0.009 A 
ATOM     32  C   LIG    1       -4.754  -5.997  12.544  0.00  0.00    +0.046 A 
ATOM     33  C   LIG    1       -4.627  -4.980  13.486  0.00  0.00    +0.121 A 
ATOM     34  C   LIG    1       -5.667  -4.069  13.644  0.00  0.00    +0.059 A 
ATOM     35  C   LIG    1       -6.821  -4.163  12.855  0.00  0.00    +0.045 A 
ATOM     36  C   LIG    1       -7.788  -3.043  12.900  0.00  0.00    +0.253 C 
ATOM     37  O   LIG    1       -7.637  -2.123  13.697  0.00  0.00    -0.270 OA
BRANCH  33  38
ATOM     38  O   LIG    1       -3.541  -4.750  14.285  0.00  0.00    -0.495 OA
ATOM     39  C   LIG    1       -3.790  -4.590  15.675  0.00  0.00    +0.277 C 
ENDBRANCH  33  38
ENDBRANCH  23  24
ENDBRANCH  22  23
ENDBRANCH   4  22
TORSDOF 7
ENDMDL
MODEL 7
REMARK VINA RESULT:      -7.4      2.318     11.079
REMARK  Name = 
REMARK                            x       y       z     vdW  Elec       q    Type
REMARK                         _______ _______ _______ _____ _____    ______ ____
ROOT
ATOM      1  C   LIG    1      -10.330  -0.597  12.855  0.00  0.00    +0.109 A 
ATOM      2  C   LIG    1       -9.497   0.363  13.430  0.00  0.00    +0.029 A 
ATOM      3  C   LIG    1       -9.939   1.679  13.538  0.00  0.00    +0.005 A 
ATOM      4  C   LIG    1      -11.207   2.036  13.067  0.00  0.00    -0.046 A 
ATOM      5  C   LIG    1      -12.037   1.048  12.501  0.00  0.00    +0.005 A 
ATOM      6  C   LIG    1      -11.605  -0.269  12.397  0.00  0.00    +0.029 A 
ENDROOT
BRANCH   1   7
ATOM      7  S   LIG    1       -9.722  -2.235  12.593  0.00  0.00    +0.076 S 
ATOM      8  O   LIG    1       -8.615  -2.468  13.493  0.00  0.00    -0.150 OA
ATOM      9  O   LIG    1      -10.848  -3.141  12.536  0.00  0.00    -0.150 OA
BRANCH   7  12
ATOM     10  O   LIG    1       -8.077  -2.549   9.198  0.00  0.00    -0.251 OA
ATOM     11  C   LIG    1       -8.546  -2.985  10.234  0.00  0.00    +0.319 C 
ATOM     12  N   LIG    1       -9.124  -2.055  11.072  0.00  0.00    -0.169 N 
ATOM     13  H   LIG    1       -9.070  -1.107  10.711  0.00  0.00    +0.178 HD
ATOM     14  N   LIG    1       -8.560  -4.284  10.628  0.00  0.00    -0.295 N 
ATOM     15  H   LIG    1       -8.997  -4.480  11.517  0.00  0.00    +0.151 HD
BRANCH  14  16
ATOM     16  C   LIG    1       -8.031  -5.443   9.916  0.00  0.00    +0.074 C 
ATOM     17  C   LIG    1       -8.544  -6.790  10.428  0.00  0.00    +0.022 C 
ATOM     18  C   LIG    1       -7.826  -7.302  11.670  0.00  0.00    +0.002 C 
ATOM     19  C   LIG    1       -6.302  -7.217  11.576  0.00  0.00    +0.000 C 
ATOM     20  C   LIG    1       -5.741  -5.934  10.968  0.00  0.00    +0.002 C 
ATOM     21  C   LIG    1       -6.511  -5.442   9.748  0.00  0.00    +0.022 C 
ENDBRANCH  14  16
ENDBRANCH   7  12
ENDBRANCH   1   7
BRANCH   4  22
ATOM     22  C   LIG    1      -11.740   3.441  13.098  0.00  0.00    +0.054 C 
BRANCH  22  23
ATOM     23  C   LIG    1      -11.690   4.293  11.815  0.00  0.00    +0.121 C 
BRANCH  23  24
ATOM     24  N   LIG    1      -11.289   5.638  12.202  0.00  0.00    -0.237 N 
ATOM     25  C   LIG    1      -12.233   6.505  12.719  0.00  0.00    +0.232 C 
ATOM     26  O   LIG    1      -13.417   6.478  12.384  0.00  0.00    -0.274 OA
ATOM     27  C   LIG    1      -11.716   7.369  13.877  0.00  0.00    +0.067 C 
ATOM     28  C   LIG    1      -11.891   6.488  15.134  0.00  0.00    +0.025 C 
ATOM     29  C   LIG    1      -12.604   8.620  14.005  0.00  0.00    +0.025 C 
ATOM     30  C   LIG    1      -10.244   7.735  13.724  0.00  0.00    -0.021 A 
ATOM     31  C   LIG    1       -9.606   8.603  14.625  0.00  0.00    +0.009 A 
ATOM     32  C   LIG    1       -8.241   8.890  14.508  0.00  0.00    +0.046 A 
ATOM     33  C   LIG    1       -7.487   8.328  13.482  0.00  0.00    +0.121 A 
ATOM     34  C   LIG    1       -8.105   7.465  12.582  0.00  0.00    +0.059 A 
ATOM     35  C   LIG    1       -9.465   7.153  12.713  0.00  0.00    +0.045 A 
ATOM     36  C   LIG    1      -10.013   6.061  11.878  0.00  0.00    +0.253 C 
ATOM     37  O   LIG    1       -9.322   5.533  11.013  0.00  0.00    -0.270 OA
BRANCH  33  38
ATOM     38  O   LIG    1       -6.150   8.512  13.269  0.00  0.00    -0.495 OA
ATOM     39  C   LIG    1       -5.324   8.621  14.421  0.00  0.00    +0.277 C 
ENDBRANCH  33  38
ENDBRANCH  23  24
ENDBRANCH  22  23
ENDBRANCH   4  22
TORSDOF 7
ENDMDL
MODEL 8
REMARK VINA RESULT:      -7.3      3.310     10.877
REMARK  Name = 
REMARK                            x       y       z     vdW  Elec       q    Type
REMARK                         _______ _______ _______ _____ _____    ______ ____
ROOT
ATOM      1  C   LIG    1      -10.635   2.295  12.778  0.00  0.00    +0.109 A 
ATOM      2  C   LIG    1      -11.028   2.989  11.633  0.00  0.00    +0.029 A 
ATOM      3  C   LIG    1      -10.713   4.340  11.507  0.00  0.00    +0.005 A 
ATOM      4  C   LIG    1      -10.012   4.996  12.524  0.00  0.00    -0.046 A 
ATOM      5  C   LIG    1       -9.613   4.273  13.665  0.00  0.00    +0.005 A 
ATOM      6  C   LIG    1       -9.918   2.923  13.795  0.00  0.00    +0.029 A 
ENDROOT
BRANCH   1   7
ATOM      7  S   LIG    1      -11.150   0.621  13.003  0.00  0.00    +0.076 S 
ATOM      8  O   LIG    1      -11.082   0.300  14.411  0.00  0.00    -0.150 OA
ATOM      9  O   LIG    1      -12.360   0.404  12.241  0.00  0.00    -0.150 OA
BRANCH   7  12
ATOM     10  O   LIG    1       -8.511  -1.749  11.680  0.00  0.00    -0.251 OA
ATOM     11  C   LIG    1       -9.554  -1.474  12.245  0.00  0.00    +0.319 C 
ATOM     12  N   LIG    1       -9.912  -0.142  12.238  0.00  0.00    -0.169 N 
ATOM     13  H   LIG    1       -9.236   0.447  11.761  0.00  0.00    +0.178 HD
ATOM     14  N   LIG    1      -10.390  -2.348  12.863  0.00  0.00    -0.295 N 
ATOM     15  H   LIG    1      -11.223  -1.956  13.279  0.00  0.00    +0.151 HD
BRANCH  14  16
ATOM     16  C   LIG    1      -10.241  -3.794  12.991  0.00  0.00    +0.074 C 
ATOM     17  C   LIG    1       -8.866  -4.249  13.483  0.00  0.00    +0.022 C 
ATOM     18  C   LIG    1       -7.797  -4.296  12.399  0.00  0.00    +0.002 C 
ATOM     19  C   LIG    1       -8.254  -4.991  11.116  0.00  0.00    +0.000 C 
ATOM     20  C   LIG    1       -9.666  -4.654  10.641  0.00  0.00    +0.002 C 
ATOM     21  C   LIG    1      -10.694  -4.587  11.763  0.00  0.00    +0.022 C 
ENDBRANCH  14  16
ENDBRANCH   7  12
ENDBRANCH   1   7
BRANCH   4  22
ATOM     22  C   LIG    1       -9.675   6.460  12.491  0.00  0.00    +0.054 C 
BRANCH  22  23
ATOM     23  C   LIG    1      -10.779   7.477  12.141  0.00  0.00    +0.121 C 
BRANCH  23  24
ATOM     24  N   LIG    1      -11.743   7.466  13.232  0.00  0.00    -0.237 N 
ATOM     25  C   LIG    1      -13.085   7.296  12.951  0.00  0.00    +0.232 C 
ATOM     26  O   LIG    1      -13.604   7.699  11.910  0.00  0.00    -0.274 OA
ATOM     27  C   LIG    1      -13.824   6.400  13.954  0.00  0.00    +0.067 C 
ATOM     28  C   LIG    1      -13.575   4.960  13.454  0.00  0.00    +0.025 C 
ATOM     29  C   LIG    1      -15.330   6.708  13.889  0.00  0.00    +0.025 C 
ATOM     30  C   LIG    1      -13.281   6.537  15.372  0.00  0.00    -0.021 A 
ATOM     31  C   LIG    1      -13.884   5.880  16.456  0.00  0.00    +0.009 A 
ATOM     32  C   LIG    1      -13.347   5.967  17.745  0.00  0.00    +0.046 A 
ATOM     33  C   LIG    1      -12.203   6.725  17.983  0.00  0.00    +0.121 A 
ATOM     34  C   LIG    1      -11.593   7.383  16.919  0.00  0.00    +0.059 A 
ATOM     35  C   LIG    1      -12.113   7.273  15.622  0.00  0.00    +0.045 A 
ATOM     36  C   LIG    1      -11.302   7.797  14.501  0.00  0.00    +0.253 C 
ATOM     37  O   LIG    1      -10.266   8.416  14.718  0.00  0.00    -0.270 OA
BRANCH  33  38
ATOM     38  O   LIG    1      -11.572   6.878  19.185  0.00  0.00    -0.495 OA
ATOM     39  C   LIG    1      -10.387   7.664  19.193  0.00  0.00    +0.277 C 
ENDBRANCH  33  38
ENDBRANCH  23  24
ENDBRANCH  22  23
ENDBRANCH   4  22
TORSDOF 7
ENDMDL
MODEL 9
REMARK VINA RESULT:      -7.2      1.337      2.740
REMARK  Name = 
REMARK                            x       y       z     vdW  Elec       q    Type
REMARK                         _______ _______ _______ _____ _____    ______ ____
ROOT
ATOM      1  C   LIG    1      -11.525   2.535  13.113  0.00  0.00    +0.109 A 
ATOM      2  C   LIG    1      -12.402   1.543  12.672  0.00  0.00    +0.029 A 
ATOM      3  C   LIG    1      -11.958   0.227  12.583  0.00  0.00    +0.005 A 
ATOM      4  C   LIG    1      -10.642  -0.098  12.928  0.00  0.00    -0.046 A 
ATOM      5  C   LIG    1       -9.778   0.916  13.384  0.00  0.00    +0.005 A 
ATOM      6  C   LIG    1      -10.215   2.232  13.482  0.00  0.00    +0.029 A 
ENDROOT
BRANCH   1   7
ATOM      7  S   LIG    1      -12.040   4.225  13.098  0.00  0.00    +0.076 S 
ATOM      8  O   LIG    1      -13.484   4.270  13.154  0.00  0.00    -0.150 OA
ATOM      9  O   LIG    1      -11.228   4.963  14.040  0.00  0.00    -0.150 OA
BRANCH   7  12
ATOM     10  O   LIG    1      -10.755   5.842   9.925  0.00  0.00    -0.251 OA
ATOM     11  C   LIG    1      -10.865   5.731  11.133  0.00  0.00    +0.319 C 
ATOM     12  N   LIG    1      -11.569   4.631  11.576  0.00  0.00    -0.169 N 
ATOM     13  H   LIG    1      -11.921   4.053  10.819  0.00  0.00    +0.178 HD
ATOM     14  N   LIG    1      -10.355   6.572  12.069  0.00  0.00    -0.295 N 
ATOM     15  H   LIG    1      -10.529   6.331  13.034  0.00  0.00    +0.151 HD
BRANCH  14  16
ATOM     16  C   LIG    1       -9.567   7.782  11.853  0.00  0.00    +0.074 C 
ATOM     17  C   LIG    1       -8.067   7.540  11.682  0.00  0.00    +0.022 C 
ATOM     18  C   LIG    1       -7.309   7.354  12.991  0.00  0.00    +0.002 C 
ATOM     19  C   LIG    1       -7.649   8.403  14.050  0.00  0.00    +0.000 C 
ATOM     20  C   LIG    1       -9.128   8.762  14.185  0.00  0.00    +0.002 C 
ATOM     21  C   LIG    1       -9.851   8.906  12.852  0.00  0.00    +0.022 C 
ENDBRANCH  14  16
ENDBRANCH   7  12
ENDBRANCH   1   7
BRANCH   4  22
ATOM     22  C   LIG    1      -10.070  -1.483  12.814  0.00  0.00    +0.054 C 
BRANCH  22  23
ATOM     23  C   LIG    1       -9.833  -2.085  11.414  0.00  0.00    +0.121 C 
BRANCH  23  24
ATOM     24  N   LIG    1       -8.612  -2.876  11.483  0.00  0.00    -0.237 N 
ATOM     25  C   LIG    1       -7.680  -2.602  12.465  0.00  0.00    +0.232 C 
ATOM     26  O   LIG    1       -7.496  -1.470  12.912  0.00  0.00    -0.274 OA
ATOM     27  C   LIG    1       -7.036  -3.852  13.079  0.00  0.00    +0.067 C 
ATOM     28  C   LIG    1       -8.016  -4.297  14.187  0.00  0.00    +0.025 C 
ATOM     29  C   LIG    1       -5.691  -3.461  13.718  0.00  0.00    +0.025 C 
ATOM     30  C   LIG    1       -6.874  -4.983  12.070  0.00  0.00    -0.021 A 
ATOM     31  C   LIG    1       -6.215  -6.177  12.405  0.00  0.00    +0.009 A 
ATOM     32  C   LIG    1       -6.119  -7.231  11.490  0.00  0.00    +0.046 A 
ATOM     33  C   LIG    1       -6.668  -7.112  10.216  0.00  0.00    +0.121 A 
ATOM     34  C   LIG    1       -7.325  -5.936   9.869  0.00  0.00    +0.059 A 
ATOM     35  C   LIG    1       -7.448  -4.889  10.794  0.00  0.00    +0.045 A 
ATOM     36  C   LIG    1       -8.347  -3.764  10.456  0.00  0.00    +0.253 C 
ATOM     37  O   LIG    1       -8.871  -3.696   9.349  0.00  0.00    -0.270 OA
BRANCH  33  38
ATOM     38  O   LIG    1       -6.658  -8.069   9.240  0.00  0.00    -0.495 OA
ATOM     39  C   LIG    1       -6.010  -9.296   9.550  0.00  0.00    +0.277 C 
ENDBRANCH  33  38
ENDBRANCH  23  24
ENDBRANCH  22  23
ENDBRANCH   4  22
TORSDOF 7
ENDMDL
