MODEL 1
REMARK VINA RESULT:      -8.6      0.000      0.000
REMARK  Name = 
REMARK                            x       y       z     vdW  Elec       q    Type
REMARK                         _______ _______ _______ _____ _____    ______ ____
ROOT
ATOM      1  C   LIG    1       65.641  44.927  32.407  0.00  0.00    +0.109 A 
ATOM      2  C   LIG    1       64.642  43.965  32.563  0.00  0.00    +0.029 A 
ATOM      3  C   LIG    1       63.993  43.463  31.437  0.00  0.00    +0.005 A 
ATOM      4  C   LIG    1       64.336  43.925  30.163  0.00  0.00    -0.046 A 
ATOM      5  C   LIG    1       65.356  44.887  30.028  0.00  0.00    +0.005 A 
ATOM      6  C   LIG    1       66.014  45.388  31.145  0.00  0.00    +0.029 A 
ENDROOT
BRANCH   1   7
ATOM      7  S   LIG    1       66.371  45.665  33.837  0.00  0.00    +0.076 S 
ATOM      8  O   LIG    1       67.537  44.896  34.211  0.00  0.00    -0.150 OA
ATOM      9  O   LIG    1       66.448  47.094  33.630  0.00  0.00    -0.150 OA
BRANCH   7  12
ATOM     10  O   LIG    1       63.327  45.639  36.088  0.00  0.00    -0.251 OA
ATOM     11  C   LIG    1       63.972  45.999  35.119  0.00  0.00    +0.319 C 
ATOM     12  N   LIG    1       65.180  45.361  34.928  0.00  0.00    -0.169 N 
ATOM     13  H   LIG    1       65.381  44.669  35.644  0.00  0.00    +0.178 HD
ATOM     14  N   LIG    1       63.611  46.948  34.218  0.00  0.00    -0.295 N 
ATOM     15  H   LIG    1       64.259  47.122  33.463  0.00  0.00    +0.151 HD
BRANCH  14  16
ATOM     16  C   LIG    1       62.387  47.743  34.194  0.00  0.00    +0.074 C 
ATOM     17  C   LIG    1       61.325  47.302  35.202  0.00  0.00    +0.022 C 
ATOM     18  C   LIG    1       60.487  46.112  34.750  0.00  0.00    +0.002 C 
ATOM     19  C   LIG    1       59.965  46.239  33.318  0.00  0.00    +0.000 C 
ATOM     20  C   LIG    1       60.957  46.782  32.291  0.00  0.00    +0.002 C 
ATOM     21  C   LIG    1       61.794  47.949  32.799  0.00  0.00    +0.022 C 
ENDBRANCH  14  16
ENDBRANCH   7  12
ENDBRANCH   1   7
BRANCH   4  22
ATOM     22  C   LIG    1       63.652  43.474  28.902  0.00  0.00    +0.054 C 
BRANCH  22  23
ATOM     23  C   LIG    1       63.143  44.532  27.904  0.00  0.00    +0.121 C 
BRANCH  23  24
ATOM     24  N   LIG    1       62.102  45.298  28.575  0.00  0.00    -0.237 N 
ATOM     25  C   LIG    1       62.256  46.663  28.729  0.00  0.00    +0.232 C 
ATOM     26  O   LIG    1       63.356  47.198  28.868  0.00  0.00    -0.274 OA
ATOM     27  C   LIG    1       60.964  47.463  28.520  0.00  0.00    +0.067 C 
ATOM     28  C   LIG    1       60.878  47.683  26.993  0.00  0.00    +0.025 C 
ATOM     29  C   LIG    1       61.098  48.826  29.223  0.00  0.00    +0.025 C 
ATOM     30  C   LIG    1       59.725  46.707  28.986  0.00  0.00    -0.021 A 
ATOM     31  C   LIG    1       58.454  47.304  28.976  0.00  0.00    +0.009 A 
ATOM     32  C   LIG    1       57.314  46.584  29.354  0.00  0.00    +0.046 A 
ATOM     33  C   LIG    1       57.421  45.258  29.764  0.00  0.00    +0.121 A 
ATOM     34  C   LIG    1       58.674  44.653  29.780  0.00  0.00    +0.059 A 
ATOM     35  C   LIG    1       59.813  45.362  29.374  0.00  0.00    +0.045 A 
ATOM     36  C   LIG    1       61.073  44.609  29.190  0.00  0.00    +0.253 C 
ATOM     37  O   LIG    1       61.142  43.425  29.503  0.00  0.00    -0.270 OA
BRANCH  33  38
ATOM     38  O   LIG    1       56.390  44.444  30.141  0.00  0.00    -0.495 OA
ATOM     39  C   LIG    1       55.278  45.065  30.773  0.00  0.00    +0.277 C 
ENDBRANCH  33  38
ENDBRANCH  23  24
ENDBRANCH  22  23
ENDBRANCH   4  22
TORSDOF 7
ENDMDL
MODEL 2
REMARK VINA RESULT:      -7.0      5.073      9.970
REMARK  Name = 
REMARK                            x       y       z     vdW  Elec       q    Type
REMARK                         _______ _______ _______ _____ _____    ______ ____
ROOT
ATOM      1  C   LIG    1       55.510  46.560  29.028  0.00  0.00    +0.109 A 
ATOM      2  C   LIG    1       56.549  47.467  28.819  0.00  0.00    +0.029 A 
ATOM      3  C   LIG    1       57.868  47.044  28.964  0.00  0.00    +0.005 A 
ATOM      4  C   LIG    1       58.147  45.722  29.324  0.00  0.00    -0.046 A 
ATOM      5  C   LIG    1       57.083  44.819  29.517  0.00  0.00    +0.005 A 
ATOM      6  C   LIG    1       55.765  45.231  29.367  0.00  0.00    +0.029 A 
ENDROOT
BRANCH   1   7
ATOM      7  S   LIG    1       53.836  47.124  28.979  0.00  0.00    +0.076 S 
ATOM      8  O   LIG    1       52.959  45.976  29.037  0.00  0.00    -0.150 OA
ATOM      9  O   LIG    1       53.694  48.226  29.903  0.00  0.00    -0.150 OA
BRANCH   7  12
ATOM     10  O   LIG    1       52.985  48.469  25.544  0.00  0.00    -0.251 OA
ATOM     11  C   LIG    1       52.743  48.195  26.706  0.00  0.00    +0.319 C 
ATOM     12  N   LIG    1       53.804  47.722  27.448  0.00  0.00    -0.169 N 
ATOM     13  H   LIG    1       54.664  47.652  26.911  0.00  0.00    +0.178 HD
ATOM     14  N   LIG    1       51.543  48.321  27.330  0.00  0.00    -0.295 N 
ATOM     15  H   LIG    1       51.513  48.056  28.304  0.00  0.00    +0.151 HD
BRANCH  14  16
ATOM     16  C   LIG    1       50.287  48.808  26.769  0.00  0.00    +0.074 C 
ATOM     17  C   LIG    1       49.950  50.255  27.132  0.00  0.00    +0.022 C 
ATOM     18  C   LIG    1       49.330  50.427  28.512  0.00  0.00    +0.002 C 
ATOM     19  C   LIG    1       48.200  49.438  28.804  0.00  0.00    +0.000 C 
ATOM     20  C   LIG    1       48.443  47.997  28.360  0.00  0.00    +0.002 C 
ATOM     21  C   LIG    1       49.094  47.876  26.988  0.00  0.00    +0.022 C 
ENDBRANCH  14  16
ENDBRANCH   7  12
ENDBRANCH   1   7
BRANCH   4  22
ATOM     22  C   LIG    1       59.537  45.197  29.550  0.00  0.00    +0.054 C 
BRANCH  22  23
ATOM     23  C   LIG    1       60.743  46.108  29.244  0.00  0.00    +0.121 C 
BRANCH  23  24
ATOM     24  N   LIG    1       61.845  45.669  30.089  0.00  0.00    -0.237 N 
ATOM     25  C   LIG    1       62.749  44.746  29.599  0.00  0.00    +0.232 C 
ATOM     26  O   LIG    1       62.437  43.871  28.792  0.00  0.00    -0.274 OA
ATOM     27  C   LIG    1       64.204  45.026  30.000  0.00  0.00    +0.067 C 
ATOM     28  C   LIG    1       64.716  46.032  28.945  0.00  0.00    +0.025 C 
ATOM     29  C   LIG    1       65.014  43.722  29.894  0.00  0.00    +0.025 C 
ATOM     30  C   LIG    1       64.320  45.651  31.385  0.00  0.00    -0.021 A 
ATOM     31  C   LIG    1       65.569  45.892  31.980  0.00  0.00    +0.009 A 
ATOM     32  C   LIG    1       65.667  46.517  33.228  0.00  0.00    +0.046 A 
ATOM     33  C   LIG    1       64.520  46.902  33.917  0.00  0.00    +0.121 A 
ATOM     34  C   LIG    1       63.274  46.670  33.341  0.00  0.00    +0.059 A 
ATOM     35  C   LIG    1       63.174  46.072  32.078  0.00  0.00    +0.045 A 
ATOM     36  C   LIG    1       61.851  46.059  31.416  0.00  0.00    +0.253 C 
ATOM     37  O   LIG    1       60.854  46.453  32.012  0.00  0.00    -0.270 OA
BRANCH  33  38
ATOM     38  O   LIG    1       64.479  47.532  35.129  0.00  0.00    -0.495 OA
ATOM     39  C   LIG    1       63.365  48.380  35.375  0.00  0.00    +0.277 C 
ENDBRANCH  33  38
ENDBRANCH  23  24
ENDBRANCH  22  23
ENDBRANCH   4  22
TORSDOF 7
ENDMDL
MODEL 3
REMARK VINA RESULT:      -6.9      2.507      4.473
REMARK  Name = 
REMARK                            x       y       z     vdW  Elec       q    Type
REMARK                         _______ _______ _______ _____ _____    ______ ____
ROOT
ATOM      1  C   LIG    1       64.140  45.571  30.972  0.00  0.00    +0.109 A 
ATOM      2  C   LIG    1       63.756  44.791  29.880  0.00  0.00    +0.029 A 
ATOM      3  C   LIG    1       62.442  44.850  29.424  0.00  0.00    +0.005 A 
ATOM      4  C   LIG    1       61.513  45.681  30.059  0.00  0.00    -0.046 A 
ATOM      5  C   LIG    1       61.925  46.470  31.151  0.00  0.00    +0.005 A 
ATOM      6  C   LIG    1       63.237  46.422  31.608  0.00  0.00    +0.029 A 
ENDROOT
BRANCH   1   7
ATOM      7  S   LIG    1       65.767  45.397  31.639  0.00  0.00    +0.076 S 
ATOM      8  O   LIG    1       66.627  44.837  30.621  0.00  0.00    -0.150 OA
ATOM      9  O   LIG    1       66.115  46.619  32.328  0.00  0.00    -0.150 OA
BRANCH   7  12
ATOM     10  O   LIG    1       64.906  43.325  34.688  0.00  0.00    -0.251 OA
ATOM     11  C   LIG    1       64.895  44.338  34.011  0.00  0.00    +0.319 C 
ATOM     12  N   LIG    1       65.469  44.234  32.762  0.00  0.00    -0.169 N 
ATOM     13  H   LIG    1       65.843  43.309  32.572  0.00  0.00    +0.178 HD
ATOM     14  N   LIG    1       64.368  45.538  34.366  0.00  0.00    -0.295 N 
ATOM     15  H   LIG    1       64.435  46.279  33.682  0.00  0.00    +0.151 HD
BRANCH  14  16
ATOM     16  C   LIG    1       63.700  45.891  35.614  0.00  0.00    +0.074 C 
ATOM     17  C   LIG    1       62.185  45.677  35.605  0.00  0.00    +0.022 C 
ATOM     18  C   LIG    1       61.398  46.797  34.938  0.00  0.00    +0.002 C 
ATOM     19  C   LIG    1       61.821  48.196  35.389  0.00  0.00    +0.000 C 
ATOM     20  C   LIG    1       63.325  48.429  35.521  0.00  0.00    +0.002 C 
ATOM     21  C   LIG    1       64.074  47.269  36.164  0.00  0.00    +0.022 C 
ENDBRANCH  14  16
ENDBRANCH   7  12
ENDBRANCH   1   7
BRANCH   4  22
ATOM     22  C   LIG    1       60.066  45.767  29.662  0.00  0.00    +0.054 C 
BRANCH  22  23
ATOM     23  C   LIG    1       59.004  46.038  30.746  0.00  0.00    +0.121 C 
BRANCH  23  24
ATOM     24  N   LIG    1       57.702  45.755  30.159  0.00  0.00    -0.237 N 
ATOM     25  C   LIG    1       57.006  44.630  30.561  0.00  0.00    +0.232 C 
ATOM     26  O   LIG    1       57.565  43.592  30.914  0.00  0.00    -0.274 OA
ATOM     27  C   LIG    1       55.495  44.853  30.710  0.00  0.00    +0.067 C 
ATOM     28  C   LIG    1       55.319  45.424  32.134  0.00  0.00    +0.025 C 
ATOM     29  C   LIG    1       54.776  43.495  30.614  0.00  0.00    +0.025 C 
ATOM     30  C   LIG    1       54.948  45.853  29.698  0.00  0.00    -0.021 A 
ATOM     31  C   LIG    1       53.573  46.121  29.600  0.00  0.00    +0.009 A 
ATOM     32  C   LIG    1       53.085  47.081  28.706  0.00  0.00    +0.046 A 
ATOM     33  C   LIG    1       53.958  47.785  27.881  0.00  0.00    +0.121 A 
ATOM     34  C   LIG    1       55.324  47.532  27.967  0.00  0.00    +0.059 A 
ATOM     35  C   LIG    1       55.818  46.592  28.881  0.00  0.00    +0.045 A 
ATOM     36  C   LIG    1       57.281  46.528  29.093  0.00  0.00    +0.253 C 
ATOM     37  O   LIG    1       58.039  47.195  28.397  0.00  0.00    -0.270 OA
BRANCH  33  38
ATOM     38  O   LIG    1       53.613  48.755  26.982  0.00  0.00    -0.495 OA
ATOM     39  C   LIG    1       52.537  48.462  26.101  0.00  0.00    +0.277 C 
ENDBRANCH  33  38
ENDBRANCH  23  24
ENDBRANCH  22  23
ENDBRANCH   4  22
TORSDOF 7
ENDMDL
MODEL 4
REMARK VINA RESULT:      -6.5      2.373      4.997
REMARK  Name = 
REMARK                            x       y       z     vdW  Elec       q    Type
REMARK                         _______ _______ _______ _____ _____    ______ ____
ROOT
ATOM      1  C   LIG    1       61.731  47.420  33.990  0.00  0.00    +0.109 A 
ATOM      2  C   LIG    1       60.637  46.554  33.964  0.00  0.00    +0.029 A 
ATOM      3  C   LIG    1       60.045  46.235  32.744  0.00  0.00    +0.005 A 
ATOM      4  C   LIG    1       60.540  46.783  31.557  0.00  0.00    -0.046 A 
ATOM      5  C   LIG    1       61.654  47.644  31.605  0.00  0.00    +0.005 A 
ATOM      6  C   LIG    1       62.255  47.962  32.817  0.00  0.00    +0.029 A 
ENDROOT
BRANCH   1   7
ATOM      7  S   LIG    1       62.399  47.934  35.543  0.00  0.00    +0.076 S 
ATOM      8  O   LIG    1       63.577  48.735  35.298  0.00  0.00    -0.150 OA
ATOM      9  O   LIG    1       61.318  48.422  36.370  0.00  0.00    -0.150 OA
BRANCH   7  12
ATOM     10  O   LIG    1       63.860  44.501  36.184  0.00  0.00    -0.251 OA
ATOM     11  C   LIG    1       63.784  45.571  35.606  0.00  0.00    +0.319 C 
ATOM     12  N   LIG    1       62.878  46.473  36.122  0.00  0.00    -0.169 N 
ATOM     13  H   LIG    1       62.374  46.112  36.927  0.00  0.00    +0.178 HD
ATOM     14  N   LIG    1       64.508  45.955  34.523  0.00  0.00    -0.295 N 
ATOM     15  H   LIG    1       64.329  46.883  34.167  0.00  0.00    +0.151 HD
BRANCH  14  16
ATOM     16  C   LIG    1       65.530  45.193  33.811  0.00  0.00    +0.074 C 
ATOM     17  C   LIG    1       66.026  45.849  32.522  0.00  0.00    +0.022 C 
ATOM     18  C   LIG    1       65.116  45.634  31.319  0.00  0.00    +0.002 C 
ATOM     19  C   LIG    1       64.668  44.182  31.141  0.00  0.00    +0.000 C 
ATOM     20  C   LIG    1       64.266  43.446  32.418  0.00  0.00    +0.002 C 
ATOM     21  C   LIG    1       65.187  43.717  33.601  0.00  0.00    +0.022 C 
ENDBRANCH  14  16
ENDBRANCH   7  12
ENDBRANCH   1   7
BRANCH   4  22
ATOM     22  C   LIG    1       59.930  46.530  30.206  0.00  0.00    +0.054 C 
BRANCH  22  23
ATOM     23  C   LIG    1       59.532  45.092  29.819  0.00  0.00    +0.121 C 
BRANCH  23  24
ATOM     24  N   LIG    1       58.087  45.074  29.643  0.00  0.00    -0.237 N 
ATOM     25  C   LIG    1       57.321  44.212  30.404  0.00  0.00    +0.232 C 
ATOM     26  O   LIG    1       57.731  43.117  30.786  0.00  0.00    -0.274 OA
ATOM     27  C   LIG    1       55.997  44.818  30.889  0.00  0.00    +0.067 C 
ATOM     28  C   LIG    1       56.362  45.578  32.184  0.00  0.00    +0.025 C 
ATOM     29  C   LIG    1       55.017  43.680  31.227  0.00  0.00    +0.025 C 
ATOM     30  C   LIG    1       55.399  45.798  29.885  0.00  0.00    -0.021 A 
ATOM     31  C   LIG    1       54.140  46.384  30.093  0.00  0.00    +0.009 A 
ATOM     32  C   LIG    1       53.624  47.324  29.193  0.00  0.00    +0.046 A 
ATOM     33  C   LIG    1       54.346  47.688  28.061  0.00  0.00    +0.121 A 
ATOM     34  C   LIG    1       55.595  47.116  27.841  0.00  0.00    +0.059 A 
ATOM     35  C   LIG    1       56.128  46.197  28.755  0.00  0.00    +0.045 A 
ATOM     36  C   LIG    1       57.544  45.798  28.596  0.00  0.00    +0.253 C 
ATOM     37  O   LIG    1       58.189  46.169  27.622  0.00  0.00    -0.270 OA
BRANCH  33  38
ATOM     38  O   LIG    1       53.964  48.601  27.118  0.00  0.00    -0.495 OA
ATOM     39  C   LIG    1       52.756  48.333  26.416  0.00  0.00    +0.277 C 
ENDBRANCH  33  38
ENDBRANCH  23  24
ENDBRANCH  22  23
ENDBRANCH   4  22
TORSDOF 7
ENDMDL
MODEL 5
REMARK VINA RESULT:      -6.4      2.314      5.136
REMARK  Name = 
REMARK                            x       y       z     vdW  Elec       q    Type
REMARK                         _______ _______ _______ _____ _____    ______ ____
ROOT
ATOM      1  C   LIG    1       62.806  46.795  33.979  0.00  0.00    +0.109 A 
ATOM      2  C   LIG    1       62.820  47.003  32.599  0.00  0.00    +0.029 A 
ATOM      3  C   LIG    1       61.650  46.822  31.866  0.00  0.00    +0.005 A 
ATOM      4  C   LIG    1       60.472  46.429  32.509  0.00  0.00    -0.046 A 
ATOM      5  C   LIG    1       60.476  46.237  33.904  0.00  0.00    +0.005 A 
ATOM      6  C   LIG    1       61.638  46.422  34.643  0.00  0.00    +0.029 A 
ENDROOT
BRANCH   1   7
ATOM      7  S   LIG    1       64.316  46.890  34.891  0.00  0.00    +0.076 S 
ATOM      8  O   LIG    1       65.318  47.523  34.063  0.00  0.00    -0.150 OA
ATOM      9  O   LIG    1       64.022  47.378  36.219  0.00  0.00    -0.150 OA
BRANCH   7  12
ATOM     10  O   LIG    1       65.035  43.213  34.345  0.00  0.00    -0.251 OA
ATOM     11  C   LIG    1       64.923  44.374  33.991  0.00  0.00    +0.319 C 
ATOM     12  N   LIG    1       64.666  45.287  34.992  0.00  0.00    -0.169 N 
ATOM     13  H   LIG    1       64.590  44.859  35.910  0.00  0.00    +0.178 HD
ATOM     14  N   LIG    1       65.038  44.844  32.722  0.00  0.00    -0.295 N 
ATOM     15  H   LIG    1       64.925  45.840  32.599  0.00  0.00    +0.151 HD
BRANCH  14  16
ATOM     16  C   LIG    1       65.321  44.086  31.507  0.00  0.00    +0.074 C 
ATOM     17  C   LIG    1       65.885  44.922  30.357  0.00  0.00    +0.022 C 
ATOM     18  C   LIG    1       64.834  45.686  29.563  0.00  0.00    +0.002 C 
ATOM     19  C   LIG    1       63.623  44.837  29.173  0.00  0.00    +0.000 C 
ATOM     20  C   LIG    1       63.087  43.902  30.255  0.00  0.00    +0.002 C 
ATOM     21  C   LIG    1       64.175  43.184  31.044  0.00  0.00    +0.022 C 
ENDBRANCH  14  16
ENDBRANCH   7  12
ENDBRANCH   1   7
BRANCH   4  22
ATOM     22  C   LIG    1       59.180  46.163  31.787  0.00  0.00    +0.054 C 
BRANCH  22  23
ATOM     23  C   LIG    1       59.219  45.503  30.394  0.00  0.00    +0.121 C 
BRANCH  23  24
ATOM     24  N   LIG    1       57.842  45.349  29.948  0.00  0.00    -0.237 N 
ATOM     25  C   LIG    1       57.063  44.341  30.484  0.00  0.00    +0.232 C 
ATOM     26  O   LIG    1       57.529  43.263  30.852  0.00  0.00    -0.274 OA
ATOM     27  C   LIG    1       55.610  44.754  30.754  0.00  0.00    +0.067 C 
ATOM     28  C   LIG    1       55.642  45.419  32.148  0.00  0.00    +0.025 C 
ATOM     29  C   LIG    1       54.732  43.490  30.814  0.00  0.00    +0.025 C 
ATOM     30  C   LIG    1       55.086  45.757  29.732  0.00  0.00    -0.021 A 
ATOM     31  C   LIG    1       53.749  46.183  29.742  0.00  0.00    +0.009 A 
ATOM     32  C   LIG    1       53.290  47.146  28.835  0.00  0.00    +0.046 A 
ATOM     33  C   LIG    1       54.153  47.692  27.889  0.00  0.00    +0.121 A 
ATOM     34  C   LIG    1       55.483  47.280  27.867  0.00  0.00    +0.059 A 
ATOM     35  C   LIG    1       55.951  46.338  28.793  0.00  0.00    +0.045 A 
ATOM     36  C   LIG    1       57.411  46.108  28.875  0.00  0.00    +0.253 C 
ATOM     37  O   LIG    1       58.170  46.639  28.071  0.00  0.00    -0.270 OA
BRANCH  33  38
ATOM     38  O   LIG    1       53.837  48.646  26.963  0.00  0.00    -0.495 OA
ATOM     39  C   LIG    1       52.601  48.492  26.278  0.00  0.00    +0.277 C 
ENDBRANCH  33  38
ENDBRANCH  23  24
ENDBRANCH  22  23
ENDBRANCH   4  22
TORSDOF 7
ENDMDL
MODEL 6
REMARK VINA RESULT:      -6.4      2.623      7.247
REMARK  Name = 
REMARK                            x       y       z     vdW  Elec       q    Type
REMARK                         _______ _______ _______ _____ _____    ______ ____
ROOT
ATOM      1  C   LIG    1       61.928  46.262  28.351  0.00  0.00    +0.109 A 
ATOM      2  C   LIG    1       63.137  46.887  28.047  0.00  0.00    +0.029 A 
ATOM      3  C   LIG    1       64.333  46.300  28.452  0.00  0.00    +0.005 A 
ATOM      4  C   LIG    1       64.320  45.096  29.164  0.00  0.00    -0.046 A 
ATOM      5  C   LIG    1       63.089  44.475  29.448  0.00  0.00    +0.005 A 
ATOM      6  C   LIG    1       61.891  45.051  29.041  0.00  0.00    +0.029 A 
ENDROOT
BRANCH   1   7
ATOM      7  S   LIG    1       60.406  47.069  27.959  0.00  0.00    +0.076 S 
ATOM      8  O   LIG    1       60.639  48.495  27.903  0.00  0.00    -0.150 OA
ATOM      9  O   LIG    1       59.780  46.366  26.862  0.00  0.00    -0.150 OA
BRANCH   7  12
ATOM     10  O   LIG    1       57.861  46.263  30.644  0.00  0.00    -0.251 OA
ATOM     11  C   LIG    1       58.263  46.320  29.495  0.00  0.00    +0.319 C 
ATOM     12  N   LIG    1       59.568  46.736  29.334  0.00  0.00    -0.169 N 
ATOM     13  H   LIG    1       60.027  46.955  30.213  0.00  0.00    +0.178 HD
ATOM     14  N   LIG    1       57.559  46.007  28.378  0.00  0.00    -0.295 N 
ATOM     15  H   LIG    1       58.045  46.102  27.497  0.00  0.00    +0.151 HD
BRANCH  14  16
ATOM     16  C   LIG    1       56.181  45.533  28.289  0.00  0.00    +0.074 C 
ATOM     17  C   LIG    1       55.130  46.644  28.253  0.00  0.00    +0.022 C 
ATOM     18  C   LIG    1       54.779  47.220  29.619  0.00  0.00    +0.002 C 
ATOM     19  C   LIG    1       54.516  46.155  30.684  0.00  0.00    +0.000 C 
ATOM     20  C   LIG    1       55.475  44.966  30.691  0.00  0.00    +0.002 C 
ATOM     21  C   LIG    1       55.821  44.445  29.303  0.00  0.00    +0.022 C 
ENDBRANCH  14  16
ENDBRANCH   7  12
ENDBRANCH   1   7
BRANCH   4  22
ATOM     22  C   LIG    1       65.561  44.423  29.681  0.00  0.00    +0.054 C 
BRANCH  22  23
ATOM     23  C   LIG    1       66.218  44.948  30.972  0.00  0.00    +0.121 C 
BRANCH  23  24
ATOM     24  N   LIG    1       65.231  44.842  32.037  0.00  0.00    -0.237 N 
ATOM     25  C   LIG    1       64.894  43.595  32.528  0.00  0.00    +0.232 C 
ATOM     26  O   LIG    1       64.901  42.580  31.832  0.00  0.00    -0.274 OA
ATOM     27  C   LIG    1       64.698  43.558  34.050  0.00  0.00    +0.067 C 
ATOM     28  C   LIG    1       66.118  43.360  34.626  0.00  0.00    +0.025 C 
ATOM     29  C   LIG    1       63.828  42.341  34.414  0.00  0.00    +0.025 C 
ATOM     30  C   LIG    1       64.112  44.854  34.597  0.00  0.00    -0.021 A 
ATOM     31  C   LIG    1       63.762  44.988  35.950  0.00  0.00    +0.009 A 
ATOM     32  C   LIG    1       63.277  46.200  36.455  0.00  0.00    +0.046 A 
ATOM     33  C   LIG    1       63.117  47.300  35.618  0.00  0.00    +0.121 A 
ATOM     34  C   LIG    1       63.460  47.184  34.274  0.00  0.00    +0.059 A 
ATOM     35  C   LIG    1       63.974  45.980  33.772  0.00  0.00    +0.045 A 
ATOM     36  C   LIG    1       64.535  45.980  32.402  0.00  0.00    +0.253 C 
ATOM     37  O   LIG    1       64.438  46.974  31.691  0.00  0.00    -0.270 OA
BRANCH  33  38
ATOM     38  O   LIG    1       62.671  48.538  35.987  0.00  0.00    -0.495 OA
ATOM     39  C   LIG    1       61.271  48.684  36.183  0.00  0.00    +0.277 C 
ENDBRANCH  33  38
ENDBRANCH  23  24
ENDBRANCH  22  23
ENDBRANCH   4  22
TORSDOF 7
ENDMDL
MODEL 7
REMARK VINA RESULT:      -6.3      2.242      7.580
REMARK  Name = 
REMARK                            x       y       z     vdW  Elec       q    Type
REMARK                         _______ _______ _______ _____ _____    ______ ____
ROOT
ATOM      1  C   LIG    1       60.965  47.157  31.294  0.00  0.00    +0.109 A 
ATOM      2  C   LIG    1       60.625  46.390  32.409  0.00  0.00    +0.029 A 
ATOM      3  C   LIG    1       61.096  46.760  33.666  0.00  0.00    +0.005 A 
ATOM      4  C   LIG    1       61.909  47.889  33.808  0.00  0.00    -0.046 A 
ATOM      5  C   LIG    1       62.229  48.657  32.672  0.00  0.00    +0.005 A 
ATOM      6  C   LIG    1       61.757  48.298  31.415  0.00  0.00    +0.029 A 
ENDROOT
BRANCH   1   7
ATOM      7  S   LIG    1       60.484  46.616  29.683  0.00  0.00    +0.076 S 
ATOM      8  O   LIG    1       59.546  47.570  29.135  0.00  0.00    -0.150 OA
ATOM      9  O   LIG    1       61.670  46.225  28.954  0.00  0.00    -0.150 OA
BRANCH   7  12
ATOM     10  O   LIG    1       57.966  43.864  30.332  0.00  0.00    -0.251 OA
ATOM     11  C   LIG    1       58.367  44.879  29.790  0.00  0.00    +0.319 C 
ATOM     12  N   LIG    1       59.658  45.257  30.096  0.00  0.00    -0.169 N 
ATOM     13  H   LIG    1       60.108  44.630  30.757  0.00  0.00    +0.178 HD
ATOM     14  N   LIG    1       57.674  45.654  28.917  0.00  0.00    -0.295 N 
ATOM     15  H   LIG    1       58.157  46.462  28.550  0.00  0.00    +0.151 HD
BRANCH  14  16
ATOM     16  C   LIG    1       56.313  45.457  28.428  0.00  0.00    +0.074 C 
ATOM     17  C   LIG    1       55.571  46.749  28.081  0.00  0.00    +0.022 C 
ATOM     18  C   LIG    1       54.970  47.469  29.282  0.00  0.00    +0.002 C 
ATOM     19  C   LIG    1       54.196  46.546  30.225  0.00  0.00    +0.000 C 
ATOM     20  C   LIG    1       54.844  45.194  30.517  0.00  0.00    +0.002 C 
ATOM     21  C   LIG    1       55.459  44.528  29.293  0.00  0.00    +0.022 C 
ENDBRANCH  14  16
ENDBRANCH   7  12
ENDBRANCH   1   7
BRANCH   4  22
ATOM     22  C   LIG    1       62.499  48.329  35.118  0.00  0.00    +0.054 C 
BRANCH  22  23
ATOM     23  C   LIG    1       64.023  48.222  35.330  0.00  0.00    +0.121 C 
BRANCH  23  24
ATOM     24  N   LIG    1       64.414  46.861  34.991  0.00  0.00    -0.237 N 
ATOM     25  C   LIG    1       64.357  45.877  35.960  0.00  0.00    +0.232 C 
ATOM     26  O   LIG    1       64.550  46.106  37.154  0.00  0.00    -0.274 OA
ATOM     27  C   LIG    1       63.848  44.524  35.445  0.00  0.00    +0.067 C 
ATOM     28  C   LIG    1       62.308  44.629  35.516  0.00  0.00    +0.025 C 
ATOM     29  C   LIG    1       64.326  43.413  36.398  0.00  0.00    +0.025 C 
ATOM     30  C   LIG    1       64.266  44.251  34.005  0.00  0.00    -0.021 A 
ATOM     31  C   LIG    1       63.988  43.024  33.380  0.00  0.00    +0.009 A 
ATOM     32  C   LIG    1       64.326  42.802  32.041  0.00  0.00    +0.046 A 
ATOM     33  C   LIG    1       64.962  43.794  31.299  0.00  0.00    +0.121 A 
ATOM     34  C   LIG    1       65.244  45.016  31.904  0.00  0.00    +0.059 A 
ATOM     35  C   LIG    1       64.880  45.251  33.237  0.00  0.00    +0.045 A 
ATOM     36  C   LIG    1       64.993  46.632  33.756  0.00  0.00    +0.253 C 
ATOM     37  O   LIG    1       65.505  47.513  33.074  0.00  0.00    -0.270 OA
BRANCH  33  38
ATOM     38  O   LIG    1       65.329  43.711  29.985  0.00  0.00    -0.495 OA
ATOM     39  C   LIG    1       64.357  44.096  29.022  0.00  0.00    +0.277 C 
ENDBRANCH  33  38
ENDBRANCH  23  24
ENDBRANCH  22  23
ENDBRANCH   4  22
TORSDOF 7
ENDMDL
