MODEL 1
REMARK VINA RESULT:     -10.3      0.000      0.000
REMARK  Name = 
REMARK                            x       y       z     vdW  Elec       q    Type
REMARK                         _______ _______ _______ _____ _____    ______ ____
ROOT
ATOM      1  C   LIG    1       39.107   1.620  16.606  0.00  0.00    +0.109 A 
ATOM      2  C   LIG    1       39.332   0.425  17.289  0.00  0.00    +0.029 A 
ATOM      3  C   LIG    1       40.435  -0.357  16.957  0.00  0.00    +0.005 A 
ATOM      4  C   LIG    1       41.306   0.050  15.941  0.00  0.00    -0.046 A 
ATOM      5  C   LIG    1       41.067   1.267  15.273  0.00  0.00    +0.005 A 
ATOM      6  C   LIG    1       39.973   2.057  15.604  0.00  0.00    +0.029 A 
ENDROOT
BRANCH   1   7
ATOM      7  S   LIG    1       37.637   2.546  16.929  0.00  0.00    +0.076 S 
ATOM      8  O   LIG    1       36.645   1.659  17.494  0.00  0.00    -0.150 OA
ATOM      9  O   LIG    1       38.005   3.779  17.590  0.00  0.00    -0.150 OA
BRANCH   7  12
ATOM     10  O   LIG    1       36.900   2.633  13.217  0.00  0.00    -0.251 OA
ATOM     11  C   LIG    1       37.147   2.080  14.274  0.00  0.00    +0.319 C 
ATOM     12  N   LIG    1       37.199   2.896  15.384  0.00  0.00    -0.169 N 
ATOM     13  H   LIG    1       37.032   3.874  15.166  0.00  0.00    +0.178 HD
ATOM     14  N   LIG    1       37.363   0.752  14.457  0.00  0.00    -0.295 N 
ATOM     15  H   LIG    1       37.548   0.452  15.404  0.00  0.00    +0.151 HD
BRANCH  14  16
ATOM     16  C   LIG    1       37.345  -0.307  13.452  0.00  0.00    +0.074 C 
ATOM     17  C   LIG    1       37.303  -1.724  14.026  0.00  0.00    +0.022 C 
ATOM     18  C   LIG    1       38.657  -2.258  14.476  0.00  0.00    +0.002 C 
ATOM     19  C   LIG    1       39.774  -2.038  13.454  0.00  0.00    +0.000 C 
ATOM     20  C   LIG    1       39.793  -0.673  12.770  0.00  0.00    +0.002 C 
ATOM     21  C   LIG    1       38.414  -0.166  12.367  0.00  0.00    +0.022 C 
ENDBRANCH  14  16
ENDBRANCH   7  12
ENDBRANCH   1   7
BRANCH   4  22
ATOM     22  C   LIG    1       42.489  -0.758  15.486  0.00  0.00    +0.054 C 
BRANCH  22  23
ATOM     23  C   LIG    1       43.880  -0.453  16.078  0.00  0.00    +0.121 C 
BRANCH  23  24
ATOM     24  N   LIG    1       44.330  -1.652  16.770  0.00  0.00    -0.237 N 
ATOM     25  C   LIG    1       44.752  -2.743  16.033  0.00  0.00    +0.232 C 
ATOM     26  O   LIG    1       44.287  -3.021  14.928  0.00  0.00    -0.274 OA
ATOM     27  C   LIG    1       45.974  -3.458  16.625  0.00  0.00    +0.067 C 
ATOM     28  C   LIG    1       47.190  -2.671  16.086  0.00  0.00    +0.025 C 
ATOM     29  C   LIG    1       46.022  -4.899  16.085  0.00  0.00    +0.025 C 
ATOM     30  C   LIG    1       45.992  -3.425  18.148  0.00  0.00    -0.021 A 
ATOM     31  C   LIG    1       46.971  -4.110  18.886  0.00  0.00    +0.009 A 
ATOM     32  C   LIG    1       47.013  -4.029  20.283  0.00  0.00    +0.046 A 
ATOM     33  C   LIG    1       46.069  -3.275  20.974  0.00  0.00    +0.121 A 
ATOM     34  C   LIG    1       45.092  -2.591  20.257  0.00  0.00    +0.059 A 
ATOM     35  C   LIG    1       45.066  -2.646  18.857  0.00  0.00    +0.045 A 
ATOM     36  C   LIG    1       44.158  -1.723  18.141  0.00  0.00    +0.253 C 
ATOM     37  O   LIG    1       43.367  -1.021  18.762  0.00  0.00    -0.270 OA
BRANCH  33  38
ATOM     38  O   LIG    1       46.008  -3.102  22.328  0.00  0.00    -0.495 OA
ATOM     39  C   LIG    1       44.841  -3.579  22.986  0.00  0.00    +0.277 C 
ENDBRANCH  33  38
ENDBRANCH  23  24
ENDBRANCH  22  23
ENDBRANCH   4  22
TORSDOF 7
ENDMDL
MODEL 2
REMARK VINA RESULT:      -9.8      1.874      3.442
REMARK  Name = 
REMARK                            x       y       z     vdW  Elec       q    Type
REMARK                         _______ _______ _______ _____ _____    ______ ____
ROOT
ATOM      1  C   LIG    1       38.942  -1.069  14.610  0.00  0.00    +0.109 A 
ATOM      2  C   LIG    1       39.581  -0.956  13.374  0.00  0.00    +0.029 A 
ATOM      3  C   LIG    1       40.967  -1.073  13.307  0.00  0.00    +0.005 A 
ATOM      4  C   LIG    1       41.712  -1.296  14.470  0.00  0.00    -0.046 A 
ATOM      5  C   LIG    1       41.045  -1.420  15.704  0.00  0.00    +0.005 A 
ATOM      6  C   LIG    1       39.661  -1.311  15.779  0.00  0.00    +0.029 A 
ENDROOT
BRANCH   1   7
ATOM      7  S   LIG    1       37.201  -0.786  14.720  0.00  0.00    +0.076 S 
ATOM      8  O   LIG    1       36.541  -1.555  13.688  0.00  0.00    -0.150 OA
ATOM      9  O   LIG    1       36.804  -0.891  16.106  0.00  0.00    -0.150 OA
BRANCH   7  12
ATOM     10  O   LIG    1       37.026   2.989  14.493  0.00  0.00    -0.251 OA
ATOM     11  C   LIG    1       37.188   1.931  15.075  0.00  0.00    +0.319 C 
ATOM     12  N   LIG    1       37.163   0.800  14.288  0.00  0.00    -0.169 N 
ATOM     13  H   LIG    1       36.998   1.003  13.306  0.00  0.00    +0.178 HD
ATOM     14  N   LIG    1       37.397   1.768  16.407  0.00  0.00    -0.295 N 
ATOM     15  H   LIG    1       37.521   0.819  16.731  0.00  0.00    +0.151 HD
BRANCH  14  16
ATOM     16  C   LIG    1       37.480   2.801  17.435  0.00  0.00    +0.074 C 
ATOM     17  C   LIG    1       36.136   3.420  17.822  0.00  0.00    +0.022 C 
ATOM     18  C   LIG    1       35.645   4.498  16.865  0.00  0.00    +0.002 C 
ATOM     19  C   LIG    1       36.715   5.527  16.498  0.00  0.00    +0.000 C 
ATOM     20  C   LIG    1       38.107   4.968  16.209  0.00  0.00    +0.002 C 
ATOM     21  C   LIG    1       38.542   3.870  17.172  0.00  0.00    +0.022 C 
ENDBRANCH  14  16
ENDBRANCH   7  12
ENDBRANCH   1   7
BRANCH   4  22
ATOM     22  C   LIG    1       43.212  -1.384  14.492  0.00  0.00    +0.054 C 
BRANCH  22  23
ATOM     23  C   LIG    1       43.981  -0.808  15.698  0.00  0.00    +0.121 C 
BRANCH  23  24
ATOM     24  N   LIG    1       44.423  -1.934  16.510  0.00  0.00    -0.237 N 
ATOM     25  C   LIG    1       44.908  -3.069  15.889  0.00  0.00    +0.232 C 
ATOM     26  O   LIG    1       44.509  -3.450  14.789  0.00  0.00    -0.274 OA
ATOM     27  C   LIG    1       46.114  -3.699  16.599  0.00  0.00    +0.067 C 
ATOM     28  C   LIG    1       47.338  -2.926  16.059  0.00  0.00    +0.025 C 
ATOM     29  C   LIG    1       46.225  -5.177  16.184  0.00  0.00    +0.025 C 
ATOM     30  C   LIG    1       46.051  -3.541  18.113  0.00  0.00    -0.021 A 
ATOM     31  C   LIG    1       47.006  -4.135  18.954  0.00  0.00    +0.009 A 
ATOM     32  C   LIG    1       46.971  -3.938  20.339  0.00  0.00    +0.046 A 
ATOM     33  C   LIG    1       45.975  -3.157  20.917  0.00  0.00    +0.121 A 
ATOM     34  C   LIG    1       45.021  -2.561  20.097  0.00  0.00    +0.059 A 
ATOM     35  C   LIG    1       45.070  -2.732  18.707  0.00  0.00    +0.045 A 
ATOM     36  C   LIG    1       44.180  -1.897  17.871  0.00  0.00    +0.253 C 
ATOM     37  O   LIG    1       43.341  -1.169  18.390  0.00  0.00    -0.270 OA
BRANCH  33  38
ATOM     38  O   LIG    1       45.839  -2.874  22.247  0.00  0.00    -0.495 OA
ATOM     39  C   LIG    1       44.856  -3.611  22.963  0.00  0.00    +0.277 C 
ENDBRANCH  33  38
ENDBRANCH  23  24
ENDBRANCH  22  23
ENDBRANCH   4  22
TORSDOF 7
ENDMDL
MODEL 3
REMARK VINA RESULT:      -8.9      2.592      9.324
REMARK  Name = 
REMARK                            x       y       z     vdW  Elec       q    Type
REMARK                         _______ _______ _______ _____ _____    ______ ____
ROOT
ATOM      1  C   LIG    1       41.838  -1.040  16.309  0.00  0.00    +0.109 A 
ATOM      2  C   LIG    1       40.991  -2.097  15.971  0.00  0.00    +0.029 A 
ATOM      3  C   LIG    1       40.030  -1.914  14.980  0.00  0.00    +0.005 A 
ATOM      4  C   LIG    1       39.911  -0.679  14.334  0.00  0.00    -0.046 A 
ATOM      5  C   LIG    1       40.785   0.369  14.681  0.00  0.00    +0.005 A 
ATOM      6  C   LIG    1       41.752   0.193  15.664  0.00  0.00    +0.029 A 
ENDROOT
BRANCH   1   7
ATOM      7  S   LIG    1       42.966  -1.224  17.657  0.00  0.00    +0.076 S 
ATOM      8  O   LIG    1       44.224  -0.611  17.295  0.00  0.00    -0.150 OA
ATOM      9  O   LIG    1       42.283  -0.870  18.881  0.00  0.00    -0.150 OA
BRANCH   7  12
ATOM     10  O   LIG    1       43.905  -4.830  16.994  0.00  0.00    -0.251 OA
ATOM     11  C   LIG    1       44.068  -3.625  16.929  0.00  0.00    +0.319 C 
ATOM     12  N   LIG    1       43.156  -2.856  17.622  0.00  0.00    -0.169 N 
ATOM     13  H   LIG    1       42.448  -3.410  18.094  0.00  0.00    +0.178 HD
ATOM     14  N   LIG    1       45.055  -2.980  16.257  0.00  0.00    -0.295 N 
ATOM     15  H   LIG    1       45.052  -1.971  16.311  0.00  0.00    +0.151 HD
BRANCH  14  16
ATOM     16  C   LIG    1       46.137  -3.566  15.471  0.00  0.00    +0.074 C 
ATOM     17  C   LIG    1       46.653  -4.903  16.003  0.00  0.00    +0.022 C 
ATOM     18  C   LIG    1       47.640  -4.780  17.156  0.00  0.00    +0.002 C 
ATOM     19  C   LIG    1       48.741  -3.746  16.914  0.00  0.00    +0.000 C 
ATOM     20  C   LIG    1       48.292  -2.430  16.281  0.00  0.00    +0.002 C 
ATOM     21  C   LIG    1       47.281  -2.601  15.154  0.00  0.00    +0.022 C 
ENDBRANCH  14  16
ENDBRANCH   7  12
ENDBRANCH   1   7
BRANCH   4  22
ATOM     22  C   LIG    1       38.870  -0.383  13.291  0.00  0.00    +0.054 C 
BRANCH  22  23
ATOM     23  C   LIG    1       37.421  -0.101  13.734  0.00  0.00    +0.121 C 
BRANCH  23  24
ATOM     24  N   LIG    1       37.422   1.176  14.435  0.00  0.00    -0.237 N 
ATOM     25  C   LIG    1       37.712   2.332  13.737  0.00  0.00    +0.232 C 
ATOM     26  O   LIG    1       38.482   2.357  12.777  0.00  0.00    -0.274 OA
ATOM     27  C   LIG    1       36.849   3.536  14.140  0.00  0.00    +0.067 C 
ATOM     28  C   LIG    1       35.560   3.396  13.299  0.00  0.00    +0.025 C 
ATOM     29  C   LIG    1       37.577   4.832  13.742  0.00  0.00    +0.025 C 
ATOM     30  C   LIG    1       36.484   3.525  15.620  0.00  0.00    -0.021 A 
ATOM     31  C   LIG    1       35.784   4.590  16.211  0.00  0.00    +0.009 A 
ATOM     32  C   LIG    1       35.406   4.547  17.558  0.00  0.00    +0.046 A 
ATOM     33  C   LIG    1       35.729   3.447  18.347  0.00  0.00    +0.121 A 
ATOM     34  C   LIG    1       36.422   2.383  17.776  0.00  0.00    +0.059 A 
ATOM     35  C   LIG    1       36.777   2.411  16.420  0.00  0.00    +0.045 A 
ATOM     36  C   LIG    1       37.302   1.168  15.813  0.00  0.00    +0.253 C 
ATOM     37  O   LIG    1       37.532   0.185  16.508  0.00  0.00    -0.270 OA
BRANCH  33  38
ATOM     38  O   LIG    1       35.405   3.275  19.664  0.00  0.00    -0.495 OA
ATOM     39  C   LIG    1       34.639   2.123  19.991  0.00  0.00    +0.277 C 
ENDBRANCH  33  38
ENDBRANCH  23  24
ENDBRANCH  22  23
ENDBRANCH   4  22
TORSDOF 7
ENDMDL
MODEL 4
REMARK VINA RESULT:      -8.9      2.721      8.837
REMARK  Name = 
REMARK                            x       y       z     vdW  Elec       q    Type
REMARK                         _______ _______ _______ _____ _____    ______ ____
ROOT
ATOM      1  C   LIG    1       43.655  -1.630  17.462  0.00  0.00    +0.109 A 
ATOM      2  C   LIG    1       43.487  -0.510  16.646  0.00  0.00    +0.029 A 
ATOM      3  C   LIG    1       42.658  -0.593  15.530  0.00  0.00    +0.005 A 
ATOM      4  C   LIG    1       42.004  -1.792  15.228  0.00  0.00    -0.046 A 
ATOM      5  C   LIG    1       42.177  -2.906  16.072  0.00  0.00    +0.005 A 
ATOM      6  C   LIG    1       42.997  -2.829  17.192  0.00  0.00    +0.029 A 
ENDROOT
BRANCH   1   7
ATOM      7  S   LIG    1       44.809  -1.570  18.798  0.00  0.00    +0.076 S 
ATOM      8  O   LIG    1       45.894  -0.686  18.434  0.00  0.00    -0.150 OA
ATOM      9  O   LIG    1       44.078  -1.391  20.032  0.00  0.00    -0.150 OA
BRANCH   7  12
ATOM     10  O   LIG    1       46.160  -4.991  17.900  0.00  0.00    -0.251 OA
ATOM     11  C   LIG    1       45.958  -3.805  17.705  0.00  0.00    +0.319 C 
ATOM     12  N   LIG    1       45.361  -3.117  18.741  0.00  0.00    -0.169 N 
ATOM     13  H   LIG    1       45.154  -3.707  19.541  0.00  0.00    +0.178 HD
ATOM     14  N   LIG    1       46.271  -3.108  16.583  0.00  0.00    -0.295 N 
ATOM     15  H   LIG    1       46.042  -2.124  16.585  0.00  0.00    +0.151 HD
BRANCH  14  16
ATOM     16  C   LIG    1       46.916  -3.602  15.370  0.00  0.00    +0.074 C 
ATOM     17  C   LIG    1       48.426  -3.366  15.314  0.00  0.00    +0.022 C 
ATOM     18  C   LIG    1       48.825  -1.961  14.880  0.00  0.00    +0.002 C 
ATOM     19  C   LIG    1       48.076  -1.466  13.642  0.00  0.00    +0.000 C 
ATOM     20  C   LIG    1       46.580  -1.775  13.598  0.00  0.00    +0.002 C 
ATOM     21  C   LIG    1       46.227  -3.179  14.071  0.00  0.00    +0.022 C 
ENDBRANCH  14  16
ENDBRANCH   7  12
ENDBRANCH   1   7
BRANCH   4  22
ATOM     22  C   LIG    1       41.133  -1.981  14.017  0.00  0.00    +0.054 C 
BRANCH  22  23
ATOM     23  C   LIG    1       40.833  -0.771  13.111  0.00  0.00    +0.121 C 
BRANCH  23  24
ATOM     24  N   LIG    1       39.651  -0.110  13.645  0.00  0.00    -0.237 N 
ATOM     25  C   LIG    1       38.438  -0.773  13.632  0.00  0.00    +0.232 C 
ATOM     26  O   LIG    1       38.132  -1.584  12.759  0.00  0.00    -0.274 OA
ATOM     27  C   LIG    1       37.595  -0.554  14.895  0.00  0.00    +0.067 C 
ATOM     28  C   LIG    1       38.115  -1.603  15.903  0.00  0.00    +0.025 C 
ATOM     29  C   LIG    1       36.119  -0.848  14.571  0.00  0.00    +0.025 C 
ATOM     30  C   LIG    1       37.775   0.840  15.486  0.00  0.00    -0.021 A 
ATOM     31  C   LIG    1       37.017   1.276  16.583  0.00  0.00    +0.009 A 
ATOM     32  C   LIG    1       37.228   2.537  17.153  0.00  0.00    +0.046 A 
ATOM     33  C   LIG    1       38.191   3.395  16.631  0.00  0.00    +0.121 A 
ATOM     34  C   LIG    1       38.952   2.977  15.543  0.00  0.00    +0.059 A 
ATOM     35  C   LIG    1       38.762   1.704  14.988  0.00  0.00    +0.045 A 
ATOM     36  C   LIG    1       39.745   1.226  13.991  0.00  0.00    +0.253 C 
ATOM     37  O   LIG    1       40.626   1.973  13.577  0.00  0.00    -0.270 OA
BRANCH  33  38
ATOM     38  O   LIG    1       38.505   4.639  17.102  0.00  0.00    -0.495 OA
ATOM     39  C   LIG    1       38.000   5.749  16.372  0.00  0.00    +0.277 C 
ENDBRANCH  33  38
ENDBRANCH  23  24
ENDBRANCH  22  23
ENDBRANCH   4  22
TORSDOF 7
ENDMDL
MODEL 5
REMARK VINA RESULT:      -8.8      2.055      3.038
REMARK  Name = 
REMARK                            x       y       z     vdW  Elec       q    Type
REMARK                         _______ _______ _______ _____ _____    ______ ____
ROOT
ATOM      1  C   LIG    1       37.508   3.121  16.869  0.00  0.00    +0.109 A 
ATOM      2  C   LIG    1       38.827   3.433  17.199  0.00  0.00    +0.029 A 
ATOM      3  C   LIG    1       39.716   2.407  17.509  0.00  0.00    +0.005 A 
ATOM      4  C   LIG    1       39.288   1.076  17.495  0.00  0.00    -0.046 A 
ATOM      5  C   LIG    1       37.955   0.783  17.146  0.00  0.00    +0.005 A 
ATOM      6  C   LIG    1       37.063   1.800  16.829  0.00  0.00    +0.029 A 
ENDROOT
BRANCH   1   7
ATOM      7  S   LIG    1       36.343   4.424  16.608  0.00  0.00    +0.076 S 
ATOM      8  O   LIG    1       35.303   4.322  17.608  0.00  0.00    -0.150 OA
ATOM      9  O   LIG    1       37.069   5.657  16.403  0.00  0.00    -0.150 OA
BRANCH   7  12
ATOM     10  O   LIG    1       35.667   3.247  13.074  0.00  0.00    -0.251 OA
ATOM     11  C   LIG    1       36.359   3.407  14.064  0.00  0.00    +0.319 C 
ATOM     12  N   LIG    1       35.723   3.939  15.165  0.00  0.00    -0.169 N 
ATOM     13  H   LIG    1       34.742   4.143  14.997  0.00  0.00    +0.178 HD
ATOM     14  N   LIG    1       37.677   3.103  14.183  0.00  0.00    -0.295 N 
ATOM     15  H   LIG    1       38.103   3.291  15.079  0.00  0.00    +0.151 HD
BRANCH  14  16
ATOM     16  C   LIG    1       38.558   2.521  13.175  0.00  0.00    +0.074 C 
ATOM     17  C   LIG    1       38.102   1.160  12.645  0.00  0.00    +0.022 C 
ATOM     18  C   LIG    1       38.459  -0.015  13.546  0.00  0.00    +0.002 C 
ATOM     19  C   LIG    1       39.908   0.004  14.034  0.00  0.00    +0.000 C 
ATOM     20  C   LIG    1       40.447   1.364  14.472  0.00  0.00    +0.002 C 
ATOM     21  C   LIG    1       40.039   2.513  13.559  0.00  0.00    +0.022 C 
ENDBRANCH  14  16
ENDBRANCH   7  12
ENDBRANCH   1   7
BRANCH   4  22
ATOM     22  C   LIG    1       40.168  -0.085  17.865  0.00  0.00    +0.054 C 
BRANCH  22  23
ATOM     23  C   LIG    1       41.695   0.047  17.700  0.00  0.00    +0.121 C 
BRANCH  23  24
ATOM     24  N   LIG    1       42.239  -1.299  17.591  0.00  0.00    -0.237 N 
ATOM     25  C   LIG    1       41.588  -2.233  16.807  0.00  0.00    +0.232 C 
ATOM     26  O   LIG    1       40.367  -2.237  16.652  0.00  0.00    -0.274 OA
ATOM     27  C   LIG    1       42.531  -3.137  16.002  0.00  0.00    +0.067 C 
ATOM     28  C   LIG    1       42.846  -2.335  14.719  0.00  0.00    +0.025 C 
ATOM     29  C   LIG    1       41.786  -4.429  15.623  0.00  0.00    +0.025 C 
ATOM     30  C   LIG    1       43.832  -3.431  16.740  0.00  0.00    -0.021 A 
ATOM     31  C   LIG    1       44.786  -4.320  16.219  0.00  0.00    +0.009 A 
ATOM     32  C   LIG    1       46.001  -4.542  16.877  0.00  0.00    +0.046 A 
ATOM     33  C   LIG    1       46.285  -3.893  18.075  0.00  0.00    +0.121 A 
ATOM     34  C   LIG    1       45.349  -3.008  18.604  0.00  0.00    +0.059 A 
ATOM     35  C   LIG    1       44.144  -2.762  17.933  0.00  0.00    +0.045 A 
ATOM     36  C   LIG    1       43.294  -1.650  18.414  0.00  0.00    +0.253 C 
ATOM     37  O   LIG    1       43.582  -1.046  19.441  0.00  0.00    -0.270 OA
BRANCH  33  38
ATOM     38  O   LIG    1       47.435  -4.009  18.804  0.00  0.00    -0.495 OA
ATOM     39  C   LIG    1       48.495  -4.753  18.218  0.00  0.00    +0.277 C 
ENDBRANCH  33  38
ENDBRANCH  23  24
ENDBRANCH  22  23
ENDBRANCH   4  22
TORSDOF 7
ENDMDL
MODEL 6
REMARK VINA RESULT:      -8.8      2.564      9.671
REMARK  Name = 
REMARK                            x       y       z     vdW  Elec       q    Type
REMARK                         _______ _______ _______ _____ _____    ______ ____
ROOT
ATOM      1  C   LIG    1       41.579  -2.561  15.071  0.00  0.00    +0.109 A 
ATOM      2  C   LIG    1       41.941  -1.469  14.282  0.00  0.00    +0.029 A 
ATOM      3  C   LIG    1       40.954  -0.746  13.618  0.00  0.00    +0.005 A 
ATOM      4  C   LIG    1       39.610  -1.116  13.738  0.00  0.00    -0.046 A 
ATOM      5  C   LIG    1       39.266  -2.213  14.550  0.00  0.00    +0.005 A 
ATOM      6  C   LIG    1       40.245  -2.936  15.222  0.00  0.00    +0.029 A 
ENDROOT
BRANCH   1   7
ATOM      7  S   LIG    1       42.837  -3.562  15.804  0.00  0.00    +0.076 S 
ATOM      8  O   LIG    1       42.291  -4.876  16.065  0.00  0.00    -0.150 OA
ATOM      9  O   LIG    1       44.059  -3.393  15.051  0.00  0.00    -0.150 OA
BRANCH   7  12
ATOM     10  O   LIG    1       43.948  -2.009  19.073  0.00  0.00    -0.251 OA
ATOM     11  C   LIG    1       44.132  -2.508  17.977  0.00  0.00    +0.319 C 
ATOM     12  N   LIG    1       42.998  -2.776  17.239  0.00  0.00    -0.169 N 
ATOM     13  H   LIG    1       42.141  -2.526  17.723  0.00  0.00    +0.178 HD
ATOM     14  N   LIG    1       45.333  -2.811  17.421  0.00  0.00    -0.295 N 
ATOM     15  H   LIG    1       45.312  -3.215  16.496  0.00  0.00    +0.151 HD
BRANCH  14  16
ATOM     16  C   LIG    1       46.662  -2.609  17.991  0.00  0.00    +0.074 C 
ATOM     17  C   LIG    1       47.740  -2.242  16.971  0.00  0.00    +0.022 C 
ATOM     18  C   LIG    1       48.313  -3.431  16.210  0.00  0.00    +0.002 C 
ATOM     19  C   LIG    1       48.689  -4.610  17.108  0.00  0.00    +0.000 C 
ATOM     20  C   LIG    1       47.694  -4.949  18.217  0.00  0.00    +0.002 C 
ATOM     21  C   LIG    1       47.124  -3.728  18.927  0.00  0.00    +0.022 C 
ENDBRANCH  14  16
ENDBRANCH   7  12
ENDBRANCH   1   7
BRANCH   4  22
ATOM     22  C   LIG    1       38.489  -0.422  13.016  0.00  0.00    +0.054 C 
BRANCH  22  23
ATOM     23  C   LIG    1       37.152  -0.193  13.749  0.00  0.00    +0.121 C 
BRANCH  23  24
ATOM     24  N   LIG    1       37.252   1.079  14.449  0.00  0.00    -0.237 N 
ATOM     25  C   LIG    1       37.593   2.217  13.744  0.00  0.00    +0.232 C 
ATOM     26  O   LIG    1       38.335   2.196  12.762  0.00  0.00    -0.274 OA
ATOM     27  C   LIG    1       36.818   3.471  14.172  0.00  0.00    +0.067 C 
ATOM     28  C   LIG    1       35.499   3.413  13.368  0.00  0.00    +0.025 C 
ATOM     29  C   LIG    1       37.614   4.720  13.753  0.00  0.00    +0.025 C 
ATOM     30  C   LIG    1       36.495   3.480  15.661  0.00  0.00    -0.021 A 
ATOM     31  C   LIG    1       35.881   4.585  16.272  0.00  0.00    +0.009 A 
ATOM     32  C   LIG    1       35.539   4.563  17.629  0.00  0.00    +0.046 A 
ATOM     33  C   LIG    1       35.815   3.443  18.409  0.00  0.00    +0.121 A 
ATOM     34  C   LIG    1       36.424   2.340  17.818  0.00  0.00    +0.059 A 
ATOM     35  C   LIG    1       36.741   2.348  16.452  0.00  0.00    +0.045 A 
ATOM     36  C   LIG    1       37.171   1.076  15.830  0.00  0.00    +0.253 C 
ATOM     37  O   LIG    1       37.359   0.079  16.518  0.00  0.00    -0.270 OA
BRANCH  33  38
ATOM     38  O   LIG    1       35.519   3.288  19.734  0.00  0.00    -0.495 OA
ATOM     39  C   LIG    1       34.664   2.207  20.079  0.00  0.00    +0.277 C 
ENDBRANCH  33  38
ENDBRANCH  23  24
ENDBRANCH  22  23
ENDBRANCH   4  22
TORSDOF 7
ENDMDL
MODEL 7
REMARK VINA RESULT:      -8.7      2.309      3.876
REMARK  Name = 
REMARK                            x       y       z     vdW  Elec       q    Type
REMARK                         _______ _______ _______ _____ _____    ______ ____
ROOT
ATOM      1  C   LIG    1       38.799  -0.358  15.474  0.00  0.00    +0.109 A 
ATOM      2  C   LIG    1       38.489  -1.260  16.494  0.00  0.00    +0.029 A 
ATOM      3  C   LIG    1       39.374  -1.422  17.557  0.00  0.00    +0.005 A 
ATOM      4  C   LIG    1       40.565  -0.691  17.599  0.00  0.00    -0.046 A 
ATOM      5  C   LIG    1       40.852   0.223  16.566  0.00  0.00    +0.005 A 
ATOM      6  C   LIG    1       39.971   0.396  15.505  0.00  0.00    +0.029 A 
ENDROOT
BRANCH   1   7
ATOM      7  S   LIG    1       37.748  -0.249  14.058  0.00  0.00    +0.076 S 
ATOM      8  O   LIG    1       37.983  -1.402  13.217  0.00  0.00    -0.150 OA
ATOM      9  O   LIG    1       36.416   0.101  14.497  0.00  0.00    -0.150 OA
BRANCH   7  12
ATOM     10  O   LIG    1       38.865   3.180  12.907  0.00  0.00    -0.251 OA
ATOM     11  C   LIG    1       38.378   2.394  13.699  0.00  0.00    +0.319 C 
ATOM     12  N   LIG    1       38.418   1.065  13.332  0.00  0.00    -0.169 N 
ATOM     13  H   LIG    1       38.849   0.917  12.424  0.00  0.00    +0.178 HD
ATOM     14  N   LIG    1       37.816   2.700  14.897  0.00  0.00    -0.295 N 
ATOM     15  H   LIG    1       37.464   1.925  15.441  0.00  0.00    +0.151 HD
BRANCH  14  16
ATOM     16  C   LIG    1       37.670   4.018  15.508  0.00  0.00    +0.074 C 
ATOM     17  C   LIG    1       37.921   4.048  17.017  0.00  0.00    +0.022 C 
ATOM     18  C   LIG    1       36.735   3.593  17.858  0.00  0.00    +0.002 C 
ATOM     19  C   LIG    1       35.408   4.228  17.440  0.00  0.00    +0.000 C 
ATOM     20  C   LIG    1       35.158   4.322  15.936  0.00  0.00    +0.002 C 
ATOM     21  C   LIG    1       36.380   4.749  15.133  0.00  0.00    +0.022 C 
ENDBRANCH  14  16
ENDBRANCH   7  12
ENDBRANCH   1   7
BRANCH   4  22
ATOM     22  C   LIG    1       41.596  -0.843  18.682  0.00  0.00    +0.054 C 
BRANCH  22  23
ATOM     23  C   LIG    1       43.085  -0.645  18.336  0.00  0.00    +0.121 C 
BRANCH  23  24
ATOM     24  N   LIG    1       43.629  -1.952  17.994  0.00  0.00    -0.237 N 
ATOM     25  C   LIG    1       42.961  -2.748  17.084  0.00  0.00    +0.232 C 
ATOM     26  O   LIG    1       41.737  -2.735  16.959  0.00  0.00    -0.274 OA
ATOM     27  C   LIG    1       43.886  -3.502  16.119  0.00  0.00    +0.067 C 
ATOM     28  C   LIG    1       44.167  -2.499  14.978  0.00  0.00    +0.025 C 
ATOM     29  C   LIG    1       43.135  -4.719  15.551  0.00  0.00    +0.025 C 
ATOM     30  C   LIG    1       45.205  -3.905  16.767  0.00  0.00    -0.021 A 
ATOM     31  C   LIG    1       46.148  -4.691  16.085  0.00  0.00    +0.009 A 
ATOM     32  C   LIG    1       47.380  -5.010  16.668  0.00  0.00    +0.046 A 
ATOM     33  C   LIG    1       47.692  -4.564  17.949  0.00  0.00    +0.121 A 
ATOM     34  C   LIG    1       46.767  -3.784  18.638  0.00  0.00    +0.059 A 
ATOM     35  C   LIG    1       45.545  -3.438  18.046  0.00  0.00    +0.045 A 
ATOM     36  C   LIG    1       44.705  -2.426  18.723  0.00  0.00    +0.253 C 
ATOM     37  O   LIG    1       45.017  -1.997  19.828  0.00  0.00    -0.270 OA
BRANCH  33  38
ATOM     38  O   LIG    1       48.860  -4.791  18.622  0.00  0.00    -0.495 OA
ATOM     39  C   LIG    1       48.759  -5.043  20.017  0.00  0.00    +0.277 C 
ENDBRANCH  33  38
ENDBRANCH  23  24
ENDBRANCH  22  23
ENDBRANCH   4  22
TORSDOF 7
ENDMDL
MODEL 8
REMARK VINA RESULT:      -8.5      3.027      9.287
REMARK  Name = 
REMARK                            x       y       z     vdW  Elec       q    Type
REMARK                         _______ _______ _______ _____ _____    ______ ____
ROOT
ATOM      1  C   LIG    1       44.348  -4.123  15.612  0.00  0.00    +0.109 A 
ATOM      2  C   LIG    1       43.104  -4.010  16.234  0.00  0.00    +0.029 A 
ATOM      3  C   LIG    1       42.307  -2.897  15.976  0.00  0.00    +0.005 A 
ATOM      4  C   LIG    1       42.755  -1.899  15.104  0.00  0.00    -0.046 A 
ATOM      5  C   LIG    1       44.008  -2.039  14.478  0.00  0.00    +0.005 A 
ATOM      6  C   LIG    1       44.806  -3.150  14.724  0.00  0.00    +0.029 A 
ENDROOT
BRANCH   1   7
ATOM      7  S   LIG    1       45.419  -5.462  16.040  0.00  0.00    +0.076 S 
ATOM      8  O   LIG    1       44.952  -6.051  17.276  0.00  0.00    -0.150 OA
ATOM      9  O   LIG    1       45.642  -6.268  14.862  0.00  0.00    -0.150 OA
BRANCH   7  12
ATOM     10  O   LIG    1       48.084  -2.982  17.080  0.00  0.00    -0.251 OA
ATOM     11  C   LIG    1       46.969  -3.473  17.112  0.00  0.00    +0.319 C 
ATOM     12  N   LIG    1       46.790  -4.613  16.357  0.00  0.00    -0.169 N 
ATOM     13  H   LIG    1       47.627  -4.891  15.854  0.00  0.00    +0.178 HD
ATOM     14  N   LIG    1       45.907  -3.012  17.821  0.00  0.00    -0.295 N 
ATOM     15  H   LIG    1       45.051  -3.542  17.744  0.00  0.00    +0.151 HD
BRANCH  14  16
ATOM     16  C   LIG    1       45.851  -1.846  18.698  0.00  0.00    +0.074 C 
ATOM     17  C   LIG    1       45.186  -2.103  20.051  0.00  0.00    +0.022 C 
ATOM     18  C   LIG    1       43.664  -2.074  20.017  0.00  0.00    +0.002 C 
ATOM     19  C   LIG    1       43.090  -0.873  19.266  0.00  0.00    +0.000 C 
ATOM     20  C   LIG    1       43.790  -0.506  17.958  0.00  0.00    +0.002 C 
ATOM     21  C   LIG    1       45.310  -0.580  18.031  0.00  0.00    +0.022 C 
ENDBRANCH  14  16
ENDBRANCH   7  12
ENDBRANCH   1   7
BRANCH   4  22
ATOM     22  C   LIG    1       41.981  -0.644  14.810  0.00  0.00    +0.054 C 
BRANCH  22  23
ATOM     23  C   LIG    1       40.915  -0.662  13.697  0.00  0.00    +0.121 C 
BRANCH  23  24
ATOM     24  N   LIG    1       39.665  -0.201  14.284  0.00  0.00    -0.237 N 
ATOM     25  C   LIG    1       38.897  -1.080  15.024  0.00  0.00    +0.232 C 
ATOM     26  O   LIG    1       38.853  -2.287  14.789  0.00  0.00    -0.274 OA
ATOM     27  C   LIG    1       38.261  -0.453  16.272  0.00  0.00    +0.067 C 
ATOM     28  C   LIG    1       39.353  -0.548  17.361  0.00  0.00    +0.025 C 
ATOM     29  C   LIG    1       37.047  -1.299  16.695  0.00  0.00    +0.025 C 
ATOM     30  C   LIG    1       37.886   1.010  16.066  0.00  0.00    -0.021 A 
ATOM     31  C   LIG    1       37.200   1.738  17.052  0.00  0.00    +0.009 A 
ATOM     32  C   LIG    1       36.908   3.095  16.877  0.00  0.00    +0.046 A 
ATOM     33  C   LIG    1       37.282   3.753  15.708  0.00  0.00    +0.121 A 
ATOM     34  C   LIG    1       37.964   3.045  14.722  0.00  0.00    +0.059 A 
ATOM     35  C   LIG    1       38.283   1.693  14.907  0.00  0.00    +0.045 A 
ATOM     36  C   LIG    1       39.201   1.055  13.937  0.00  0.00    +0.253 C 
ATOM     37  O   LIG    1       39.570   1.663  12.938  0.00  0.00    -0.270 OA
BRANCH  33  38
ATOM     38  O   LIG    1       37.074   5.072  15.421  0.00  0.00    -0.495 OA
ATOM     39  C   LIG    1       36.624   5.381  14.108  0.00  0.00    +0.277 C 
ENDBRANCH  33  38
ENDBRANCH  23  24
ENDBRANCH  22  23
ENDBRANCH   4  22
TORSDOF 7
ENDMDL
MODEL 9
REMARK VINA RESULT:      -8.2      2.461      9.813
REMARK  Name = 
REMARK                            x       y       z     vdW  Elec       q    Type
REMARK                         _______ _______ _______ _____ _____    ______ ____
ROOT
ATOM      1  C   LIG    1       41.522  -2.377  15.100  0.00  0.00    +0.109 A 
ATOM      2  C   LIG    1       41.855  -1.131  14.568  0.00  0.00    +0.029 A 
ATOM      3  C   LIG    1       40.871  -0.367  13.944  0.00  0.00    +0.005 A 
ATOM      4  C   LIG    1       39.562  -0.849  13.847  0.00  0.00    -0.046 A 
ATOM      5  C   LIG    1       39.245  -2.104  14.403  0.00  0.00    +0.005 A 
ATOM      6  C   LIG    1       40.219  -2.869  15.033  0.00  0.00    +0.029 A 
ENDROOT
BRANCH   1   7
ATOM      7  S   LIG    1       42.792  -3.407  15.770  0.00  0.00    +0.076 S 
ATOM      8  O   LIG    1       42.253  -4.733  15.975  0.00  0.00    -0.150 OA
ATOM      9  O   LIG    1       44.004  -3.197  15.011  0.00  0.00    -0.150 OA
BRANCH   7  12
ATOM     10  O   LIG    1       43.930  -2.027  19.107  0.00  0.00    -0.251 OA
ATOM     11  C   LIG    1       44.105  -2.483  17.991  0.00  0.00    +0.319 C 
ATOM     12  N   LIG    1       42.968  -2.688  17.238  0.00  0.00    -0.169 N 
ATOM     13  H   LIG    1       42.116  -2.437  17.730  0.00  0.00    +0.178 HD
ATOM     14  N   LIG    1       45.300  -2.792  17.425  0.00  0.00    -0.295 N 
ATOM     15  H   LIG    1       45.272  -3.155  16.483  0.00  0.00    +0.151 HD
BRANCH  14  16
ATOM     16  C   LIG    1       46.631  -2.651  18.007  0.00  0.00    +0.074 C 
ATOM     17  C   LIG    1       47.717  -2.237  17.013  0.00  0.00    +0.022 C 
ATOM     18  C   LIG    1       48.271  -3.384  16.177  0.00  0.00    +0.002 C 
ATOM     19  C   LIG    1       48.625  -4.625  16.998  0.00  0.00    +0.000 C 
ATOM     20  C   LIG    1       47.623  -5.017  18.082  0.00  0.00    +0.002 C 
ATOM     21  C   LIG    1       47.073  -3.835  18.869  0.00  0.00    +0.022 C 
ENDBRANCH  14  16
ENDBRANCH   7  12
ENDBRANCH   1   7
BRANCH   4  22
ATOM     22  C   LIG    1       38.454  -0.112  13.148  0.00  0.00    +0.054 C 
BRANCH  22  23
ATOM     23  C   LIG    1       37.058  -0.060  13.799  0.00  0.00    +0.121 C 
BRANCH  23  24
ATOM     24  N   LIG    1       37.043   1.081  14.703  0.00  0.00    -0.237 N 
ATOM     25  C   LIG    1       37.440   0.912  16.016  0.00  0.00    +0.232 C 
ATOM     26  O   LIG    1       37.272  -0.139  16.633  0.00  0.00    -0.274 OA
ATOM     27  C   LIG    1       38.272   2.077  16.570  0.00  0.00    +0.067 C 
ATOM     28  C   LIG    1       39.721   1.769  16.132  0.00  0.00    +0.025 C 
ATOM     29  C   LIG    1       38.192   2.064  18.107  0.00  0.00    +0.025 C 
ATOM     30  C   LIG    1       37.850   3.424  15.994  0.00  0.00    -0.021 A 
ATOM     31  C   LIG    1       38.418   4.626  16.447  0.00  0.00    +0.009 A 
ATOM     32  C   LIG    1       38.065   5.853  15.874  0.00  0.00    +0.046 A 
ATOM     33  C   LIG    1       37.127   5.909  14.847  0.00  0.00    +0.121 A 
ATOM     34  C   LIG    1       36.555   4.726  14.387  0.00  0.00    +0.059 A 
ATOM     35  C   LIG    1       36.929   3.493  14.939  0.00  0.00    +0.045 A 
ATOM     36  C   LIG    1       36.468   2.260  14.263  0.00  0.00    +0.253 C 
ATOM     37  O   LIG    1       35.684   2.322  13.322  0.00  0.00    -0.270 OA
BRANCH  33  38
ATOM     38  O   LIG    1       36.710   7.035  14.195  0.00  0.00    -0.495 OA
ATOM     39  C   LIG    1       35.756   6.859  13.155  0.00  0.00    +0.277 C 
ENDBRANCH  33  38
ENDBRANCH  23  24
ENDBRANCH  22  23
ENDBRANCH   4  22
TORSDOF 7
ENDMDL
