MODEL 1
REMARK VINA RESULT:      -9.4      0.000      0.000
REMARK  Name = 
REMARK                            x       y       z     vdW  Elec       q    Type
REMARK                         _______ _______ _______ _____ _____    ______ ____
ROOT
ATOM      1  C   LIG    1       24.109  29.104   5.052  0.00  0.00    +0.109 A 
ATOM      2  C   LIG    1       23.832  27.868   5.638  0.00  0.00    +0.029 A 
ATOM      3  C   LIG    1       22.949  27.801   6.713  0.00  0.00    +0.005 A 
ATOM      4  C   LIG    1       22.349  28.966   7.203  0.00  0.00    -0.046 A 
ATOM      5  C   LIG    1       22.632  30.200   6.588  0.00  0.00    +0.005 A 
ATOM      6  C   LIG    1       23.507  30.275   5.511  0.00  0.00    +0.029 A 
ENDROOT
BRANCH   1   7
ATOM      7  S   LIG    1       25.331  29.212   3.780  0.00  0.00    +0.076 S 
ATOM      8  O   LIG    1       25.699  27.873   3.376  0.00  0.00    -0.150 OA
ATOM      9  O   LIG    1       24.903  30.197   2.813  0.00  0.00    -0.150 OA
BRANCH   7  12
ATOM     10  O   LIG    1       28.074  30.045   6.252  0.00  0.00    -0.251 OA
ATOM     11  C   LIG    1       27.281  29.301   5.703  0.00  0.00    +0.319 C 
ATOM     12  N   LIG    1       26.568  29.846   4.656  0.00  0.00    -0.169 N 
ATOM     13  H   LIG    1       26.796  30.821   4.486  0.00  0.00    +0.178 HD
ATOM     14  N   LIG    1       27.047  28.001   6.016  0.00  0.00    -0.295 N 
ATOM     15  H   LIG    1       26.358  27.520   5.455  0.00  0.00    +0.151 HD
BRANCH  14  16
ATOM     16  C   LIG    1       27.679  27.202   7.061  0.00  0.00    +0.074 C 
ATOM     17  C   LIG    1       27.888  25.732   6.695  0.00  0.00    +0.022 C 
ATOM     18  C   LIG    1       26.650  24.861   6.864  0.00  0.00    +0.002 C 
ATOM     19  C   LIG    1       25.932  25.069   8.198  0.00  0.00    +0.000 C 
ATOM     20  C   LIG    1       25.793  26.517   8.664  0.00  0.00    +0.002 C 
ATOM     21  C   LIG    1       27.045  27.357   8.445  0.00  0.00    +0.022 C 
ENDBRANCH  14  16
ENDBRANCH   7  12
ENDBRANCH   1   7
BRANCH   4  22
ATOM     22  C   LIG    1       21.424  28.989   8.388  0.00  0.00    +0.054 C 
BRANCH  22  23
ATOM     23  C   LIG    1       20.551  27.753   8.684  0.00  0.00    +0.121 C 
BRANCH  23  24
ATOM     24  N   LIG    1       19.594  28.134   9.714  0.00  0.00    -0.237 N 
ATOM     25  C   LIG    1       19.778  27.689  11.009  0.00  0.00    +0.232 C 
ATOM     26  O   LIG    1       20.302  26.607  11.274  0.00  0.00    -0.274 OA
ATOM     27  C   LIG    1       19.448  28.737  12.080  0.00  0.00    +0.067 C 
ATOM     28  C   LIG    1       20.740  29.573  12.225  0.00  0.00    +0.025 C 
ATOM     29  C   LIG    1       19.155  28.020  13.411  0.00  0.00    +0.025 C 
ATOM     30  C   LIG    1       18.302  29.654  11.670  0.00  0.00    -0.021 A 
ATOM     31  C   LIG    1       17.779  30.615  12.550  0.00  0.00    +0.009 A 
ATOM     32  C   LIG    1       16.764  31.490  12.145  0.00  0.00    +0.046 A 
ATOM     33  C   LIG    1       16.239  31.415  10.858  0.00  0.00    +0.121 A 
ATOM     34  C   LIG    1       16.747  30.467   9.974  0.00  0.00    +0.059 A 
ATOM     35  C   LIG    1       17.784  29.610  10.367  0.00  0.00    +0.045 A 
ATOM     36  C   LIG    1       18.438  28.787   9.326  0.00  0.00    +0.253 C 
ATOM     37  O   LIG    1       18.002  28.770   8.180  0.00  0.00    -0.270 OA
BRANCH  33  38
ATOM     38  O   LIG    1       15.263  32.216  10.336  0.00  0.00    -0.495 OA
ATOM     39  C   LIG    1       14.723  31.834   9.078  0.00  0.00    +0.277 C 
ENDBRANCH  33  38
ENDBRANCH  23  24
ENDBRANCH  22  23
ENDBRANCH   4  22
TORSDOF 7
ENDMDL
MODEL 2
REMARK VINA RESULT:      -9.0      2.597      4.374
REMARK  Name = 
REMARK                            x       y       z     vdW  Elec       q    Type
REMARK                         _______ _______ _______ _____ _____    ______ ____
ROOT
ATOM      1  C   LIG    1       24.214  29.307   5.068  0.00  0.00    +0.109 A 
ATOM      2  C   LIG    1       24.201  28.086   5.744  0.00  0.00    +0.029 A 
ATOM      3  C   LIG    1       23.353  27.915   6.835  0.00  0.00    +0.005 A 
ATOM      4  C   LIG    1       22.526  28.962   7.254  0.00  0.00    -0.046 A 
ATOM      5  C   LIG    1       22.545  30.182   6.549  0.00  0.00    +0.005 A 
ATOM      6  C   LIG    1       23.383  30.358   5.455  0.00  0.00    +0.029 A 
ENDROOT
BRANCH   1   7
ATOM      7  S   LIG    1       25.384  29.573   3.771  0.00  0.00    +0.076 S 
ATOM      8  O   LIG    1       26.079  28.332   3.512  0.00  0.00    -0.150 OA
ATOM      9  O   LIG    1       24.734  30.307   2.708  0.00  0.00    -0.150 OA
BRANCH   7  12
ATOM     10  O   LIG    1       27.534  32.430   5.017  0.00  0.00    -0.251 OA
ATOM     11  C   LIG    1       26.613  31.945   4.384  0.00  0.00    +0.319 C 
ATOM     12  N   LIG    1       26.414  30.590   4.550  0.00  0.00    -0.169 N 
ATOM     13  H   LIG    1       27.085  30.166   5.183  0.00  0.00    +0.178 HD
ATOM     14  N   LIG    1       25.770  32.609   3.552  0.00  0.00    -0.295 N 
ATOM     15  H   LIG    1       25.050  32.057   3.107  0.00  0.00    +0.151 HD
BRANCH  14  16
ATOM     16  C   LIG    1       25.765  34.032   3.228  0.00  0.00    +0.074 C 
ATOM     17  C   LIG    1       24.426  34.560   2.713  0.00  0.00    +0.022 C 
ATOM     18  C   LIG    1       24.169  34.286   1.237  0.00  0.00    +0.002 C 
ATOM     19  C   LIG    1       25.355  34.628   0.334  0.00  0.00    +0.000 C 
ATOM     20  C   LIG    1       26.731  34.218   0.857  0.00  0.00    +0.002 C 
ATOM     21  C   LIG    1       26.930  34.482   2.344  0.00  0.00    +0.022 C 
ENDBRANCH  14  16
ENDBRANCH   7  12
ENDBRANCH   1   7
BRANCH   4  22
ATOM     22  C   LIG    1       21.619  28.879   8.450  0.00  0.00    +0.054 C 
BRANCH  22  23
ATOM     23  C   LIG    1       20.570  27.751   8.520  0.00  0.00    +0.121 C 
BRANCH  23  24
ATOM     24  N   LIG    1       19.624  28.103   9.570  0.00  0.00    -0.237 N 
ATOM     25  C   LIG    1       19.824  27.627  10.851  0.00  0.00    +0.232 C 
ATOM     26  O   LIG    1       20.354  26.541  11.083  0.00  0.00    -0.274 OA
ATOM     27  C   LIG    1       19.504  28.647  11.952  0.00  0.00    +0.067 C 
ATOM     28  C   LIG    1       20.794  29.483  12.102  0.00  0.00    +0.025 C 
ATOM     29  C   LIG    1       19.229  27.896  13.268  0.00  0.00    +0.025 C 
ATOM     30  C   LIG    1       18.350  29.570  11.578  0.00  0.00    -0.021 A 
ATOM     31  C   LIG    1       17.835  30.507  12.488  0.00  0.00    +0.009 A 
ATOM     32  C   LIG    1       16.812  31.388  12.117  0.00  0.00    +0.046 A 
ATOM     33  C   LIG    1       16.272  31.343  10.835  0.00  0.00    +0.121 A 
ATOM     34  C   LIG    1       16.772  30.420   9.921  0.00  0.00    +0.059 A 
ATOM     35  C   LIG    1       17.816  29.556  10.280  0.00  0.00    +0.045 A 
ATOM     36  C   LIG    1       18.461  28.762   9.212  0.00  0.00    +0.253 C 
ATOM     37  O   LIG    1       18.011  28.772   8.071  0.00  0.00    -0.270 OA
BRANCH  33  38
ATOM     38  O   LIG    1       15.287  32.154  10.344  0.00  0.00    -0.495 OA
ATOM     39  C   LIG    1       14.798  31.855   9.043  0.00  0.00    +0.277 C 
ENDBRANCH  33  38
ENDBRANCH  23  24
ENDBRANCH  22  23
ENDBRANCH   4  22
TORSDOF 7
ENDMDL
MODEL 3
REMARK VINA RESULT:      -9.0      2.948      9.827
REMARK  Name = 
REMARK                            x       y       z     vdW  Elec       q    Type
REMARK                         _______ _______ _______ _____ _____    ______ ____
ROOT
ATOM      1  C   LIG    1       19.644  28.805   9.187  0.00  0.00    +0.109 A 
ATOM      2  C   LIG    1       20.417  27.770   8.658  0.00  0.00    +0.029 A 
ATOM      3  C   LIG    1       21.540  28.076   7.894  0.00  0.00    +0.005 A 
ATOM      4  C   LIG    1       21.888  29.409   7.656  0.00  0.00    -0.046 A 
ATOM      5  C   LIG    1       21.102  30.438   8.211  0.00  0.00    +0.005 A 
ATOM      6  C   LIG    1       19.982  30.141   8.980  0.00  0.00    +0.029 A 
ENDROOT
BRANCH   1   7
ATOM      7  S   LIG    1       18.144  28.425  10.040  0.00  0.00    +0.076 S 
ATOM      8  O   LIG    1       17.180  27.929   9.083  0.00  0.00    -0.150 OA
ATOM      9  O   LIG    1       18.469  27.677  11.234  0.00  0.00    -0.150 OA
BRANCH   7  12
ATOM     10  O   LIG    1       17.496  31.752  11.726  0.00  0.00    -0.251 OA
ATOM     11  C   LIG    1       18.077  30.691  11.580  0.00  0.00    +0.319 C 
ATOM     12  N   LIG    1       17.700  29.944  10.483  0.00  0.00    -0.169 N 
ATOM     13  H   LIG    1       16.964  30.383   9.938  0.00  0.00    +0.178 HD
ATOM     14  N   LIG    1       19.053  30.189  12.379  0.00  0.00    -0.295 N 
ATOM     15  H   LIG    1       19.438  29.294  12.112  0.00  0.00    +0.151 HD
BRANCH  14  16
ATOM     16  C   LIG    1       19.630  30.792  13.577  0.00  0.00    +0.074 C 
ATOM     17  C   LIG    1       21.159  30.813  13.602  0.00  0.00    +0.022 C 
ATOM     18  C   LIG    1       21.797  29.498  14.031  0.00  0.00    +0.002 C 
ATOM     19  C   LIG    1       21.167  28.892  15.286  0.00  0.00    +0.000 C 
ATOM     20  C   LIG    1       19.642  28.945  15.360  0.00  0.00    +0.002 C 
ATOM     21  C   LIG    1       19.048  30.267  14.891  0.00  0.00    +0.022 C 
ENDBRANCH  14  16
ENDBRANCH   7  12
ENDBRANCH   1   7
BRANCH   4  22
ATOM     22  C   LIG    1       23.053  29.825   6.803  0.00  0.00    +0.054 C 
BRANCH  22  23
ATOM     23  C   LIG    1       24.182  28.812   6.527  0.00  0.00    +0.121 C 
BRANCH  23  24
ATOM     24  N   LIG    1       25.295  29.549   5.944  0.00  0.00    -0.237 N 
ATOM     25  C   LIG    1       25.369  29.693   4.572  0.00  0.00    +0.232 C 
ATOM     26  O   LIG    1       24.947  28.843   3.789  0.00  0.00    -0.274 OA
ATOM     27  C   LIG    1       25.846  31.078   4.116  0.00  0.00    +0.067 C 
ATOM     28  C   LIG    1       24.570  31.949   4.100  0.00  0.00    +0.025 C 
ATOM     29  C   LIG    1       26.406  30.971   2.686  0.00  0.00    +0.025 C 
ATOM     30  C   LIG    1       26.860  31.693   5.074  0.00  0.00    -0.021 A 
ATOM     31  C   LIG    1       27.495  32.912   4.787  0.00  0.00    +0.009 A 
ATOM     32  C   LIG    1       28.383  33.497   5.697  0.00  0.00    +0.046 A 
ATOM     33  C   LIG    1       28.667  32.870   6.907  0.00  0.00    +0.121 A 
ATOM     34  C   LIG    1       28.045  31.662   7.207  0.00  0.00    +0.059 A 
ATOM     35  C   LIG    1       27.133  31.089   6.310  0.00  0.00    +0.045 A 
ATOM     36  C   LIG    1       26.333  29.934   6.773  0.00  0.00    +0.253 C 
ATOM     37  O   LIG    1       26.553  29.423   7.866  0.00  0.00    -0.270 OA
BRANCH  33  38
ATOM     38  O   LIG    1       29.498  33.341   7.885  0.00  0.00    -0.495 OA
ATOM     39  C   LIG    1       29.442  32.686   9.146  0.00  0.00    +0.277 C 
ENDBRANCH  33  38
ENDBRANCH  23  24
ENDBRANCH  22  23
ENDBRANCH   4  22
TORSDOF 7
ENDMDL
MODEL 4
REMARK VINA RESULT:      -8.9      2.202      3.044
REMARK  Name = 
REMARK                            x       y       z     vdW  Elec       q    Type
REMARK                         _______ _______ _______ _____ _____    ______ ____
ROOT
ATOM      1  C   LIG    1       24.246  29.111   6.624  0.00  0.00    +0.109 A 
ATOM      2  C   LIG    1       24.071  27.786   7.027  0.00  0.00    +0.029 A 
ATOM      3  C   LIG    1       22.873  27.405   7.625  0.00  0.00    +0.005 A 
ATOM      4  C   LIG    1       21.855  28.344   7.823  0.00  0.00    -0.046 A 
ATOM      5  C   LIG    1       22.048  29.672   7.396  0.00  0.00    +0.005 A 
ATOM      6  C   LIG    1       23.238  30.059   6.793  0.00  0.00    +0.029 A 
ENDROOT
BRANCH   1   7
ATOM      7  S   LIG    1       25.812  29.630   5.991  0.00  0.00    +0.076 S 
ATOM      8  O   LIG    1       25.799  29.492   4.552  0.00  0.00    -0.150 OA
ATOM      9  O   LIG    1       26.173  30.879   6.623  0.00  0.00    -0.150 OA
BRANCH   7  12
ATOM     10  O   LIG    1       28.361  27.480   7.785  0.00  0.00    -0.251 OA
ATOM     11  C   LIG    1       27.724  28.502   7.599  0.00  0.00    +0.319 C 
ATOM     12  N   LIG    1       26.758  28.439   6.617  0.00  0.00    -0.169 N 
ATOM     13  H   LIG    1       26.713  27.533   6.161  0.00  0.00    +0.178 HD
ATOM     14  N   LIG    1       27.868  29.675   8.267  0.00  0.00    -0.295 N 
ATOM     15  H   LIG    1       27.252  30.428   7.994  0.00  0.00    +0.151 HD
BRANCH  14  16
ATOM     16  C   LIG    1       28.800  29.983   9.348  0.00  0.00    +0.074 C 
ATOM     17  C   LIG    1       28.526  31.307  10.062  0.00  0.00    +0.022 C 
ATOM     18  C   LIG    1       29.060  32.534   9.335  0.00  0.00    +0.002 C 
ATOM     19  C   LIG    1       30.503  32.380   8.851  0.00  0.00    +0.000 C 
ATOM     20  C   LIG    1       30.858  31.032   8.227  0.00  0.00    +0.002 C 
ATOM     21  C   LIG    1       30.276  29.837   8.970  0.00  0.00    +0.022 C 
ENDBRANCH  14  16
ENDBRANCH   7  12
ENDBRANCH   1   7
BRANCH   4  22
ATOM     22  C   LIG    1       20.553  28.027   8.504  0.00  0.00    +0.054 C 
BRANCH  22  23
ATOM     23  C   LIG    1       20.572  27.273   9.849  0.00  0.00    +0.121 C 
BRANCH  23  24
ATOM     24  N   LIG    1       19.626  27.939  10.733  0.00  0.00    -0.237 N 
ATOM     25  C   LIG    1       19.786  27.833  12.102  0.00  0.00    +0.232 C 
ATOM     26  O   LIG    1       20.267  26.837  12.641  0.00  0.00    -0.274 OA
ATOM     27  C   LIG    1       19.493  29.132  12.865  0.00  0.00    +0.067 C 
ATOM     28  C   LIG    1       20.815  29.929  12.810  0.00  0.00    +0.025 C 
ATOM     29  C   LIG    1       19.167  28.790  14.330  0.00  0.00    +0.025 C 
ATOM     30  C   LIG    1       18.385  29.955  12.218  0.00  0.00    -0.021 A 
ATOM     31  C   LIG    1       17.897  31.127  12.816  0.00  0.00    +0.009 A 
ATOM     32  C   LIG    1       16.918  31.906  12.188  0.00  0.00    +0.046 A 
ATOM     33  C   LIG    1       16.396  31.524  10.955  0.00  0.00    +0.121 A 
ATOM     34  C   LIG    1       16.870  30.364  10.349  0.00  0.00    +0.059 A 
ATOM     35  C   LIG    1       17.871  29.598  10.962  0.00  0.00    +0.045 A 
ATOM     36  C   LIG    1       18.498  28.513  10.175  0.00  0.00    +0.253 C 
ATOM     37  O   LIG    1       18.066  28.220   9.066  0.00  0.00    -0.270 OA
BRANCH  33  38
ATOM     38  O   LIG    1       15.454  32.200  10.232  0.00  0.00    -0.495 OA
ATOM     39  C   LIG    1       14.917  31.536   9.096  0.00  0.00    +0.277 C 
ENDBRANCH  33  38
ENDBRANCH  23  24
ENDBRANCH  22  23
ENDBRANCH   4  22
TORSDOF 7
ENDMDL
MODEL 5
REMARK VINA RESULT:      -8.9      1.638      2.380
REMARK  Name = 
REMARK                            x       y       z     vdW  Elec       q    Type
REMARK                         _______ _______ _______ _____ _____    ______ ____
ROOT
ATOM      1  C   LIG    1       24.553  28.523   5.576  0.00  0.00    +0.109 A 
ATOM      2  C   LIG    1       24.418  27.495   6.510  0.00  0.00    +0.029 A 
ATOM      3  C   LIG    1       23.395  27.554   7.452  0.00  0.00    +0.005 A 
ATOM      4  C   LIG    1       22.513  28.640   7.466  0.00  0.00    -0.046 A 
ATOM      5  C   LIG    1       22.659  29.660   6.506  0.00  0.00    +0.005 A 
ATOM      6  C   LIG    1       23.673  29.605   5.558  0.00  0.00    +0.029 A 
ENDROOT
BRANCH   1   7
ATOM      7  S   LIG    1       25.929  28.520   4.468  0.00  0.00    +0.076 S 
ATOM      8  O   LIG    1       27.093  28.035   5.176  0.00  0.00    -0.150 OA
ATOM      9  O   LIG    1       25.511  27.931   3.216  0.00  0.00    -0.150 OA
BRANCH   7  12
ATOM     10  O   LIG    1       26.694  32.224   4.646  0.00  0.00    -0.251 OA
ATOM     11  C   LIG    1       26.852  31.055   4.951  0.00  0.00    +0.319 C 
ATOM     12  N   LIG    1       26.095  30.141   4.249  0.00  0.00    -0.169 N 
ATOM     13  H   LIG    1       25.484  30.575   3.563  0.00  0.00    +0.178 HD
ATOM     14  N   LIG    1       27.699  30.577   5.898  0.00  0.00    -0.295 N 
ATOM     15  H   LIG    1       27.715  29.575   6.023  0.00  0.00    +0.151 HD
BRANCH  14  16
ATOM     16  C   LIG    1       28.607  31.334   6.755  0.00  0.00    +0.074 C 
ATOM     17  C   LIG    1       29.660  30.486   7.468  0.00  0.00    +0.022 C 
ATOM     18  C   LIG    1       29.156  29.787   8.724  0.00  0.00    +0.002 C 
ATOM     19  C   LIG    1       28.364  30.702   9.659  0.00  0.00    +0.000 C 
ATOM     20  C   LIG    1       27.374  31.650   8.984  0.00  0.00    +0.002 C 
ATOM     21  C   LIG    1       27.910  32.300   7.715  0.00  0.00    +0.022 C 
ENDBRANCH  14  16
ENDBRANCH   7  12
ENDBRANCH   1   7
BRANCH   4  22
ATOM     22  C   LIG    1       21.415  28.807   8.478  0.00  0.00    +0.054 C 
BRANCH  22  23
ATOM     23  C   LIG    1       20.476  27.619   8.771  0.00  0.00    +0.121 C 
BRANCH  23  24
ATOM     24  N   LIG    1       19.526  28.056   9.784  0.00  0.00    -0.237 N 
ATOM     25  C   LIG    1       19.696  27.651  11.094  0.00  0.00    +0.232 C 
ATOM     26  O   LIG    1       20.195  26.567  11.397  0.00  0.00    -0.274 OA
ATOM     27  C   LIG    1       19.388  28.741  12.129  0.00  0.00    +0.067 C 
ATOM     28  C   LIG    1       20.698  29.552  12.249  0.00  0.00    +0.025 C 
ATOM     29  C   LIG    1       19.077  28.076  13.482  0.00  0.00    +0.025 C 
ATOM     30  C   LIG    1       18.264  29.670  11.684  0.00  0.00    -0.021 A 
ATOM     31  C   LIG    1       17.762  30.671  12.531  0.00  0.00    +0.009 A 
ATOM     32  C   LIG    1       16.768  31.555  12.094  0.00  0.00    +0.046 A 
ATOM     33  C   LIG    1       16.244  31.449  10.809  0.00  0.00    +0.121 A 
ATOM     34  C   LIG    1       16.732  30.461   9.958  0.00  0.00    +0.059 A 
ATOM     35  C   LIG    1       17.748  29.594  10.382  0.00  0.00    +0.045 A 
ATOM     36  C   LIG    1       18.386  28.722   9.371  0.00  0.00    +0.253 C 
ATOM     37  O   LIG    1       17.951  28.677   8.226  0.00  0.00    -0.270 OA
BRANCH  33  38
ATOM     38  O   LIG    1       15.287  32.255  10.258  0.00  0.00    -0.495 OA
ATOM     39  C   LIG    1       14.695  31.811   9.044  0.00  0.00    +0.277 C 
ENDBRANCH  33  38
ENDBRANCH  23  24
ENDBRANCH  22  23
ENDBRANCH   4  22
TORSDOF 7
ENDMDL
MODEL 6
REMARK VINA RESULT:      -8.8      2.758      4.483
REMARK  Name = 
REMARK                            x       y       z     vdW  Elec       q    Type
REMARK                         _______ _______ _______ _____ _____    ______ ____
ROOT
ATOM      1  C   LIG    1       24.221  29.053   5.145  0.00  0.00    +0.109 A 
ATOM      2  C   LIG    1       24.135  27.866   5.874  0.00  0.00    +0.029 A 
ATOM      3  C   LIG    1       23.252  27.783   6.947  0.00  0.00    +0.005 A 
ATOM      4  C   LIG    1       22.462  28.884   7.295  0.00  0.00    -0.046 A 
ATOM      5  C   LIG    1       22.555  30.067   6.538  0.00  0.00    +0.005 A 
ATOM      6  C   LIG    1       23.429  30.156   5.461  0.00  0.00    +0.029 A 
ENDROOT
BRANCH   1   7
ATOM      7  S   LIG    1       25.436  29.208   3.872  0.00  0.00    +0.076 S 
ATOM      8  O   LIG    1       26.734  28.900   4.429  0.00  0.00    -0.150 OA
ATOM      9  O   LIG    1       24.949  28.539   2.686  0.00  0.00    -0.150 OA
BRANCH   7  12
ATOM     10  O   LIG    1       25.323  32.752   2.545  0.00  0.00    -0.251 OA
ATOM     11  C   LIG    1       25.244  31.541   2.446  0.00  0.00    +0.319 C 
ATOM     12  N   LIG    1       25.352  30.831   3.623  0.00  0.00    -0.169 N 
ATOM     13  H   LIG    1       25.499  31.426   4.433  0.00  0.00    +0.178 HD
ATOM     14  N   LIG    1       25.050  30.837   1.301  0.00  0.00    -0.295 N 
ATOM     15  H   LIG    1       25.000  29.832   1.393  0.00  0.00    +0.151 HD
BRANCH  14  16
ATOM     16  C   LIG    1       24.891  31.355  -0.055  0.00  0.00    +0.074 C 
ATOM     17  C   LIG    1       23.635  32.201  -0.266  0.00  0.00    +0.022 C 
ATOM     18  C   LIG    1       22.365  31.391  -0.493  0.00  0.00    +0.002 C 
ATOM     19  C   LIG    1       22.530  30.264  -1.513  0.00  0.00    +0.000 C 
ATOM     20  C   LIG    1       23.823  29.457  -1.414  0.00  0.00    +0.002 C 
ATOM     21  C   LIG    1       25.061  30.306  -1.156  0.00  0.00    +0.022 C 
ENDBRANCH  14  16
ENDBRANCH   7  12
ENDBRANCH   1   7
BRANCH   4  22
ATOM     22  C   LIG    1       21.521  28.895   8.467  0.00  0.00    +0.054 C 
BRANCH  22  23
ATOM     23  C   LIG    1       20.564  27.704   8.674  0.00  0.00    +0.121 C 
BRANCH  23  24
ATOM     24  N   LIG    1       19.606  28.091   9.700  0.00  0.00    -0.237 N 
ATOM     25  C   LIG    1       19.786  27.652  10.998  0.00  0.00    +0.232 C 
ATOM     26  O   LIG    1       20.309  26.572  11.270  0.00  0.00    -0.274 OA
ATOM     27  C   LIG    1       19.455  28.706  12.063  0.00  0.00    +0.067 C 
ATOM     28  C   LIG    1       20.746  29.542  12.206  0.00  0.00    +0.025 C 
ATOM     29  C   LIG    1       19.159  27.996  13.397  0.00  0.00    +0.025 C 
ATOM     30  C   LIG    1       18.310  29.621  11.645  0.00  0.00    -0.021 A 
ATOM     31  C   LIG    1       17.786  30.587  12.519  0.00  0.00    +0.009 A 
ATOM     32  C   LIG    1       16.772  31.460  12.109  0.00  0.00    +0.046 A 
ATOM     33  C   LIG    1       16.249  31.378  10.821  0.00  0.00    +0.121 A 
ATOM     34  C   LIG    1       16.759  30.426   9.942  0.00  0.00    +0.059 A 
ATOM     35  C   LIG    1       17.794  29.571  10.342  0.00  0.00    +0.045 A 
ATOM     36  C   LIG    1       18.451  28.742   9.307  0.00  0.00    +0.253 C 
ATOM     37  O   LIG    1       18.016  28.719   8.160  0.00  0.00    -0.270 OA
BRANCH  33  38
ATOM     38  O   LIG    1       15.275  32.178  10.293  0.00  0.00    -0.495 OA
ATOM     39  C   LIG    1       14.774  31.819   9.011  0.00  0.00    +0.277 C 
ENDBRANCH  33  38
ENDBRANCH  23  24
ENDBRANCH  22  23
ENDBRANCH   4  22
TORSDOF 7
ENDMDL
MODEL 7
REMARK VINA RESULT:      -8.5      2.550      4.255
REMARK  Name = 
REMARK                            x       y       z     vdW  Elec       q    Type
REMARK                         _______ _______ _______ _____ _____    ______ ____
ROOT
ATOM      1  C   LIG    1       24.321  29.190   5.046  0.00  0.00    +0.109 A 
ATOM      2  C   LIG    1       24.160  28.007   5.769  0.00  0.00    +0.029 A 
ATOM      3  C   LIG    1       23.209  27.949   6.785  0.00  0.00    +0.005 A 
ATOM      4  C   LIG    1       22.426  29.070   7.081  0.00  0.00    -0.046 A 
ATOM      5  C   LIG    1       22.596  30.249   6.330  0.00  0.00    +0.005 A 
ATOM      6  C   LIG    1       23.538  30.313   5.310  0.00  0.00    +0.029 A 
ENDROOT
BRANCH   1   7
ATOM      7  S   LIG    1       25.616  29.312   3.851  0.00  0.00    +0.076 S 
ATOM      8  O   LIG    1       26.587  30.276   4.317  0.00  0.00    -0.150 OA
ATOM      9  O   LIG    1       26.011  27.977   3.461  0.00  0.00    -0.150 OA
BRANCH   7  12
ATOM     10  O   LIG    1       24.031  31.523   1.218  0.00  0.00    -0.251 OA
ATOM     11  C   LIG    1       24.871  31.243   2.055  0.00  0.00    +0.319 C 
ATOM     12  N   LIG    1       24.771  29.986   2.613  0.00  0.00    -0.169 N 
ATOM     13  H   LIG    1       23.985  29.453   2.251  0.00  0.00    +0.178 HD
ATOM     14  N   LIG    1       25.887  32.040   2.475  0.00  0.00    -0.295 N 
ATOM     15  H   LIG    1       26.505  31.651   3.173  0.00  0.00    +0.151 HD
BRANCH  14  16
ATOM     16  C   LIG    1       26.210  33.392   2.029  0.00  0.00    +0.074 C 
ATOM     17  C   LIG    1       27.447  33.485   1.134  0.00  0.00    +0.022 C 
ATOM     18  C   LIG    1       28.769  33.484   1.890  0.00  0.00    +0.002 C 
ATOM     19  C   LIG    1       28.795  34.444   3.080  0.00  0.00    +0.000 C 
ATOM     20  C   LIG    1       27.536  34.469   3.945  0.00  0.00    +0.002 C 
ATOM     21  C   LIG    1       26.239  34.435   3.147  0.00  0.00    +0.022 C 
ENDBRANCH  14  16
ENDBRANCH   7  12
ENDBRANCH   1   7
BRANCH   4  22
ATOM     22  C   LIG    1       21.415  29.107   8.192  0.00  0.00    +0.054 C 
BRANCH  22  23
ATOM     23  C   LIG    1       20.727  27.798   8.627  0.00  0.00    +0.121 C 
BRANCH  23  24
ATOM     24  N   LIG    1       19.759  28.138   9.660  0.00  0.00    -0.237 N 
ATOM     25  C   LIG    1       19.933  27.649  10.941  0.00  0.00    +0.232 C 
ATOM     26  O   LIG    1       20.461  26.561  11.173  0.00  0.00    -0.274 OA
ATOM     27  C   LIG    1       19.589  28.657  12.045  0.00  0.00    +0.067 C 
ATOM     28  C   LIG    1       20.875  29.493  12.230  0.00  0.00    +0.025 C 
ATOM     29  C   LIG    1       19.289  27.893  13.347  0.00  0.00    +0.025 C 
ATOM     30  C   LIG    1       18.442  29.583  11.656  0.00  0.00    -0.021 A 
ATOM     31  C   LIG    1       17.907  30.510  12.565  0.00  0.00    +0.009 A 
ATOM     32  C   LIG    1       16.891  31.393  12.183  0.00  0.00    +0.046 A 
ATOM     33  C   LIG    1       16.377  31.360  10.889  0.00  0.00    +0.121 A 
ATOM     34  C   LIG    1       16.897  30.447   9.977  0.00  0.00    +0.059 A 
ATOM     35  C   LIG    1       17.935  29.582  10.348  0.00  0.00    +0.045 A 
ATOM     36  C   LIG    1       18.603  28.798   9.285  0.00  0.00    +0.253 C 
ATOM     37  O   LIG    1       18.176  28.820   8.136  0.00  0.00    -0.270 OA
BRANCH  33  38
ATOM     38  O   LIG    1       15.402  32.175  10.387  0.00  0.00    -0.495 OA
ATOM     39  C   LIG    1       14.660  31.681   9.279  0.00  0.00    +0.277 C 
ENDBRANCH  33  38
ENDBRANCH  23  24
ENDBRANCH  22  23
ENDBRANCH   4  22
TORSDOF 7
ENDMDL
MODEL 8
REMARK VINA RESULT:      -8.5      2.185      9.357
REMARK  Name = 
REMARK                            x       y       z     vdW  Elec       q    Type
REMARK                         _______ _______ _______ _____ _____    ______ ____
ROOT
ATOM      1  C   LIG    1       21.676  28.472   7.735  0.00  0.00    +0.109 A 
ATOM      2  C   LIG    1       21.911  29.841   7.861  0.00  0.00    +0.029 A 
ATOM      3  C   LIG    1       22.571  30.520   6.840  0.00  0.00    +0.005 A 
ATOM      4  C   LIG    1       22.999  29.833   5.700  0.00  0.00    -0.046 A 
ATOM      5  C   LIG    1       22.739  28.453   5.587  0.00  0.00    +0.005 A 
ATOM      6  C   LIG    1       22.075  27.769   6.598  0.00  0.00    +0.029 A 
ENDROOT
BRANCH   1   7
ATOM      7  S   LIG    1       20.962  27.581   9.084  0.00  0.00    +0.076 S 
ATOM      8  O   LIG    1       21.131  26.165   8.845  0.00  0.00    -0.150 OA
ATOM      9  O   LIG    1       21.397  28.191  10.320  0.00  0.00    -0.150 OA
BRANCH   7  12
ATOM     10  O   LIG    1       17.273  28.398   9.313  0.00  0.00    -0.251 OA
ATOM     11  C   LIG    1       18.399  28.274   9.761  0.00  0.00    +0.319 C 
ATOM     12  N   LIG    1       19.381  27.962   8.845  0.00  0.00    -0.169 N 
ATOM     13  H   LIG    1       19.024  27.863   7.899  0.00  0.00    +0.178 HD
ATOM     14  N   LIG    1       18.771  28.423  11.058  0.00  0.00    -0.295 N 
ATOM     15  H   LIG    1       19.751  28.292  11.263  0.00  0.00    +0.151 HD
BRANCH  14  16
ATOM     16  C   LIG    1       17.927  28.765  12.200  0.00  0.00    +0.074 C 
ATOM     17  C   LIG    1       17.829  30.263  12.489  0.00  0.00    +0.022 C 
ATOM     18  C   LIG    1       19.009  30.829  13.269  0.00  0.00    +0.002 C 
ATOM     19  C   LIG    1       19.399  29.990  14.486  0.00  0.00    +0.000 C 
ATOM     20  C   LIG    1       19.405  28.476  14.279  0.00  0.00    +0.002 C 
ATOM     21  C   LIG    1       18.224  27.961  13.467  0.00  0.00    +0.022 C 
ENDBRANCH  14  16
ENDBRANCH   7  12
ENDBRANCH   1   7
BRANCH   4  22
ATOM     22  C   LIG    1       23.761  30.478   4.576  0.00  0.00    +0.054 C 
BRANCH  22  23
ATOM     23  C   LIG    1       24.791  29.644   3.790  0.00  0.00    +0.121 C 
BRANCH  23  24
ATOM     24  N   LIG    1       25.841  29.258   4.724  0.00  0.00    -0.237 N 
ATOM     25  C   LIG    1       26.768  30.199   5.129  0.00  0.00    +0.232 C 
ATOM     26  O   LIG    1       27.141  31.122   4.405  0.00  0.00    -0.274 OA
ATOM     27  C   LIG    1       27.145  30.103   6.613  0.00  0.00    +0.067 C 
ATOM     28  C   LIG    1       26.056  30.915   7.349  0.00  0.00    +0.025 C 
ATOM     29  C   LIG    1       28.513  30.775   6.829  0.00  0.00    +0.025 C 
ATOM     30  C   LIG    1       27.133  28.669   7.129  0.00  0.00    -0.021 A 
ATOM     31  C   LIG    1       27.547  28.355   8.434  0.00  0.00    +0.009 A 
ATOM     32  C   LIG    1       27.481  27.043   8.917  0.00  0.00    +0.046 A 
ATOM     33  C   LIG    1       27.015  26.014   8.103  0.00  0.00    +0.121 A 
ATOM     34  C   LIG    1       26.601  26.309   6.808  0.00  0.00    +0.059 A 
ATOM     35  C   LIG    1       26.638  27.626   6.331  0.00  0.00    +0.045 A 
ATOM     36  C   LIG    1       25.977  27.919   5.040  0.00  0.00    +0.253 C 
ATOM     37  O   LIG    1       25.519  27.010   4.356  0.00  0.00    -0.270 OA
BRANCH  33  38
ATOM     38  O   LIG    1       26.886  24.700   8.457  0.00  0.00    -0.495 OA
ATOM     39  C   LIG    1       26.916  23.745   7.404  0.00  0.00    +0.277 C 
ENDBRANCH  33  38
ENDBRANCH  23  24
ENDBRANCH  22  23
ENDBRANCH   4  22
TORSDOF 7
ENDMDL
MODEL 9
REMARK VINA RESULT:      -8.2      1.551      2.255
REMARK  Name = 
REMARK                            x       y       z     vdW  Elec       q    Type
REMARK                         _______ _______ _______ _____ _____    ______ ____
ROOT
ATOM      1  C   LIG    1       24.406  28.935   5.268  0.00  0.00    +0.109 A 
ATOM      2  C   LIG    1       24.071  27.741   5.906  0.00  0.00    +0.029 A 
ATOM      3  C   LIG    1       23.068  27.738   6.872  0.00  0.00    +0.005 A 
ATOM      4  C   LIG    1       22.407  28.925   7.203  0.00  0.00    -0.046 A 
ATOM      5  C   LIG    1       22.752  30.117   6.537  0.00  0.00    +0.005 A 
ATOM      6  C   LIG    1       23.747  30.127   5.567  0.00  0.00    +0.029 A 
ENDROOT
BRANCH   1   7
ATOM      7  S   LIG    1       25.768  28.970   4.143  0.00  0.00    +0.076 S 
ATOM      8  O   LIG    1       25.818  30.272   3.516  0.00  0.00    -0.150 OA
ATOM      9  O   LIG    1       26.926  28.410   4.803  0.00  0.00    -0.150 OA
BRANCH   7  12
ATOM     10  O   LIG    1       25.113  26.028   1.852  0.00  0.00    -0.251 OA
ATOM     11  C   LIG    1       25.598  26.572   2.829  0.00  0.00    +0.319 C 
ATOM     12  N   LIG    1       25.225  27.883   3.036  0.00  0.00    -0.169 N 
ATOM     13  H   LIG    1       24.591  28.233   2.324  0.00  0.00    +0.178 HD
ATOM     14  N   LIG    1       26.450  26.009   3.724  0.00  0.00    -0.295 N 
ATOM     15  H   LIG    1       26.754  26.597   4.487  0.00  0.00    +0.151 HD
BRANCH  14  16
ATOM     16  C   LIG    1       26.973  24.646   3.730  0.00  0.00    +0.074 C 
ATOM     17  C   LIG    1       26.040  23.612   4.361  0.00  0.00    +0.022 C 
ATOM     18  C   LIG    1       26.087  23.571   5.883  0.00  0.00    +0.002 C 
ATOM     19  C   LIG    1       27.507  23.551   6.452  0.00  0.00    +0.000 C 
ATOM     20  C   LIG    1       28.508  24.490   5.782  0.00  0.00    +0.002 C 
ATOM     21  C   LIG    1       28.402  24.521   4.263  0.00  0.00    +0.022 C 
ENDBRANCH  14  16
ENDBRANCH   7  12
ENDBRANCH   1   7
BRANCH   4  22
ATOM     22  C   LIG    1       21.349  29.019   8.267  0.00  0.00    +0.054 C 
BRANCH  22  23
ATOM     23  C   LIG    1       20.484  27.782   8.579  0.00  0.00    +0.121 C 
BRANCH  23  24
ATOM     24  N   LIG    1       19.553  28.157   9.634  0.00  0.00    -0.237 N 
ATOM     25  C   LIG    1       19.790  27.737  10.929  0.00  0.00    +0.232 C 
ATOM     26  O   LIG    1       20.348  26.673  11.193  0.00  0.00    -0.274 OA
ATOM     27  C   LIG    1       19.470  28.795  11.994  0.00  0.00    +0.067 C 
ATOM     28  C   LIG    1       20.745  29.663  12.082  0.00  0.00    +0.025 C 
ATOM     29  C   LIG    1       19.239  28.093  13.344  0.00  0.00    +0.025 C 
ATOM     30  C   LIG    1       18.290  29.678  11.607  0.00  0.00    -0.021 A 
ATOM     31  C   LIG    1       17.773  30.641  12.489  0.00  0.00    +0.009 A 
ATOM     32  C   LIG    1       16.725  31.484  12.105  0.00  0.00    +0.046 A 
ATOM     33  C   LIG    1       16.159  31.376  10.838  0.00  0.00    +0.121 A 
ATOM     34  C   LIG    1       16.661  30.427   9.952  0.00  0.00    +0.059 A 
ATOM     35  C   LIG    1       17.730  29.600  10.323  0.00  0.00    +0.045 A 
ATOM     36  C   LIG    1       18.370  28.776   9.274  0.00  0.00    +0.253 C 
ATOM     37  O   LIG    1       17.896  28.730   8.144  0.00  0.00    -0.270 OA
BRANCH  33  38
ATOM     38  O   LIG    1       15.148  32.146  10.336  0.00  0.00    -0.495 OA
ATOM     39  C   LIG    1       14.776  31.915   8.983  0.00  0.00    +0.277 C 
ENDBRANCH  33  38
ENDBRANCH  23  24
ENDBRANCH  22  23
ENDBRANCH   4  22
TORSDOF 7
ENDMDL
