MODEL 1
REMARK VINA RESULT:     -10.0      0.000      0.000
REMARK  Name = 
REMARK                            x       y       z     vdW  Elec       q    Type
REMARK                         _______ _______ _______ _____ _____    ______ ____
ROOT
ATOM      1  C   LIG    1       32.827  -3.012  21.631  0.00  0.00    +0.109 A 
ATOM      2  C   LIG    1       33.863  -3.593  22.363  0.00  0.00    +0.029 A 
ATOM      3  C   LIG    1       33.965  -3.339  23.728  0.00  0.00    +0.005 A 
ATOM      4  C   LIG    1       33.038  -2.502  24.359  0.00  0.00    -0.046 A 
ATOM      5  C   LIG    1       31.993  -1.936  23.604  0.00  0.00    +0.005 A 
ATOM      6  C   LIG    1       31.880  -2.190  22.242  0.00  0.00    +0.029 A 
ENDROOT
BRANCH   1   7
ATOM      7  S   LIG    1       32.773  -3.221  19.878  0.00  0.00    +0.076 S 
ATOM      8  O   LIG    1       31.398  -3.131  19.442  0.00  0.00    -0.150 OA
ATOM      9  O   LIG    1       33.804  -2.400  19.284  0.00  0.00    -0.150 OA
BRANCH   7  12
ATOM     10  O   LIG    1       34.079  -6.648  18.938  0.00  0.00    -0.251 OA
ATOM     11  C   LIG    1       33.976  -5.441  18.812  0.00  0.00    +0.319 C 
ATOM     12  N   LIG    1       33.244  -4.793  19.785  0.00  0.00    -0.169 N 
ATOM     13  H   LIG    1       32.869  -5.425  20.486  0.00  0.00    +0.178 HD
ATOM     14  N   LIG    1       34.518  -4.685  17.823  0.00  0.00    -0.295 N 
ATOM     15  H   LIG    1       34.344  -3.691  17.869  0.00  0.00    +0.151 HD
BRANCH  14  16
ATOM     16  C   LIG    1       35.338  -5.130  16.701  0.00  0.00    +0.074 C 
ATOM     17  C   LIG    1       35.919  -3.998  15.852  0.00  0.00    +0.022 C 
ATOM     18  C   LIG    1       34.947  -3.418  14.832  0.00  0.00    +0.002 C 
ATOM     19  C   LIG    1       34.204  -4.480  14.020  0.00  0.00    +0.000 C 
ATOM     20  C   LIG    1       33.698  -5.688  14.806  0.00  0.00    +0.002 C 
ATOM     21  C   LIG    1       34.691  -6.213  15.835  0.00  0.00    +0.022 C 
ENDBRANCH  14  16
ENDBRANCH   7  12
ENDBRANCH   1   7
BRANCH   4  22
ATOM     22  C   LIG    1       33.105  -2.136  25.815  0.00  0.00    +0.054 C 
BRANCH  22  23
ATOM     23  C   LIG    1       32.254  -2.926  26.829  0.00  0.00    +0.121 C 
BRANCH  23  24
ATOM     24  N   LIG    1       31.462  -1.961  27.578  0.00  0.00    -0.237 N 
ATOM     25  C   LIG    1       32.096  -1.089  28.443  0.00  0.00    +0.232 C 
ATOM     26  O   LIG    1       33.122  -1.385  29.054  0.00  0.00    -0.274 OA
ATOM     27  C   LIG    1       31.520   0.333  28.427  0.00  0.00    +0.067 C 
ATOM     28  C   LIG    1       32.237   1.036  27.253  0.00  0.00    +0.025 C 
ATOM     29  C   LIG    1       31.889   1.039  29.744  0.00  0.00    +0.025 C 
ATOM     30  C   LIG    1       30.016   0.353  28.178  0.00  0.00    -0.021 A 
ATOM     31  C   LIG    1       29.280   1.548  28.227  0.00  0.00    +0.009 A 
ATOM     32  C   LIG    1       27.909   1.565  27.943  0.00  0.00    +0.046 A 
ATOM     33  C   LIG    1       27.241   0.387  27.619  0.00  0.00    +0.121 A 
ATOM     34  C   LIG    1       27.957  -0.805  27.567  0.00  0.00    +0.059 A 
ATOM     35  C   LIG    1       29.335  -0.820  27.822  0.00  0.00    +0.045 A 
ATOM     36  C   LIG    1       30.084  -2.063  27.529  0.00  0.00    +0.253 C 
ATOM     37  O   LIG    1       29.491  -3.081  27.190  0.00  0.00    -0.270 OA
BRANCH  33  38
ATOM     38  O   LIG    1       25.916   0.270  27.306  0.00  0.00    -0.495 OA
ATOM     39  C   LIG    1       25.527  -0.887  26.578  0.00  0.00    +0.277 C 
ENDBRANCH  33  38
ENDBRANCH  23  24
ENDBRANCH  22  23
ENDBRANCH   4  22
TORSDOF 7
ENDMDL
MODEL 2
REMARK VINA RESULT:     -10.0      0.998      1.497
REMARK  Name = 
REMARK                            x       y       z     vdW  Elec       q    Type
REMARK                         _______ _______ _______ _____ _____    ______ ____
ROOT
ATOM      1  C   LIG    1       32.849  -3.051  21.979  0.00  0.00    +0.109 A 
ATOM      2  C   LIG    1       33.814  -3.654  22.787  0.00  0.00    +0.029 A 
ATOM      3  C   LIG    1       33.896  -3.305  24.133  0.00  0.00    +0.005 A 
ATOM      4  C   LIG    1       33.021  -2.353  24.667  0.00  0.00    -0.046 A 
ATOM      5  C   LIG    1       32.047  -1.768  23.837  0.00  0.00    +0.005 A 
ATOM      6  C   LIG    1       31.954  -2.115  22.494  0.00  0.00    +0.029 A 
ENDROOT
BRANCH   1   7
ATOM      7  S   LIG    1       32.830  -3.389  20.245  0.00  0.00    +0.076 S 
ATOM      8  O   LIG    1       33.447  -4.676  20.016  0.00  0.00    -0.150 OA
ATOM      9  O   LIG    1       31.514  -3.084  19.730  0.00  0.00    -0.150 OA
BRANCH   7  12
ATOM     10  O   LIG    1       35.505  -1.264  18.612  0.00  0.00    -0.251 OA
ATOM     11  C   LIG    1       34.766  -2.230  18.690  0.00  0.00    +0.319 C 
ATOM     12  N   LIG    1       33.869  -2.220  19.737  0.00  0.00    -0.169 N 
ATOM     13  H   LIG    1       33.953  -1.396  20.324  0.00  0.00    +0.178 HD
ATOM     14  N   LIG    1       34.740  -3.293  17.846  0.00  0.00    -0.295 N 
ATOM     15  H   LIG    1       34.058  -4.011  18.047  0.00  0.00    +0.151 HD
BRANCH  14  16
ATOM     16  C   LIG    1       35.570  -3.525  16.667  0.00  0.00    +0.074 C 
ATOM     17  C   LIG    1       34.930  -3.093  15.347  0.00  0.00    +0.022 C 
ATOM     18  C   LIG    1       33.940  -4.099  14.772  0.00  0.00    +0.002 C 
ATOM     19  C   LIG    1       34.462  -5.536  14.765  0.00  0.00    +0.000 C 
ATOM     20  C   LIG    1       35.208  -5.983  16.021  0.00  0.00    +0.002 C 
ATOM     21  C   LIG    1       36.161  -4.933  16.578  0.00  0.00    +0.022 C 
ENDBRANCH  14  16
ENDBRANCH   7  12
ENDBRANCH   1   7
BRANCH   4  22
ATOM     22  C   LIG    1       33.074  -1.884  26.094  0.00  0.00    +0.054 C 
BRANCH  22  23
ATOM     23  C   LIG    1       32.311  -2.676  27.175  0.00  0.00    +0.121 C 
BRANCH  23  24
ATOM     24  N   LIG    1       31.430  -1.740  27.858  0.00  0.00    -0.237 N 
ATOM     25  C   LIG    1       31.969  -0.808  28.724  0.00  0.00    +0.232 C 
ATOM     26  O   LIG    1       32.982  -1.024  29.389  0.00  0.00    -0.274 OA
ATOM     27  C   LIG    1       31.311   0.575  28.639  0.00  0.00    +0.067 C 
ATOM     28  C   LIG    1       32.039   1.288  27.478  0.00  0.00    +0.025 C 
ATOM     29  C   LIG    1       31.575   1.339  29.949  0.00  0.00    +0.025 C 
ATOM     30  C   LIG    1       29.822   0.497  28.322  0.00  0.00    -0.021 A 
ATOM     31  C   LIG    1       29.014   1.646  28.301  0.00  0.00    +0.009 A 
ATOM     32  C   LIG    1       27.660   1.571  27.955  0.00  0.00    +0.046 A 
ATOM     33  C   LIG    1       27.079   0.347  27.638  0.00  0.00    +0.121 A 
ATOM     34  C   LIG    1       27.866  -0.801  27.654  0.00  0.00    +0.059 A 
ATOM     35  C   LIG    1       29.229  -0.725  27.971  0.00  0.00    +0.045 A 
ATOM     36  C   LIG    1       30.063  -1.927  27.750  0.00  0.00    +0.253 C 
ATOM     37  O   LIG    1       29.549  -2.989  27.416  0.00  0.00    -0.270 OA
BRANCH  33  38
ATOM     38  O   LIG    1       25.779   0.141  27.269  0.00  0.00    -0.495 OA
ATOM     39  C   LIG    1       25.520  -0.970  26.421  0.00  0.00    +0.277 C 
ENDBRANCH  33  38
ENDBRANCH  23  24
ENDBRANCH  22  23
ENDBRANCH   4  22
TORSDOF 7
ENDMDL
MODEL 3
REMARK VINA RESULT:      -9.6      2.752     11.117
REMARK  Name = 
REMARK                            x       y       z     vdW  Elec       q    Type
REMARK                         _______ _______ _______ _____ _____    ______ ____
ROOT
ATOM      1  C   LIG    1       31.943  -1.313  26.176  0.00  0.00    +0.109 A 
ATOM      2  C   LIG    1       31.616  -0.525  25.071  0.00  0.00    +0.029 A 
ATOM      3  C   LIG    1       31.900  -0.992  23.790  0.00  0.00    +0.005 A 
ATOM      4  C   LIG    1       32.512  -2.237  23.614  0.00  0.00    -0.046 A 
ATOM      5  C   LIG    1       32.821  -3.021  24.743  0.00  0.00    +0.005 A 
ATOM      6  C   LIG    1       32.535  -2.566  26.024  0.00  0.00    +0.029 A 
ENDROOT
BRANCH   1   7
ATOM      7  S   LIG    1       31.710  -0.668  27.805  0.00  0.00    +0.076 S 
ATOM      8  O   LIG    1       31.008  -1.653  28.597  0.00  0.00    -0.150 OA
ATOM      9  O   LIG    1       32.958  -0.092  28.255  0.00  0.00    -0.150 OA
BRANCH   7  12
ATOM     10  O   LIG    1       28.847   1.573  26.751  0.00  0.00    -0.251 OA
ATOM     11  C   LIG    1       29.350   0.506  27.057  0.00  0.00    +0.319 C 
ATOM     12  N   LIG    1       30.668   0.555  27.459  0.00  0.00    -0.169 N 
ATOM     13  H   LIG    1       31.056   1.494  27.435  0.00  0.00    +0.178 HD
ATOM     14  N   LIG    1       28.738  -0.705  27.048  0.00  0.00    -0.295 N 
ATOM     15  H   LIG    1       29.297  -1.494  27.339  0.00  0.00    +0.151 HD
BRANCH  14  16
ATOM     16  C   LIG    1       27.358  -1.011  26.681  0.00  0.00    +0.074 C 
ATOM     17  C   LIG    1       26.319  -0.601  27.726  0.00  0.00    +0.022 C 
ATOM     18  C   LIG    1       26.167  -1.586  28.878  0.00  0.00    +0.002 C 
ATOM     19  C   LIG    1       26.048  -3.043  28.428  0.00  0.00    +0.000 C 
ATOM     20  C   LIG    1       26.992  -3.474  27.306  0.00  0.00    +0.002 C 
ATOM     21  C   LIG    1       27.137  -2.444  26.193  0.00  0.00    +0.022 C 
ENDBRANCH  14  16
ENDBRANCH   7  12
ENDBRANCH   1   7
BRANCH   4  22
ATOM     22  C   LIG    1       32.897  -2.792  22.271  0.00  0.00    +0.054 C 
BRANCH  22  23
ATOM     23  C   LIG    1       34.355  -3.234  22.030  0.00  0.00    +0.121 C 
BRANCH  23  24
ATOM     24  N   LIG    1       34.534  -3.373  20.592  0.00  0.00    -0.237 N 
ATOM     25  C   LIG    1       33.750  -4.271  19.894  0.00  0.00    +0.232 C 
ATOM     26  O   LIG    1       33.336  -5.319  20.388  0.00  0.00    -0.274 OA
ATOM     27  C   LIG    1       33.288  -3.760  18.523  0.00  0.00    +0.067 C 
ATOM     28  C   LIG    1       32.014  -2.936  18.819  0.00  0.00    +0.025 C 
ATOM     29  C   LIG    1       32.920  -4.963  17.636  0.00  0.00    +0.025 C 
ATOM     30  C   LIG    1       34.321  -2.860  17.854  0.00  0.00    -0.021 A 
ATOM     31  C   LIG    1       34.134  -2.371  16.551  0.00  0.00    +0.009 A 
ATOM     32  C   LIG    1       35.062  -1.502  15.966  0.00  0.00    +0.046 A 
ATOM     33  C   LIG    1       36.203  -1.113  16.662  0.00  0.00    +0.121 A 
ATOM     34  C   LIG    1       36.402  -1.590  17.955  0.00  0.00    +0.059 A 
ATOM     35  C   LIG    1       35.460  -2.437  18.554  0.00  0.00    +0.045 A 
ATOM     36  C   LIG    1       35.603  -2.725  19.999  0.00  0.00    +0.253 C 
ATOM     37  O   LIG    1       36.586  -2.331  20.618  0.00  0.00    -0.270 OA
BRANCH  33  38
ATOM     38  O   LIG    1       37.172  -0.261  16.213  0.00  0.00    -0.495 OA
ATOM     39  C   LIG    1       38.504  -0.759  16.189  0.00  0.00    +0.277 C 
ENDBRANCH  33  38
ENDBRANCH  23  24
ENDBRANCH  22  23
ENDBRANCH   4  22
TORSDOF 7
ENDMDL
MODEL 4
REMARK VINA RESULT:      -9.5      2.085      2.655
REMARK  Name = 
REMARK                            x       y       z     vdW  Elec       q    Type
REMARK                         _______ _______ _______ _____ _____    ______ ____
ROOT
ATOM      1  C   LIG    1       33.364  -3.801  20.568  0.00  0.00    +0.109 A 
ATOM      2  C   LIG    1       34.267  -3.744  21.630  0.00  0.00    +0.029 A 
ATOM      3  C   LIG    1       33.882  -3.144  22.826  0.00  0.00    +0.005 A 
ATOM      4  C   LIG    1       32.601  -2.597  22.958  0.00  0.00    -0.046 A 
ATOM      5  C   LIG    1       31.701  -2.677  21.878  0.00  0.00    +0.005 A 
ATOM      6  C   LIG    1       32.076  -3.281  20.683  0.00  0.00    +0.029 A 
ENDROOT
BRANCH   1   7
ATOM      7  S   LIG    1       33.893  -4.438  19.007  0.00  0.00    +0.076 S 
ATOM      8  O   LIG    1       33.570  -5.846  18.948  0.00  0.00    -0.150 OA
ATOM      9  O   LIG    1       33.468  -3.526  17.969  0.00  0.00    -0.150 OA
BRANCH   7  12
ATOM     10  O   LIG    1       37.545  -3.441  19.018  0.00  0.00    -0.251 OA
ATOM     11  C   LIG    1       36.352  -3.237  18.878  0.00  0.00    +0.319 C 
ATOM     12  N   LIG    1       35.519  -4.288  19.197  0.00  0.00    -0.169 N 
ATOM     13  H   LIG    1       36.023  -5.115  19.502  0.00  0.00    +0.178 HD
ATOM     14  N   LIG    1       35.778  -2.082  18.453  0.00  0.00    -0.295 N 
ATOM     15  H   LIG    1       34.769  -2.075  18.400  0.00  0.00    +0.151 HD
BRANCH  14  16
ATOM     16  C   LIG    1       36.439  -0.837  18.075  0.00  0.00    +0.074 C 
ATOM     17  C   LIG    1       35.512   0.378  18.012  0.00  0.00    +0.022 C 
ATOM     18  C   LIG    1       34.706   0.486  16.724  0.00  0.00    +0.002 C 
ATOM     19  C   LIG    1       35.541   0.281  15.459  0.00  0.00    +0.000 C 
ATOM     20  C   LIG    1       36.562  -0.855  15.510  0.00  0.00    +0.002 C 
ATOM     21  C   LIG    1       37.320  -0.943  16.829  0.00  0.00    +0.022 C 
ENDBRANCH  14  16
ENDBRANCH   7  12
ENDBRANCH   1   7
BRANCH   4  22
ATOM     22  C   LIG    1       32.123  -1.888  24.194  0.00  0.00    +0.054 C 
BRANCH  22  23
ATOM     23  C   LIG    1       32.777  -2.219  25.551  0.00  0.00    +0.121 C 
BRANCH  23  24
ATOM     24  N   LIG    1       32.083  -1.442  26.568  0.00  0.00    -0.237 N 
ATOM     25  C   LIG    1       32.782  -0.499  27.296  0.00  0.00    +0.232 C 
ATOM     26  O   LIG    1       33.975  -0.620  27.574  0.00  0.00    -0.274 OA
ATOM     27  C   LIG    1       31.995   0.792  27.561  0.00  0.00    +0.067 C 
ATOM     28  C   LIG    1       32.219   1.656  26.299  0.00  0.00    +0.025 C 
ATOM     29  C   LIG    1       32.602   1.509  28.780  0.00  0.00    +0.025 C 
ATOM     30  C   LIG    1       30.502   0.542  27.738  0.00  0.00    -0.021 A 
ATOM     31  C   LIG    1       29.621   1.578  28.089  0.00  0.00    +0.009 A 
ATOM     32  C   LIG    1       28.245   1.351  28.196  0.00  0.00    +0.046 A 
ATOM     33  C   LIG    1       27.719   0.082  27.970  0.00  0.00    +0.121 A 
ATOM     34  C   LIG    1       28.579  -0.955  27.621  0.00  0.00    +0.059 A 
ATOM     35  C   LIG    1       29.955  -0.724  27.484  0.00  0.00    +0.045 A 
ATOM     36  C   LIG    1       30.785  -1.796  26.892  0.00  0.00    +0.253 C 
ATOM     37  O   LIG    1       30.300  -2.894  26.644  0.00  0.00    -0.270 OA
BRANCH  33  38
ATOM     38  O   LIG    1       26.399  -0.267  28.025  0.00  0.00    -0.495 OA
ATOM     39  C   LIG    1       25.789  -0.670  26.806  0.00  0.00    +0.277 C 
ENDBRANCH  33  38
ENDBRANCH  23  24
ENDBRANCH  22  23
ENDBRANCH   4  22
TORSDOF 7
ENDMDL
MODEL 5
REMARK VINA RESULT:      -9.3      2.576     11.430
REMARK  Name = 
REMARK                            x       y       z     vdW  Elec       q    Type
REMARK                         _______ _______ _______ _____ _____    ______ ____
ROOT
ATOM      1  C   LIG    1       31.489  -2.221  25.628  0.00  0.00    +0.109 A 
ATOM      2  C   LIG    1       32.493  -3.186  25.725  0.00  0.00    +0.029 A 
ATOM      3  C   LIG    1       33.282  -3.468  24.613  0.00  0.00    +0.005 A 
ATOM      4  C   LIG    1       33.066  -2.792  23.407  0.00  0.00    -0.046 A 
ATOM      5  C   LIG    1       32.056  -1.813  23.336  0.00  0.00    +0.005 A 
ATOM      6  C   LIG    1       31.269  -1.521  24.443  0.00  0.00    +0.029 A 
ENDROOT
BRANCH   1   7
ATOM      7  S   LIG    1       30.399  -1.957  26.993  0.00  0.00    +0.076 S 
ATOM      8  O   LIG    1       29.271  -2.854  26.865  0.00  0.00    -0.150 OA
ATOM      9  O   LIG    1       31.182  -1.905  28.206  0.00  0.00    -0.150 OA
BRANCH   7  12
ATOM     10  O   LIG    1       29.732   1.760  26.734  0.00  0.00    -0.251 OA
ATOM     11  C   LIG    1       30.379   0.782  27.063  0.00  0.00    +0.319 C 
ATOM     12  N   LIG    1       29.892  -0.435  26.636  0.00  0.00    -0.169 N 
ATOM     13  H   LIG    1       29.032  -0.353  26.101  0.00  0.00    +0.178 HD
ATOM     14  N   LIG    1       31.524   0.782  27.793  0.00  0.00    -0.295 N 
ATOM     15  H   LIG    1       31.943  -0.120  27.973  0.00  0.00    +0.151 HD
BRANCH  14  16
ATOM     16  C   LIG    1       32.239   1.930  28.341  0.00  0.00    +0.074 C 
ATOM     17  C   LIG    1       33.576   2.228  27.661  0.00  0.00    +0.022 C 
ATOM     18  C   LIG    1       34.731   1.357  28.141  0.00  0.00    +0.002 C 
ATOM     19  C   LIG    1       34.823   1.247  29.664  0.00  0.00    +0.000 C 
ATOM     20  C   LIG    1       33.499   1.060  30.401  0.00  0.00    +0.002 C 
ATOM     21  C   LIG    1       32.366   1.926  29.865  0.00  0.00    +0.022 C 
ENDBRANCH  14  16
ENDBRANCH   7  12
ENDBRANCH   1   7
BRANCH   4  22
ATOM     22  C   LIG    1       33.838  -3.071  22.148  0.00  0.00    +0.054 C 
BRANCH  22  23
ATOM     23  C   LIG    1       33.780  -2.055  20.990  0.00  0.00    +0.121 C 
BRANCH  23  24
ATOM     24  N   LIG    1       33.827  -2.810  19.746  0.00  0.00    -0.237 N 
ATOM     25  C   LIG    1       32.652  -3.279  19.192  0.00  0.00    +0.232 C 
ATOM     26  O   LIG    1       31.681  -3.611  19.871  0.00  0.00    -0.274 OA
ATOM     27  C   LIG    1       32.598  -3.169  17.662  0.00  0.00    +0.067 C 
ATOM     28  C   LIG    1       32.109  -1.730  17.387  0.00  0.00    +0.025 C 
ATOM     29  C   LIG    1       31.559  -4.170  17.124  0.00  0.00    +0.025 C 
ATOM     30  C   LIG    1       33.962  -3.367  17.012  0.00  0.00    -0.021 A 
ATOM     31  C   LIG    1       34.111  -3.406  15.616  0.00  0.00    +0.009 A 
ATOM     32  C   LIG    1       35.375  -3.532  15.027  0.00  0.00    +0.046 A 
ATOM     33  C   LIG    1       36.515  -3.638  15.819  0.00  0.00    +0.121 A 
ATOM     34  C   LIG    1       36.383  -3.601  17.204  0.00  0.00    +0.059 A 
ATOM     35  C   LIG    1       35.123  -3.445  17.796  0.00  0.00    +0.045 A 
ATOM     36  C   LIG    1       35.064  -3.182  19.251  0.00  0.00    +0.253 C 
ATOM     37  O   LIG    1       36.083  -3.222  19.932  0.00  0.00    -0.270 OA
BRANCH  33  38
ATOM     38  O   LIG    1       37.801  -3.749  15.371  0.00  0.00    -0.495 OA
ATOM     39  C   LIG    1       38.577  -2.558  15.344  0.00  0.00    +0.277 C 
ENDBRANCH  33  38
ENDBRANCH  23  24
ENDBRANCH  22  23
ENDBRANCH   4  22
TORSDOF 7
ENDMDL
MODEL 6
REMARK VINA RESULT:      -9.3      1.879      2.744
REMARK  Name = 
REMARK                            x       y       z     vdW  Elec       q    Type
REMARK                         _______ _______ _______ _____ _____    ______ ____
ROOT
ATOM      1  C   LIG    1       33.810  -3.371  20.717  0.00  0.00    +0.109 A 
ATOM      2  C   LIG    1       34.619  -3.297  21.852  0.00  0.00    +0.029 A 
ATOM      3  C   LIG    1       34.051  -2.964  23.078  0.00  0.00    +0.005 A 
ATOM      4  C   LIG    1       32.681  -2.699  23.170  0.00  0.00    -0.046 A 
ATOM      5  C   LIG    1       31.880  -2.792  22.015  0.00  0.00    +0.005 A 
ATOM      6  C   LIG    1       32.438  -3.131  20.789  0.00  0.00    +0.029 A 
ENDROOT
BRANCH   1   7
ATOM      7  S   LIG    1       34.547  -3.658  19.137  0.00  0.00    +0.076 S 
ATOM      8  O   LIG    1       35.972  -3.438  19.244  0.00  0.00    -0.150 OA
ATOM      9  O   LIG    1       34.016  -4.890  18.598  0.00  0.00    -0.150 OA
BRANCH   7  12
ATOM     10  O   LIG    1       33.719  -0.763  16.843  0.00  0.00    -0.251 OA
ATOM     11  C   LIG    1       34.350  -1.749  17.182  0.00  0.00    +0.319 C 
ATOM     12  N   LIG    1       33.890  -2.401  18.306  0.00  0.00    -0.169 N 
ATOM     13  H   LIG    1       33.075  -1.956  18.718  0.00  0.00    +0.178 HD
ATOM     14  N   LIG    1       35.441  -2.261  16.557  0.00  0.00    -0.295 N 
ATOM     15  H   LIG    1       35.844  -3.093  16.964  0.00  0.00    +0.151 HD
BRANCH  14  16
ATOM     16  C   LIG    1       36.100  -1.765  15.353  0.00  0.00    +0.074 C 
ATOM     17  C   LIG    1       36.785  -2.846  14.515  0.00  0.00    +0.022 C 
ATOM     18  C   LIG    1       38.160  -3.257  15.025  0.00  0.00    +0.002 C 
ATOM     19  C   LIG    1       39.067  -2.074  15.366  0.00  0.00    +0.000 C 
ATOM     20  C   LIG    1       38.402  -0.916  16.109  0.00  0.00    +0.002 C 
ATOM     21  C   LIG    1       37.016  -0.562  15.584  0.00  0.00    +0.022 C 
ENDBRANCH  14  16
ENDBRANCH   7  12
ENDBRANCH   1   7
BRANCH   4  22
ATOM     22  C   LIG    1       31.997  -2.285  24.444  0.00  0.00    +0.054 C 
BRANCH  22  23
ATOM     23  C   LIG    1       32.784  -2.332  25.768  0.00  0.00    +0.121 C 
BRANCH  23  24
ATOM     24  N   LIG    1       32.079  -1.488  26.723  0.00  0.00    -0.237 N 
ATOM     25  C   LIG    1       32.775  -0.514  27.411  0.00  0.00    +0.232 C 
ATOM     26  O   LIG    1       33.959  -0.635  27.723  0.00  0.00    -0.274 OA
ATOM     27  C   LIG    1       32.002   0.801  27.582  0.00  0.00    +0.067 C 
ATOM     28  C   LIG    1       32.266   1.586  26.278  0.00  0.00    +0.025 C 
ATOM     29  C   LIG    1       32.591   1.579  28.772  0.00  0.00    +0.025 C 
ATOM     30  C   LIG    1       30.502   0.582  27.739  0.00  0.00    -0.021 A 
ATOM     31  C   LIG    1       29.628   1.648  28.008  0.00  0.00    +0.009 A 
ATOM     32  C   LIG    1       28.246   1.446  28.096  0.00  0.00    +0.046 A 
ATOM     33  C   LIG    1       27.707   0.173  27.931  0.00  0.00    +0.121 A 
ATOM     34  C   LIG    1       28.560  -0.894  27.663  0.00  0.00    +0.059 A 
ATOM     35  C   LIG    1       29.941  -0.690  27.546  0.00  0.00    +0.045 A 
ATOM     36  C   LIG    1       30.769  -1.805  27.036  0.00  0.00    +0.253 C 
ATOM     37  O   LIG    1       30.273  -2.909  26.841  0.00  0.00    -0.270 OA
BRANCH  33  38
ATOM     38  O   LIG    1       26.381  -0.155  27.975  0.00  0.00    -0.495 OA
ATOM     39  C   LIG    1       25.816  -0.708  26.794  0.00  0.00    +0.277 C 
ENDBRANCH  33  38
ENDBRANCH  23  24
ENDBRANCH  22  23
ENDBRANCH   4  22
TORSDOF 7
ENDMDL
MODEL 7
REMARK VINA RESULT:      -9.2      1.754      2.563
REMARK  Name = 
REMARK                            x       y       z     vdW  Elec       q    Type
REMARK                         _______ _______ _______ _____ _____    ______ ____
ROOT
ATOM      1  C   LIG    1       33.417  -3.881  20.827  0.00  0.00    +0.109 A 
ATOM      2  C   LIG    1       34.346  -3.758  21.861  0.00  0.00    +0.029 A 
ATOM      3  C   LIG    1       33.985  -3.092  23.030  0.00  0.00    +0.005 A 
ATOM      4  C   LIG    1       32.704  -2.547  23.163  0.00  0.00    -0.046 A 
ATOM      5  C   LIG    1       31.778  -2.695  22.112  0.00  0.00    +0.005 A 
ATOM      6  C   LIG    1       32.128  -3.363  20.945  0.00  0.00    +0.029 A 
ENDROOT
BRANCH   1   7
ATOM      7  S   LIG    1       33.912  -4.603  19.292  0.00  0.00    +0.076 S 
ATOM      8  O   LIG    1       35.068  -3.890  18.796  0.00  0.00    -0.150 OA
ATOM      9  O   LIG    1       33.923  -6.041  19.441  0.00  0.00    -0.150 OA
BRANCH   7  12
ATOM     10  O   LIG    1       31.153  -4.241  16.725  0.00  0.00    -0.251 OA
ATOM     11  C   LIG    1       32.044  -4.840  17.301  0.00  0.00    +0.319 C 
ATOM     12  N   LIG    1       32.614  -4.186  18.373  0.00  0.00    -0.169 N 
ATOM     13  H   LIG    1       32.215  -3.267  18.536  0.00  0.00    +0.178 HD
ATOM     14  N   LIG    1       32.511  -6.077  16.996  0.00  0.00    -0.295 N 
ATOM     15  H   LIG    1       33.252  -6.436  17.581  0.00  0.00    +0.151 HD
BRANCH  14  16
ATOM     16  C   LIG    1       32.064  -6.967  15.928  0.00  0.00    +0.074 C 
ATOM     17  C   LIG    1       31.135  -8.091  16.388  0.00  0.00    +0.022 C 
ATOM     18  C   LIG    1       31.853  -9.287  17.001  0.00  0.00    +0.002 C 
ATOM     19  C   LIG    1       33.048  -9.771  16.179  0.00  0.00    +0.000 C 
ATOM     20  C   LIG    1       33.948  -8.680  15.602  0.00  0.00    +0.002 C 
ATOM     21  C   LIG    1       33.187  -7.491  15.031  0.00  0.00    +0.022 C 
ENDBRANCH  14  16
ENDBRANCH   7  12
ENDBRANCH   1   7
BRANCH   4  22
ATOM     22  C   LIG    1       32.251  -1.772  24.368  0.00  0.00    +0.054 C 
BRANCH  22  23
ATOM     23  C   LIG    1       32.590  -2.304  25.775  0.00  0.00    +0.121 C 
BRANCH  23  24
ATOM     24  N   LIG    1       31.872  -1.479  26.736  0.00  0.00    -0.237 N 
ATOM     25  C   LIG    1       32.569  -0.562  27.499  0.00  0.00    +0.232 C 
ATOM     26  O   LIG    1       33.734  -0.739  27.856  0.00  0.00    -0.274 OA
ATOM     27  C   LIG    1       31.834   0.771  27.697  0.00  0.00    +0.067 C 
ATOM     28  C   LIG    1       32.184   1.604  26.443  0.00  0.00    +0.025 C 
ATOM     29  C   LIG    1       32.396   1.473  28.946  0.00  0.00    +0.025 C 
ATOM     30  C   LIG    1       30.322   0.599  27.778  0.00  0.00    -0.021 A 
ATOM     31  C   LIG    1       29.474   1.683  28.058  0.00  0.00    +0.009 A 
ATOM     32  C   LIG    1       28.083   1.527  28.077  0.00  0.00    +0.046 A 
ATOM     33  C   LIG    1       27.509   0.283  27.829  0.00  0.00    +0.121 A 
ATOM     34  C   LIG    1       28.336  -0.801  27.550  0.00  0.00    +0.059 A 
ATOM     35  C   LIG    1       29.728  -0.641  27.502  0.00  0.00    +0.045 A 
ATOM     36  C   LIG    1       30.540  -1.762  26.977  0.00  0.00    +0.253 C 
ATOM     37  O   LIG    1       30.015  -2.838  26.710  0.00  0.00    -0.270 OA
BRANCH  33  38
ATOM     38  O   LIG    1       26.172   0.002  27.801  0.00  0.00    -0.495 OA
ATOM     39  C   LIG    1       25.694  -0.733  26.682  0.00  0.00    +0.277 C 
ENDBRANCH  33  38
ENDBRANCH  23  24
ENDBRANCH  22  23
ENDBRANCH   4  22
TORSDOF 7
ENDMDL
MODEL 8
REMARK VINA RESULT:      -9.2      2.292      4.176
REMARK  Name = 
REMARK                            x       y       z     vdW  Elec       q    Type
REMARK                         _______ _______ _______ _____ _____    ______ ____
ROOT
ATOM      1  C   LIG    1       33.765  -3.440  20.549  0.00  0.00    +0.109 A 
ATOM      2  C   LIG    1       34.579  -3.281  21.671  0.00  0.00    +0.029 A 
ATOM      3  C   LIG    1       34.010  -2.885  22.879  0.00  0.00    +0.005 A 
ATOM      4  C   LIG    1       32.635  -2.644  22.964  0.00  0.00    -0.046 A 
ATOM      5  C   LIG    1       31.831  -2.824  21.822  0.00  0.00    +0.005 A 
ATOM      6  C   LIG    1       32.389  -3.226  20.614  0.00  0.00    +0.029 A 
ENDROOT
BRANCH   1   7
ATOM      7  S   LIG    1       34.500  -3.808  18.985  0.00  0.00    +0.076 S 
ATOM      8  O   LIG    1       34.181  -5.174  18.633  0.00  0.00    -0.150 OA
ATOM      9  O   LIG    1       34.227  -2.716  18.078  0.00  0.00    -0.150 OA
BRANCH   7  12
ATOM     10  O   LIG    1       38.275  -3.619  19.203  0.00  0.00    -0.251 OA
ATOM     11  C   LIG    1       37.200  -3.486  18.644  0.00  0.00    +0.319 C 
ATOM     12  N   LIG    1       36.085  -3.742  19.415  0.00  0.00    -0.169 N 
ATOM     13  H   LIG    1       36.314  -4.024  20.363  0.00  0.00    +0.178 HD
ATOM     14  N   LIG    1       37.003  -3.106  17.356  0.00  0.00    -0.295 N 
ATOM     15  H   LIG    1       36.043  -3.036  17.049  0.00  0.00    +0.151 HD
BRANCH  14  16
ATOM     16  C   LIG    1       38.011  -2.768  16.356  0.00  0.00    +0.074 C 
ATOM     17  C   LIG    1       38.415  -1.293  16.337  0.00  0.00    +0.022 C 
ATOM     18  C   LIG    1       37.451  -0.388  15.582  0.00  0.00    +0.002 C 
ATOM     19  C   LIG    1       37.043  -0.934  14.213  0.00  0.00    +0.000 C 
ATOM     20  C   LIG    1       36.734  -2.429  14.155  0.00  0.00    +0.002 C 
ATOM     21  C   LIG    1       37.706  -3.290  14.951  0.00  0.00    +0.022 C 
ENDBRANCH  14  16
ENDBRANCH   7  12
ENDBRANCH   1   7
BRANCH   4  22
ATOM     22  C   LIG    1       31.950  -2.167  24.214  0.00  0.00    +0.054 C 
BRANCH  22  23
ATOM     23  C   LIG    1       31.064  -0.907  24.151  0.00  0.00    +0.121 C 
BRANCH  23  24
ATOM     24  N   LIG    1       30.858  -0.452  25.519  0.00  0.00    -0.237 N 
ATOM     25  C   LIG    1       29.625  -0.634  26.116  0.00  0.00    +0.232 C 
ATOM     26  O   LIG    1       28.569  -0.618  25.484  0.00  0.00    -0.274 OA
ATOM     27  C   LIG    1       29.703  -1.044  27.593  0.00  0.00    +0.067 C 
ATOM     28  C   LIG    1       29.874  -2.579  27.567  0.00  0.00    +0.025 C 
ATOM     29  C   LIG    1       28.372  -0.693  28.282  0.00  0.00    +0.025 C 
ATOM     30  C   LIG    1       30.893  -0.419  28.312  0.00  0.00    -0.021 A 
ATOM     31  C   LIG    1       31.086  -0.587  29.693  0.00  0.00    +0.009 A 
ATOM     32  C   LIG    1       32.211  -0.056  30.335  0.00  0.00    +0.046 A 
ATOM     33  C   LIG    1       33.159   0.666  29.616  0.00  0.00    +0.121 A 
ATOM     34  C   LIG    1       32.982   0.840  28.246  0.00  0.00    +0.059 A 
ATOM     35  C   LIG    1       31.872   0.285  27.596  0.00  0.00    +0.045 A 
ATOM     36  C   LIG    1       31.851   0.302  26.116  0.00  0.00    +0.253 C 
ATOM     37  O   LIG    1       32.723   0.895  25.489  0.00  0.00    -0.270 OA
BRANCH  33  38
ATOM     38  O   LIG    1       34.304   1.219  30.117  0.00  0.00    -0.495 OA
ATOM     39  C   LIG    1       35.193   1.815  29.181  0.00  0.00    +0.277 C 
ENDBRANCH  33  38
ENDBRANCH  23  24
ENDBRANCH  22  23
ENDBRANCH   4  22
TORSDOF 7
ENDMDL
MODEL 9
REMARK VINA RESULT:      -9.1      3.085     11.268
REMARK  Name = 
REMARK                            x       y       z     vdW  Elec       q    Type
REMARK                         _______ _______ _______ _____ _____    ______ ____
ROOT
ATOM      1  C   LIG    1       32.325  -1.888  25.426  0.00  0.00    +0.109 A 
ATOM      2  C   LIG    1       33.005  -3.102  25.320  0.00  0.00    +0.029 A 
ATOM      3  C   LIG    1       33.208  -3.666  24.063  0.00  0.00    +0.005 A 
ATOM      4  C   LIG    1       32.728  -3.022  22.917  0.00  0.00    -0.046 A 
ATOM      5  C   LIG    1       32.056  -1.792  23.047  0.00  0.00    +0.005 A 
ATOM      6  C   LIG    1       31.856  -1.219  24.297  0.00  0.00    +0.029 A 
ENDROOT
BRANCH   1   7
ATOM      7  S   LIG    1       31.946  -1.238  27.025  0.00  0.00    +0.076 S 
ATOM      8  O   LIG    1       31.302  -2.272  27.804  0.00  0.00    -0.150 OA
ATOM      9  O   LIG    1       33.107  -0.535  27.524  0.00  0.00    -0.150 OA
BRANCH   7  12
ATOM     10  O   LIG    1       28.887   0.687  25.900  0.00  0.00    -0.251 OA
ATOM     11  C   LIG    1       29.474  -0.300  26.309  0.00  0.00    +0.319 C 
ATOM     12  N   LIG    1       30.811  -0.129  26.597  0.00  0.00    -0.169 N 
ATOM     13  H   LIG    1       31.139   0.815  26.415  0.00  0.00    +0.178 HD
ATOM     14  N   LIG    1       28.936  -1.529  26.513  0.00  0.00    -0.295 N 
ATOM     15  H   LIG    1       29.561  -2.241  26.865  0.00  0.00    +0.151 HD
BRANCH  14  16
ATOM     16  C   LIG    1       27.555  -1.952  26.300  0.00  0.00    +0.074 C 
ATOM     17  C   LIG    1       26.505  -0.939  26.759  0.00  0.00    +0.022 C 
ATOM     18  C   LIG    1       26.218  -0.968  28.255  0.00  0.00    +0.002 C 
ATOM     19  C   LIG    1       26.002  -2.376  28.811  0.00  0.00    +0.000 C 
ATOM     20  C   LIG    1       26.959  -3.451  28.297  0.00  0.00    +0.002 C 
ATOM     21  C   LIG    1       27.241  -3.362  26.803  0.00  0.00    +0.022 C 
ENDBRANCH  14  16
ENDBRANCH   7  12
ENDBRANCH   1   7
BRANCH   4  22
ATOM     22  C   LIG    1       32.860  -3.586  21.530  0.00  0.00    +0.054 C 
BRANCH  22  23
ATOM     23  C   LIG    1       33.256  -2.648  20.372  0.00  0.00    +0.121 C 
BRANCH  23  24
ATOM     24  N   LIG    1       34.501  -3.153  19.810  0.00  0.00    -0.237 N 
ATOM     25  C   LIG    1       34.456  -4.085  18.791  0.00  0.00    +0.232 C 
ATOM     26  O   LIG    1       33.558  -4.920  18.690  0.00  0.00    -0.274 OA
ATOM     27  C   LIG    1       35.513  -3.865  17.700  0.00  0.00    +0.067 C 
ATOM     28  C   LIG    1       34.877  -2.838  16.737  0.00  0.00    +0.025 C 
ATOM     29  C   LIG    1       35.743  -5.190  16.950  0.00  0.00    +0.025 C 
ATOM     30  C   LIG    1       36.815  -3.295  18.251  0.00  0.00    -0.021 A 
ATOM     31  C   LIG    1       37.942  -3.116  17.433  0.00  0.00    +0.009 A 
ATOM     32  C   LIG    1       39.115  -2.541  17.936  0.00  0.00    +0.046 A 
ATOM     33  C   LIG    1       39.193  -2.146  19.268  0.00  0.00    +0.121 A 
ATOM     34  C   LIG    1       38.084  -2.317  20.091  0.00  0.00    +0.059 A 
ATOM     35  C   LIG    1       36.898  -2.865  19.584  0.00  0.00    +0.045 A 
ATOM     36  C   LIG    1       35.688  -2.812  20.433  0.00  0.00    +0.253 C 
ATOM     37  O   LIG    1       35.756  -2.409  21.589  0.00  0.00    -0.270 OA
BRANCH  33  38
ATOM     38  O   LIG    1       40.269  -1.560  19.875  0.00  0.00    -0.495 OA
ATOM     39  C   LIG    1       41.328  -2.420  20.275  0.00  0.00    +0.277 C 
ENDBRANCH  33  38
ENDBRANCH  23  24
ENDBRANCH  22  23
ENDBRANCH   4  22
TORSDOF 7
ENDMDL
