MODEL 1
REMARK VINA RESULT:       0.3      0.000      0.000
REMARK  Name = 
REMARK                            x       y       z     vdW  Elec       q    Type
REMARK                         _______ _______ _______ _____ _____    ______ ____
ROOT
ATOM      1  C   LIG    1       68.760  49.923  98.479  0.00  0.00    +0.109 A 
ATOM      2  C   LIG    1       67.561  49.486  99.043  0.00  0.00    +0.029 A 
ATOM      3  C   LIG    1       67.584  48.789 100.249  0.00  0.00    +0.005 A 
ATOM      4  C   LIG    1       68.801  48.526 100.886  0.00  0.00    -0.046 A 
ATOM      5  C   LIG    1       69.998  48.988 100.306  0.00  0.00    +0.005 A 
ATOM      6  C   LIG    1       69.983  49.689  99.107  0.00  0.00    +0.029 A 
ENDROOT
BRANCH   1   7
ATOM      7  S   LIG    1       68.748  50.685  96.885  0.00  0.00    +0.076 S 
ATOM      8  O   LIG    1       68.724  52.120  97.058  0.00  0.00    -0.150 OA
ATOM      9  O   LIG    1       69.747  50.044  96.060  0.00  0.00    -0.150 OA
BRANCH   7  12
ATOM     10  O   LIG    1       65.636  49.656  94.990  0.00  0.00    -0.251 OA
ATOM     11  C   LIG    1       66.831  49.865  95.107  0.00  0.00    +0.319 C 
ATOM     12  N   LIG    1       67.263  50.201  96.373  0.00  0.00    -0.169 N 
ATOM     13  H   LIG    1       66.508  50.242  97.052  0.00  0.00    +0.178 HD
ATOM     14  N   LIG    1       67.763  49.787  94.122  0.00  0.00    -0.295 N 
ATOM     15  H   LIG    1       68.717  49.984  94.389  0.00  0.00    +0.151 HD
BRANCH  14  16
ATOM     16  C   LIG    1       67.559  49.439  92.720  0.00  0.00    +0.074 C 
ATOM     17  C   LIG    1       67.187  47.975  92.478  0.00  0.00    +0.022 C 
ATOM     18  C   LIG    1       68.372  47.018  92.480  0.00  0.00    +0.002 C 
ATOM     19  C   LIG    1       69.552  47.503  91.637  0.00  0.00    +0.000 C 
ATOM     20  C   LIG    1       69.896  48.986  91.759  0.00  0.00    +0.002 C 
ATOM     21  C   LIG    1       68.678  49.901  91.785  0.00  0.00    +0.022 C 
ENDBRANCH  14  16
ENDBRANCH   7  12
ENDBRANCH   1   7
BRANCH   4  22
ATOM     22  C   LIG    1       68.919  47.740 102.162  0.00  0.00    +0.054 C 
BRANCH  22  23
ATOM     23  C   LIG    1       69.175  46.221 102.088  0.00  0.00    +0.121 C 
BRANCH  23  24
ATOM     24  N   LIG    1       68.551  45.735 100.865  0.00  0.00    -0.237 N 
ATOM     25  C   LIG    1       67.361  45.036 100.942  0.00  0.00    +0.232 C 
ATOM     26  O   LIG    1       67.069  44.320 101.899  0.00  0.00    -0.274 OA
ATOM     27  C   LIG    1       66.364  45.380  99.827  0.00  0.00    +0.067 C 
ATOM     28  C   LIG    1       65.618  46.632 100.338  0.00  0.00    +0.025 C 
ATOM     29  C   LIG    1       65.364  44.220  99.673  0.00  0.00    +0.025 C 
ATOM     30  C   LIG    1       67.052  45.711  98.507  0.00  0.00    -0.021 A 
ATOM     31  C   LIG    1       66.316  45.954  97.337  0.00  0.00    +0.009 A 
ATOM     32  C   LIG    1       66.953  46.312  96.143  0.00  0.00    +0.046 A 
ATOM     33  C   LIG    1       68.340  46.421  96.088  0.00  0.00    +0.121 A 
ATOM     34  C   LIG    1       69.084  46.183  97.241  0.00  0.00    +0.059 A 
ATOM     35  C   LIG    1       68.446  45.854  98.444  0.00  0.00    +0.045 A 
ATOM     36  C   LIG    1       69.258  45.839  99.681  0.00  0.00    +0.253 C 
ATOM     37  O   LIG    1       70.474  45.991  99.629  0.00  0.00    -0.270 OA
BRANCH  33  38
ATOM     38  O   LIG    1       69.079  46.776  94.996  0.00  0.00    -0.495 OA
ATOM     39  C   LIG    1       70.363  47.335  95.243  0.00  0.00    +0.277 C 
ENDBRANCH  33  38
ENDBRANCH  23  24
ENDBRANCH  22  23
ENDBRANCH   4  22
TORSDOF 7
ENDMDL
MODEL 2
REMARK VINA RESULT:       1.8      2.253      4.721
REMARK  Name = 
REMARK                            x       y       z     vdW  Elec       q    Type
REMARK                         _______ _______ _______ _____ _____    ______ ____
ROOT
ATOM      1  C   LIG    1       69.140  48.954  93.623  0.00  0.00    +0.109 A 
ATOM      2  C   LIG    1       70.129  48.175  94.225  0.00  0.00    +0.029 A 
ATOM      3  C   LIG    1       70.468  48.405  95.556  0.00  0.00    +0.005 A 
ATOM      4  C   LIG    1       69.826  49.415  96.281  0.00  0.00    -0.046 A 
ATOM      5  C   LIG    1       68.822  50.181  95.658  0.00  0.00    +0.005 A 
ATOM      6  C   LIG    1       68.473  49.953  94.332  0.00  0.00    +0.029 A 
ENDROOT
BRANCH   1   7
ATOM      7  S   LIG    1       68.803  48.758  91.900  0.00  0.00    +0.076 S 
ATOM      8  O   LIG    1       68.641  50.066  91.307  0.00  0.00    -0.150 OA
ATOM      9  O   LIG    1       69.735  47.796  91.355  0.00  0.00    -0.150 OA
BRANCH   7  12
ATOM     10  O   LIG    1       65.638  46.905  92.841  0.00  0.00    -0.251 OA
ATOM     11  C   LIG    1       66.693  47.466  93.079  0.00  0.00    +0.319 C 
ATOM     12  N   LIG    1       67.324  48.048  92.000  0.00  0.00    -0.169 N 
ATOM     13  H   LIG    1       66.819  47.919  91.128  0.00  0.00    +0.178 HD
ATOM     14  N   LIG    1       67.290  47.578  94.293  0.00  0.00    -0.295 N 
ATOM     15  H   LIG    1       68.164  48.084  94.321  0.00  0.00    +0.151 HD
BRANCH  14  16
ATOM     16  C   LIG    1       66.817  47.066  95.576  0.00  0.00    +0.074 C 
ATOM     17  C   LIG    1       67.927  46.751  96.581  0.00  0.00    +0.022 C 
ATOM     18  C   LIG    1       68.606  45.405  96.363  0.00  0.00    +0.002 C 
ATOM     19  C   LIG    1       67.625  44.252  96.145  0.00  0.00    +0.000 C 
ATOM     20  C   LIG    1       66.436  44.550  95.234  0.00  0.00    +0.002 C 
ATOM     21  C   LIG    1       65.810  45.919  95.466  0.00  0.00    +0.022 C 
ENDBRANCH  14  16
ENDBRANCH   7  12
ENDBRANCH   1   7
BRANCH   4  22
ATOM     22  C   LIG    1       70.166  49.762  97.703  0.00  0.00    +0.054 C 
BRANCH  22  23
ATOM     23  C   LIG    1       70.624  48.644  98.661  0.00  0.00    +0.121 C 
BRANCH  23  24
ATOM     24  N   LIG    1       69.456  48.212  99.415  0.00  0.00    -0.237 N 
ATOM     25  C   LIG    1       68.668  49.156 100.045  0.00  0.00    +0.232 C 
ATOM     26  O   LIG    1       69.121  50.207 100.498  0.00  0.00    -0.274 OA
ATOM     27  C   LIG    1       67.163  48.869  99.959  0.00  0.00    +0.067 C 
ATOM     28  C   LIG    1       66.725  49.464  98.602  0.00  0.00    +0.025 C 
ATOM     29  C   LIG    1       66.444  49.616 101.097  0.00  0.00    +0.025 C 
ATOM     30  C   LIG    1       66.850  47.377  99.977  0.00  0.00    -0.021 A 
ATOM     31  C   LIG    1       65.527  46.906 100.009  0.00  0.00    +0.009 A 
ATOM     32  C   LIG    1       65.248  45.535  99.969  0.00  0.00    +0.046 A 
ATOM     33  C   LIG    1       66.282  44.605  99.911  0.00  0.00    +0.121 A 
ATOM     34  C   LIG    1       67.598  45.057  99.878  0.00  0.00    +0.059 A 
ATOM     35  C   LIG    1       67.880  46.430  99.888  0.00  0.00    +0.045 A 
ATOM     36  C   LIG    1       69.271  46.857  99.621  0.00  0.00    +0.253 C 
ATOM     37  O   LIG    1       70.168  46.026  99.515  0.00  0.00    -0.270 OA
BRANCH  33  38
ATOM     38  O   LIG    1       66.144  43.246  99.851  0.00  0.00    -0.495 OA
ATOM     39  C   LIG    1       64.862  42.746  99.497  0.00  0.00    +0.277 C 
ENDBRANCH  33  38
ENDBRANCH  23  24
ENDBRANCH  22  23
ENDBRANCH   4  22
TORSDOF 7
ENDMDL
MODEL 3
REMARK VINA RESULT:       2.0      2.130      6.213
REMARK  Name = 
REMARK                            x       y       z     vdW  Elec       q    Type
REMARK                         _______ _______ _______ _____ _____    ______ ____
ROOT
ATOM      1  C   LIG    1       68.672  46.618 100.506  0.00  0.00    +0.109 A 
ATOM      2  C   LIG    1       69.575  46.578  99.443  0.00  0.00    +0.029 A 
ATOM      3  C   LIG    1       69.800  47.729  98.692  0.00  0.00    +0.005 A 
ATOM      4  C   LIG    1       69.121  48.913  98.998  0.00  0.00    -0.046 A 
ATOM      5  C   LIG    1       68.224  48.934 100.084  0.00  0.00    +0.005 A 
ATOM      6  C   LIG    1       67.999  47.792 100.843  0.00  0.00    +0.029 A 
ENDROOT
BRANCH   1   7
ATOM      7  S   LIG    1       68.282  45.130 101.375  0.00  0.00    +0.076 S 
ATOM      8  O   LIG    1       68.935  44.022 100.713  0.00  0.00    -0.150 OA
ATOM      9  O   LIG    1       68.452  45.364 102.791  0.00  0.00    -0.150 OA
BRANCH   7  12
ATOM     10  O   LIG    1       64.787  45.197  99.920  0.00  0.00    -0.251 OA
ATOM     11  C   LIG    1       66.004  45.181  99.853  0.00  0.00    +0.319 C 
ATOM     12  N   LIG    1       66.672  45.049 101.052  0.00  0.00    -0.169 N 
ATOM     13  H   LIG    1       66.047  44.993 101.851  0.00  0.00    +0.178 HD
ATOM     14  N   LIG    1       66.749  45.270  98.722  0.00  0.00    -0.295 N 
ATOM     15  H   LIG    1       67.752  45.234  98.839  0.00  0.00    +0.151 HD
BRANCH  14  16
ATOM     16  C   LIG    1       66.280  45.399  97.346  0.00  0.00    +0.074 C 
ATOM     17  C   LIG    1       66.635  44.218  96.442  0.00  0.00    +0.022 C 
ATOM     18  C   LIG    1       68.057  44.252  95.895  0.00  0.00    +0.002 C 
ATOM     19  C   LIG    1       68.460  45.611  95.322  0.00  0.00    +0.000 C 
ATOM     20  C   LIG    1       68.031  46.832  96.134  0.00  0.00    +0.002 C 
ATOM     21  C   LIG    1       66.615  46.738  96.686  0.00  0.00    +0.022 C 
ENDBRANCH  14  16
ENDBRANCH   7  12
ENDBRANCH   1   7
BRANCH   4  22
ATOM     22  C   LIG    1       69.268  50.183  98.208  0.00  0.00    +0.054 C 
BRANCH  22  23
ATOM     23  C   LIG    1       68.044  50.747  97.458  0.00  0.00    +0.121 C 
BRANCH  23  24
ATOM     24  N   LIG    1       68.225  50.446  96.045  0.00  0.00    -0.237 N 
ATOM     25  C   LIG    1       69.397  50.818  95.416  0.00  0.00    +0.232 C 
ATOM     26  O   LIG    1       70.038  51.818  95.737  0.00  0.00    -0.274 OA
ATOM     27  C   LIG    1       69.926  49.778  94.419  0.00  0.00    +0.067 C 
ATOM     28  C   LIG    1       70.745  48.789  95.278  0.00  0.00    +0.025 C 
ATOM     29  C   LIG    1       70.862  50.475  93.415  0.00  0.00    +0.025 C 
ATOM     30  C   LIG    1       68.807  49.021  93.713  0.00  0.00    -0.021 A 
ATOM     31  C   LIG    1       69.076  48.098  92.690  0.00  0.00    +0.009 A 
ATOM     32  C   LIG    1       68.046  47.367  92.086  0.00  0.00    +0.046 A 
ATOM     33  C   LIG    1       66.724  47.552  92.481  0.00  0.00    +0.121 A 
ATOM     34  C   LIG    1       66.441  48.463  93.494  0.00  0.00    +0.059 A 
ATOM     35  C   LIG    1       67.473  49.175  94.120  0.00  0.00    +0.045 A 
ATOM     36  C   LIG    1       67.144  49.952  95.336  0.00  0.00    +0.253 C 
ATOM     37  O   LIG    1       65.981  50.063  95.708  0.00  0.00    -0.270 OA
BRANCH  33  38
ATOM     38  O   LIG    1       65.634  46.893  91.986  0.00  0.00    -0.495 OA
ATOM     39  C   LIG    1       64.975  45.990  92.865  0.00  0.00    +0.277 C 
ENDBRANCH  33  38
ENDBRANCH  23  24
ENDBRANCH  22  23
ENDBRANCH   4  22
TORSDOF 7
ENDMDL
MODEL 4
REMARK VINA RESULT:       2.2      2.181      5.251
REMARK  Name = 
REMARK                            x       y       z     vdW  Elec       q    Type
REMARK                         _______ _______ _______ _____ _____    ______ ____
ROOT
ATOM      1  C   LIG    1       68.669  47.610  93.387  0.00  0.00    +0.109 A 
ATOM      2  C   LIG    1       69.646  46.954  94.137  0.00  0.00    +0.029 A 
ATOM      3  C   LIG    1       69.260  46.038  95.112  0.00  0.00    +0.005 A 
ATOM      4  C   LIG    1       67.904  45.782  95.340  0.00  0.00    -0.046 A 
ATOM      5  C   LIG    1       66.936  46.445  94.562  0.00  0.00    +0.005 A 
ATOM      6  C   LIG    1       67.312  47.356  93.582  0.00  0.00    +0.029 A 
ENDROOT
BRANCH   1   7
ATOM      7  S   LIG    1       69.148  48.871  92.245  0.00  0.00    +0.076 S 
ATOM      8  O   LIG    1       70.214  48.362  91.412  0.00  0.00    -0.150 OA
ATOM      9  O   LIG    1       67.954  49.448  91.669  0.00  0.00    -0.150 OA
BRANCH   7  12
ATOM     10  O   LIG    1       70.031  51.146  95.139  0.00  0.00    -0.251 OA
ATOM     11  C   LIG    1       69.474  50.194  94.623  0.00  0.00    +0.319 C 
ATOM     12  N   LIG    1       69.790  49.954  93.302  0.00  0.00    -0.169 N 
ATOM     13  H   LIG    1       70.451  50.626  92.923  0.00  0.00    +0.178 HD
ATOM     14  N   LIG    1       68.593  49.354  95.223  0.00  0.00    -0.295 N 
ATOM     15  H   LIG    1       68.226  48.604  94.654  0.00  0.00    +0.151 HD
BRANCH  14  16
ATOM     16  C   LIG    1       68.117  49.389  96.603  0.00  0.00    +0.074 C 
ATOM     17  C   LIG    1       68.073  50.787  97.222  0.00  0.00    +0.022 C 
ATOM     18  C   LIG    1       69.417  51.286  97.738  0.00  0.00    +0.002 C 
ATOM     19  C   LIG    1       70.169  50.258  98.585  0.00  0.00    +0.000 C 
ATOM     20  C   LIG    1       70.149  48.822  98.065  0.00  0.00    +0.002 C 
ATOM     21  C   LIG    1       68.793  48.378  97.531  0.00  0.00    +0.022 C 
ENDBRANCH  14  16
ENDBRANCH   7  12
ENDBRANCH   1   7
BRANCH   4  22
ATOM     22  C   LIG    1       67.402  44.847  96.405  0.00  0.00    +0.054 C 
BRANCH  22  23
ATOM     23  C   LIG    1       66.093  45.186  97.146  0.00  0.00    +0.121 C 
BRANCH  23  24
ATOM     24  N   LIG    1       66.456  45.660  98.474  0.00  0.00    -0.237 N 
ATOM     25  C   LIG    1       66.842  44.749  99.438  0.00  0.00    +0.232 C 
ATOM     26  O   LIG    1       66.399  43.602  99.487  0.00  0.00    -0.274 OA
ATOM     27  C   LIG    1       68.005  45.227 100.318  0.00  0.00    +0.067 C 
ATOM     28  C   LIG    1       69.278  44.866  99.521  0.00  0.00    +0.025 C 
ATOM     29  C   LIG    1       67.992  44.438 101.640  0.00  0.00    +0.025 C 
ATOM     30  C   LIG    1       67.976  46.732 100.559  0.00  0.00    -0.021 A 
ATOM     31  C   LIG    1       68.893  47.355 101.420  0.00  0.00    +0.009 A 
ATOM     32  C   LIG    1       68.894  48.744 101.593  0.00  0.00    +0.046 A 
ATOM     33  C   LIG    1       67.971  49.540 100.921  0.00  0.00    +0.121 A 
ATOM     34  C   LIG    1       67.055  48.937 100.063  0.00  0.00    +0.059 A 
ATOM     35  C   LIG    1       67.071  47.550  99.866  0.00  0.00    +0.045 A 
ATOM     36  C   LIG    1       66.237  46.991  98.778  0.00  0.00    +0.253 C 
ATOM     37  O   LIG    1       65.466  47.712  98.154  0.00  0.00    -0.270 OA
BRANCH  33  38
ATOM     38  O   LIG    1       67.877  50.902 100.988  0.00  0.00    -0.495 OA
ATOM     39  C   LIG    1       68.867  51.577 101.754  0.00  0.00    +0.277 C 
ENDBRANCH  33  38
ENDBRANCH  23  24
ENDBRANCH  22  23
ENDBRANCH   4  22
TORSDOF 7
ENDMDL
MODEL 5
REMARK VINA RESULT:       2.6      2.159      5.385
REMARK  Name = 
REMARK                            x       y       z     vdW  Elec       q    Type
REMARK                         _______ _______ _______ _____ _____    ______ ____
ROOT
ATOM      1  C   LIG    1       68.798  46.775 100.492  0.00  0.00    +0.109 A 
ATOM      2  C   LIG    1       69.588  46.638  99.349  0.00  0.00    +0.029 A 
ATOM      3  C   LIG    1       70.059  47.778  98.702  0.00  0.00    +0.005 A 
ATOM      4  C   LIG    1       69.737  49.048  99.190  0.00  0.00    -0.046 A 
ATOM      5  C   LIG    1       68.950  49.162 100.352  0.00  0.00    +0.005 A 
ATOM      6  C   LIG    1       68.481  48.030 101.008  0.00  0.00    +0.029 A 
ENDROOT
BRANCH   1   7
ATOM      7  S   LIG    1       68.087  45.339 101.236  0.00  0.00    +0.076 S 
ATOM      8  O   LIG    1       68.631  44.165 100.591  0.00  0.00    -0.150 OA
ATOM      9  O   LIG    1       68.131  45.495 102.673  0.00  0.00    -0.150 OA
BRANCH   7  12
ATOM     10  O   LIG    1       64.831  45.973  99.412  0.00  0.00    -0.251 OA
ATOM     11  C   LIG    1       66.027  45.751  99.476  0.00  0.00    +0.319 C 
ATOM     12  N   LIG    1       66.531  45.528 100.740  0.00  0.00    -0.169 N 
ATOM     13  H   LIG    1       65.824  45.592 101.467  0.00  0.00    +0.178 HD
ATOM     14  N   LIG    1       66.893  45.692  98.433  0.00  0.00    -0.295 N 
ATOM     15  H   LIG    1       67.857  45.488  98.658  0.00  0.00    +0.151 HD
BRANCH  14  16
ATOM     16  C   LIG    1       66.602  45.875  97.014  0.00  0.00    +0.074 C 
ATOM     17  C   LIG    1       66.008  44.645  96.326  0.00  0.00    +0.022 C 
ATOM     18  C   LIG    1       67.035  43.598  95.917  0.00  0.00    +0.002 C 
ATOM     19  C   LIG    1       68.252  44.180  95.197  0.00  0.00    +0.000 C 
ATOM     20  C   LIG    1       68.819  45.473  95.782  0.00  0.00    +0.002 C 
ATOM     21  C   LIG    1       67.754  46.476  96.205  0.00  0.00    +0.022 C 
ENDBRANCH  14  16
ENDBRANCH   7  12
ENDBRANCH   1   7
BRANCH   4  22
ATOM     22  C   LIG    1       70.162  50.327  98.524  0.00  0.00    +0.054 C 
BRANCH  22  23
ATOM     23  C   LIG    1       69.161  51.070  97.616  0.00  0.00    +0.121 C 
BRANCH  23  24
ATOM     24  N   LIG    1       68.581  50.086  96.713  0.00  0.00    -0.237 N 
ATOM     25  C   LIG    1       67.306  49.613  96.953  0.00  0.00    +0.232 C 
ATOM     26  O   LIG    1       66.840  49.498  98.086  0.00  0.00    -0.274 OA
ATOM     27  C   LIG    1       66.461  49.427  95.685  0.00  0.00    +0.067 C 
ATOM     28  C   LIG    1       65.852  50.820  95.409  0.00  0.00    +0.025 C 
ATOM     29  C   LIG    1       65.329  48.426  95.978  0.00  0.00    +0.025 C 
ATOM     30  C   LIG    1       67.296  48.999  94.483  0.00  0.00    -0.021 A 
ATOM     31  C   LIG    1       66.700  48.678  93.253  0.00  0.00    +0.009 A 
ATOM     32  C   LIG    1       67.478  48.339  92.140  0.00  0.00    +0.046 A 
ATOM     33  C   LIG    1       68.866  48.299  92.234  0.00  0.00    +0.121 A 
ATOM     34  C   LIG    1       69.471  48.615  93.447  0.00  0.00    +0.059 A 
ATOM     35  C   LIG    1       68.697  48.983  94.555  0.00  0.00    +0.045 A 
ATOM     36  C   LIG    1       69.393  49.528  95.742  0.00  0.00    +0.253 C 
ATOM     37  O   LIG    1       70.618  49.540  95.793  0.00  0.00    -0.270 OA
BRANCH  33  38
ATOM     38  O   LIG    1       69.736  48.002  91.223  0.00  0.00    -0.495 OA
ATOM     39  C   LIG    1       70.987  48.677  91.232  0.00  0.00    +0.277 C 
ENDBRANCH  33  38
ENDBRANCH  23  24
ENDBRANCH  22  23
ENDBRANCH   4  22
TORSDOF 7
ENDMDL
MODEL 6
REMARK VINA RESULT:       2.6      2.361      5.992
REMARK  Name = 
REMARK                            x       y       z     vdW  Elec       q    Type
REMARK                         _______ _______ _______ _____ _____    ______ ____
ROOT
ATOM      1  C   LIG    1       69.237  50.171  98.837  0.00  0.00    +0.109 A 
ATOM      2  C   LIG    1       69.917  49.068  98.321  0.00  0.00    +0.029 A 
ATOM      3  C   LIG    1       70.187  49.005  96.957  0.00  0.00    +0.005 A 
ATOM      4  C   LIG    1       69.773  50.038  96.109  0.00  0.00    -0.046 A 
ATOM      5  C   LIG    1       69.100  51.148  96.652  0.00  0.00    +0.005 A 
ATOM      6  C   LIG    1       68.833  51.222  98.014  0.00  0.00    +0.029 A 
ENDROOT
BRANCH   1   7
ATOM      7  S   LIG    1       68.773  50.192 100.541  0.00  0.00    +0.076 S 
ATOM      8  O   LIG    1       69.771  49.473 101.302  0.00  0.00    -0.150 OA
ATOM      9  O   LIG    1       68.383  51.538 100.897  0.00  0.00    -0.150 OA
BRANCH   7  12
ATOM     10  O   LIG    1       66.160  47.473 100.213  0.00  0.00    -0.251 OA
ATOM     11  C   LIG    1       67.290  47.893 100.389  0.00  0.00    +0.319 C 
ATOM     12  N   LIG    1       67.419  49.264 100.458  0.00  0.00    -0.169 N 
ATOM     13  H   LIG    1       66.536  49.753 100.340  0.00  0.00    +0.178 HD
ATOM     14  N   LIG    1       68.414  47.146 100.530  0.00  0.00    -0.295 N 
ATOM     15  H   LIG    1       69.276  47.652 100.677  0.00  0.00    +0.151 HD
BRANCH  14  16
ATOM     16  C   LIG    1       68.533  45.691 100.510  0.00  0.00    +0.074 C 
ATOM     17  C   LIG    1       68.379  45.061  99.125  0.00  0.00    +0.022 C 
ATOM     18  C   LIG    1       66.935  44.888  98.672  0.00  0.00    +0.002 C 
ATOM     19  C   LIG    1       66.029  44.267  99.737  0.00  0.00    +0.000 C 
ATOM     20  C   LIG    1       66.221  44.785 101.161  0.00  0.00    +0.002 C 
ATOM     21  C   LIG    1       67.680  44.973 101.557  0.00  0.00    +0.022 C 
ENDBRANCH  14  16
ENDBRANCH   7  12
ENDBRANCH   1   7
BRANCH   4  22
ATOM     22  C   LIG    1       69.980  50.025  94.620  0.00  0.00    +0.054 C 
BRANCH  22  23
ATOM     23  C   LIG    1       68.995  49.238  93.732  0.00  0.00    +0.121 C 
BRANCH  23  24
ATOM     24  N   LIG    1       68.349  48.242  94.576  0.00  0.00    -0.237 N 
ATOM     25  C   LIG    1       67.110  48.517  95.123  0.00  0.00    +0.232 C 
ATOM     26  O   LIG    1       66.756  49.654  95.433  0.00  0.00    -0.274 OA
ATOM     27  C   LIG    1       66.152  47.318  95.129  0.00  0.00    +0.067 C 
ATOM     28  C   LIG    1       65.496  47.330  93.730  0.00  0.00    +0.025 C 
ATOM     29  C   LIG    1       65.070  47.546  96.200  0.00  0.00    +0.025 C 
ATOM     30  C   LIG    1       66.876  45.992  95.331  0.00  0.00    -0.021 A 
ATOM     31  C   LIG    1       66.171  44.785  95.469  0.00  0.00    +0.009 A 
ATOM     32  C   LIG    1       66.845  43.565  95.599  0.00  0.00    +0.046 A 
ATOM     33  C   LIG    1       68.237  43.525  95.609  0.00  0.00    +0.121 A 
ATOM     34  C   LIG    1       68.949  44.713  95.473  0.00  0.00    +0.059 A 
ATOM     35  C   LIG    1       68.277  45.932  95.313  0.00  0.00    +0.045 A 
ATOM     36  C   LIG    1       69.074  47.123  94.944  0.00  0.00    +0.253 C 
ATOM     37  O   LIG    1       70.298  47.064  94.901  0.00  0.00    -0.270 OA
BRANCH  33  38
ATOM     38  O   LIG    1       69.012  42.404  95.712  0.00  0.00    -0.495 OA
ATOM     39  C   LIG    1       68.413  41.172  95.331  0.00  0.00    +0.277 C 
ENDBRANCH  33  38
ENDBRANCH  23  24
ENDBRANCH  22  23
ENDBRANCH   4  22
TORSDOF 7
ENDMDL
MODEL 7
REMARK VINA RESULT:       2.9      2.116      6.597
REMARK  Name = 
REMARK                            x       y       z     vdW  Elec       q    Type
REMARK                         _______ _______ _______ _____ _____    ______ ____
ROOT
ATOM      1  C   LIG    1       68.677  49.951  98.452  0.00  0.00    +0.109 A 
ATOM      2  C   LIG    1       69.011  51.002  97.597  0.00  0.00    +0.029 A 
ATOM      3  C   LIG    1       68.281  51.191  96.426  0.00  0.00    +0.005 A 
ATOM      4  C   LIG    1       67.224  50.331  96.109  0.00  0.00    -0.046 A 
ATOM      5  C   LIG    1       66.896  49.285  96.993  0.00  0.00    +0.005 A 
ATOM      6  C   LIG    1       67.615  49.093  98.166  0.00  0.00    +0.029 A 
ENDROOT
BRANCH   1   7
ATOM      7  S   LIG    1       69.684  49.623  99.866  0.00  0.00    +0.076 S 
ATOM      8  O   LIG    1       70.946  50.312  99.706  0.00  0.00    -0.150 OA
ATOM      9  O   LIG    1       68.880  49.796 101.055  0.00  0.00    -0.150 OA
BRANCH   7  12
ATOM     10  O   LIG    1       69.671  45.838  99.843  0.00  0.00    -0.251 OA
ATOM     11  C   LIG    1       69.181  46.935 100.040  0.00  0.00    +0.319 C 
ATOM     12  N   LIG    1       69.940  48.015  99.642  0.00  0.00    -0.169 N 
ATOM     13  H   LIG    1       70.833  47.746  99.239  0.00  0.00    +0.178 HD
ATOM     14  N   LIG    1       67.969  47.188 100.598  0.00  0.00    -0.295 N 
ATOM     15  H   LIG    1       67.706  48.160 100.683  0.00  0.00    +0.151 HD
BRANCH  14  16
ATOM     16  C   LIG    1       66.984  46.224 101.080  0.00  0.00    +0.074 C 
ATOM     17  C   LIG    1       67.548  44.830 101.362  0.00  0.00    +0.022 C 
ATOM     18  C   LIG    1       67.707  43.956 100.124  0.00  0.00    +0.002 C 
ATOM     19  C   LIG    1       66.478  43.953  99.214  0.00  0.00    +0.000 C 
ATOM     20  C   LIG    1       65.811  45.309  98.988  0.00  0.00    +0.002 C 
ATOM     21  C   LIG    1       65.703  46.160 100.247  0.00  0.00    +0.022 C 
ENDBRANCH  14  16
ENDBRANCH   7  12
ENDBRANCH   1   7
BRANCH   4  22
ATOM     22  C   LIG    1       66.419  50.435  94.844  0.00  0.00    +0.054 C 
BRANCH  22  23
ATOM     23  C   LIG    1       67.083  50.078  93.499  0.00  0.00    +0.121 C 
BRANCH  23  24
ATOM     24  N   LIG    1       67.676  48.756  93.645  0.00  0.00    -0.237 N 
ATOM     25  C   LIG    1       69.033  48.595  93.443  0.00  0.00    +0.232 C 
ATOM     26  O   LIG    1       69.674  49.279  92.646  0.00  0.00    -0.274 OA
ATOM     27  C   LIG    1       69.700  47.628  94.431  0.00  0.00    +0.067 C 
ATOM     28  C   LIG    1       70.024  48.492  95.670  0.00  0.00    +0.025 C 
ATOM     29  C   LIG    1       71.012  47.108  93.816  0.00  0.00    +0.025 C 
ATOM     30  C   LIG    1       68.778  46.486  94.844  0.00  0.00    -0.021 A 
ATOM     31  C   LIG    1       69.230  45.438  95.662  0.00  0.00    +0.009 A 
ATOM     32  C   LIG    1       68.362  44.423  96.082  0.00  0.00    +0.046 A 
ATOM     33  C   LIG    1       67.029  44.425  95.682  0.00  0.00    +0.121 A 
ATOM     34  C   LIG    1       66.566  45.457  94.871  0.00  0.00    +0.059 A 
ATOM     35  C   LIG    1       67.425  46.490  94.474  0.00  0.00    +0.045 A 
ATOM     36  C   LIG    1       66.832  47.673  93.811  0.00  0.00    +0.253 C 
ATOM     37  O   LIG    1       65.643  47.688  93.513  0.00  0.00    -0.270 OA
BRANCH  33  38
ATOM     38  O   LIG    1       66.079  43.507  96.034  0.00  0.00    -0.495 OA
ATOM     39  C   LIG    1       66.212  42.202  95.483  0.00  0.00    +0.277 C 
ENDBRANCH  33  38
ENDBRANCH  23  24
ENDBRANCH  22  23
ENDBRANCH   4  22
TORSDOF 7
ENDMDL
MODEL 8
REMARK VINA RESULT:       3.0      2.046      4.461
REMARK  Name = 
REMARK                            x       y       z     vdW  Elec       q    Type
REMARK                         _______ _______ _______ _____ _____    ______ ____
ROOT
ATOM      1  C   LIG    1       69.970  48.680  94.873  0.00  0.00    +0.109 A 
ATOM      2  C   LIG    1       69.616  48.768  96.220  0.00  0.00    +0.029 A 
ATOM      3  C   LIG    1       69.161  47.632  96.884  0.00  0.00    +0.005 A 
ATOM      4  C   LIG    1       69.055  46.414  96.205  0.00  0.00    -0.046 A 
ATOM      5  C   LIG    1       69.430  46.345  94.849  0.00  0.00    +0.005 A 
ATOM      6  C   LIG    1       69.891  47.472  94.180  0.00  0.00    +0.029 A 
ENDROOT
BRANCH   1   7
ATOM      7  S   LIG    1       70.417  50.144  93.992  0.00  0.00    +0.076 S 
ATOM      8  O   LIG    1       69.701  51.264  94.561  0.00  0.00    -0.150 OA
ATOM      9  O   LIG    1       71.854  50.170  93.839  0.00  0.00    -0.150 OA
BRANCH   7  12
ATOM     10  O   LIG    1       68.309  48.995  91.064  0.00  0.00    -0.251 OA
ATOM     11  C   LIG    1       68.503  49.273  92.234  0.00  0.00    +0.319 C 
ATOM     12  N   LIG    1       69.746  49.790  92.533  0.00  0.00    -0.169 N 
ATOM     13  H   LIG    1       70.352  49.861  91.721  0.00  0.00    +0.178 HD
ATOM     14  N   LIG    1       67.617  49.132  93.253  0.00  0.00    -0.295 N 
ATOM     15  H   LIG    1       67.934  49.419  94.168  0.00  0.00    +0.151 HD
BRANCH  14  16
ATOM     16  C   LIG    1       66.248  48.628  93.189  0.00  0.00    +0.074 C 
ATOM     17  C   LIG    1       65.471  48.737  94.501  0.00  0.00    +0.022 C 
ATOM     18  C   LIG    1       65.768  47.625  95.499  0.00  0.00    +0.002 C 
ATOM     19  C   LIG    1       65.746  46.226  94.882  0.00  0.00    +0.000 C 
ATOM     20  C   LIG    1       66.416  46.088  93.516  0.00  0.00    +0.002 C 
ATOM     21  C   LIG    1       66.115  47.238  92.564  0.00  0.00    +0.022 C 
ENDBRANCH  14  16
ENDBRANCH   7  12
ENDBRANCH   1   7
BRANCH   4  22
ATOM     22  C   LIG    1       68.527  45.154  96.832  0.00  0.00    +0.054 C 
BRANCH  22  23
ATOM     23  C   LIG    1       67.141  45.175  97.507  0.00  0.00    +0.121 C 
BRANCH  23  24
ATOM     24  N   LIG    1       67.296  45.830  98.799  0.00  0.00    -0.237 N 
ATOM     25  C   LIG    1       67.535  45.064  99.924  0.00  0.00    +0.232 C 
ATOM     26  O   LIG    1       67.094  43.924 100.060  0.00  0.00    -0.274 OA
ATOM     27  C   LIG    1       68.549  45.684 100.895  0.00  0.00    +0.067 C 
ATOM     28  C   LIG    1       69.929  45.251 100.353  0.00  0.00    +0.025 C 
ATOM     29  C   LIG    1       68.339  45.078 102.294  0.00  0.00    +0.025 C 
ATOM     30  C   LIG    1       68.478  47.207 100.923  0.00  0.00    -0.021 A 
ATOM     31  C   LIG    1       69.251  47.961 101.820  0.00  0.00    +0.009 A 
ATOM     32  C   LIG    1       69.220  49.360 101.802  0.00  0.00    +0.046 A 
ATOM     33  C   LIG    1       68.406  50.036 100.898  0.00  0.00    +0.121 A 
ATOM     34  C   LIG    1       67.634  49.303 100.002  0.00  0.00    +0.059 A 
ATOM     35  C   LIG    1       67.685  47.902  99.999  0.00  0.00    +0.045 A 
ATOM     36  C   LIG    1       67.027  47.184  98.884  0.00  0.00    +0.253 C 
ATOM     37  O   LIG    1       66.357  47.796  98.059  0.00  0.00    -0.270 OA
BRANCH  33  38
ATOM     38  O   LIG    1       68.297  51.392 100.767  0.00  0.00    -0.495 OA
ATOM     39  C   LIG    1       68.603  52.175 101.913  0.00  0.00    +0.277 C 
ENDBRANCH  33  38
ENDBRANCH  23  24
ENDBRANCH  22  23
ENDBRANCH   4  22
TORSDOF 7
ENDMDL
