MODEL 1
REMARK VINA RESULT:     -10.6      0.000      0.000
REMARK  Name = 
REMARK                            x       y       z     vdW  Elec       q    Type
REMARK                         _______ _______ _______ _____ _____    ______ ____
ROOT
ATOM      1  C   LIG    1       37.629  35.309   6.494  0.00  0.00    +0.109 A 
ATOM      2  C   LIG    1       37.326  35.589   7.828  0.00  0.00    +0.029 A 
ATOM      3  C   LIG    1       37.454  34.585   8.784  0.00  0.00    +0.005 A 
ATOM      4  C   LIG    1       37.878  33.306   8.410  0.00  0.00    -0.046 A 
ATOM      5  C   LIG    1       38.191  33.049   7.061  0.00  0.00    +0.005 A 
ATOM      6  C   LIG    1       38.072  34.047   6.101  0.00  0.00    +0.029 A 
ENDROOT
BRANCH   1   7
ATOM      7  S   LIG    1       37.337  36.537   5.258  0.00  0.00    +0.076 S 
ATOM      8  O   LIG    1       36.175  37.310   5.637  0.00  0.00    -0.150 OA
ATOM      9  O   LIG    1       38.593  37.178   4.939  0.00  0.00    -0.150 OA
BRANCH   7  12
ATOM     10  O   LIG    1       35.667  34.595   2.470  0.00  0.00    -0.251 OA
ATOM     11  C   LIG    1       35.754  35.508   3.272  0.00  0.00    +0.319 C 
ATOM     12  N   LIG    1       36.921  35.557   4.005  0.00  0.00    -0.169 N 
ATOM     13  H   LIG    1       37.562  34.802   3.783  0.00  0.00    +0.178 HD
ATOM     14  N   LIG    1       34.826  36.473   3.497  0.00  0.00    -0.295 N 
ATOM     15  H   LIG    1       35.058  37.166   4.195  0.00  0.00    +0.151 HD
BRANCH  14  16
ATOM     16  C   LIG    1       33.532  36.644   2.844  0.00  0.00    +0.074 C 
ATOM     17  C   LIG    1       32.569  35.470   3.028  0.00  0.00    +0.022 C 
ATOM     18  C   LIG    1       32.822  34.299   2.086  0.00  0.00    +0.002 C 
ATOM     19  C   LIG    1       33.015  34.716   0.628  0.00  0.00    +0.000 C 
ATOM     20  C   LIG    1       33.882  35.953   0.396  0.00  0.00    +0.002 C 
ATOM     21  C   LIG    1       33.616  37.084   1.381  0.00  0.00    +0.022 C 
ENDBRANCH  14  16
ENDBRANCH   7  12
ENDBRANCH   1   7
BRANCH   4  22
ATOM     22  C   LIG    1       37.995  32.155   9.369  0.00  0.00    +0.054 C 
BRANCH  22  23
ATOM     23  C   LIG    1       37.575  30.745   8.907  0.00  0.00    +0.121 C 
BRANCH  23  24
ATOM     24  N   LIG    1       38.682  29.845   9.198  0.00  0.00    -0.237 N 
ATOM     25  C   LIG    1       39.572  29.517   8.192  0.00  0.00    +0.232 C 
ATOM     26  O   LIG    1       39.242  29.440   7.009  0.00  0.00    -0.274 OA
ATOM     27  C   LIG    1       41.033  29.444   8.653  0.00  0.00    +0.067 C 
ATOM     28  C   LIG    1       41.544  30.901   8.577  0.00  0.00    +0.025 C 
ATOM     29  C   LIG    1       41.829  28.574   7.664  0.00  0.00    +0.025 C 
ATOM     30  C   LIG    1       41.172  28.940  10.085  0.00  0.00    -0.021 A 
ATOM     31  C   LIG    1       42.430  28.705  10.662  0.00  0.00    +0.009 A 
ATOM     32  C   LIG    1       42.549  28.295  11.995  0.00  0.00    +0.046 A 
ATOM     33  C   LIG    1       41.415  28.097  12.777  0.00  0.00    +0.121 A 
ATOM     34  C   LIG    1       40.160  28.326  12.219  0.00  0.00    +0.059 A 
ATOM     35  C   LIG    1       40.039  28.765  10.894  0.00  0.00    +0.045 A 
ATOM     36  C   LIG    1       38.708  29.212  10.427  0.00  0.00    +0.253 C 
ATOM     37  O   LIG    1       37.722  29.085  11.145  0.00  0.00    -0.270 OA
BRANCH  33  38
ATOM     38  O   LIG    1       41.394  27.716  14.089  0.00  0.00    -0.495 OA
ATOM     39  C   LIG    1       41.666  26.348  14.365  0.00  0.00    +0.277 C 
ENDBRANCH  33  38
ENDBRANCH  23  24
ENDBRANCH  22  23
ENDBRANCH   4  22
TORSDOF 7
ENDMDL
MODEL 2
REMARK VINA RESULT:     -10.0      1.678      2.399
REMARK  Name = 
REMARK                            x       y       z     vdW  Elec       q    Type
REMARK                         _______ _______ _______ _____ _____    ______ ____
ROOT
ATOM      1  C   LIG    1       38.040  34.779   6.204  0.00  0.00    +0.109 A 
ATOM      2  C   LIG    1       37.500  34.654   7.485  0.00  0.00    +0.029 A 
ATOM      3  C   LIG    1       37.923  33.615   8.309  0.00  0.00    +0.005 A 
ATOM      4  C   LIG    1       38.879  32.701   7.855  0.00  0.00    -0.046 A 
ATOM      5  C   LIG    1       39.421  32.853   6.564  0.00  0.00    +0.005 A 
ATOM      6  C   LIG    1       39.009  33.891   5.737  0.00  0.00    +0.029 A 
ENDROOT
BRANCH   1   7
ATOM      7  S   LIG    1       37.409  36.011   5.107  0.00  0.00    +0.076 S 
ATOM      8  O   LIG    1       36.302  36.682   5.751  0.00  0.00    -0.150 OA
ATOM      9  O   LIG    1       38.521  36.753   4.558  0.00  0.00    -0.150 OA
BRANCH   7  12
ATOM     10  O   LIG    1       35.382  34.207   2.467  0.00  0.00    -0.251 OA
ATOM     11  C   LIG    1       35.645  35.146   3.196  0.00  0.00    +0.319 C 
ATOM     12  N   LIG    1       36.806  35.033   3.931  0.00  0.00    -0.169 N 
ATOM     13  H   LIG    1       37.293  34.156   3.771  0.00  0.00    +0.178 HD
ATOM     14  N   LIG    1       34.915  36.282   3.341  0.00  0.00    -0.295 N 
ATOM     15  H   LIG    1       35.278  36.971   3.985  0.00  0.00    +0.151 HD
BRANCH  14  16
ATOM     16  C   LIG    1       33.670  36.641   2.669  0.00  0.00    +0.074 C 
ATOM     17  C   LIG    1       32.515  35.668   2.912  0.00  0.00    +0.022 C 
ATOM     18  C   LIG    1       32.554  34.419   2.042  0.00  0.00    +0.002 C 
ATOM     19  C   LIG    1       32.815  34.710   0.563  0.00  0.00    +0.000 C 
ATOM     20  C   LIG    1       33.886  35.758   0.268  0.00  0.00    +0.002 C 
ATOM     21  C   LIG    1       33.827  36.974   1.184  0.00  0.00    +0.022 C 
ENDBRANCH  14  16
ENDBRANCH   7  12
ENDBRANCH   1   7
BRANCH   4  22
ATOM     22  C   LIG    1       39.353  31.524   8.661  0.00  0.00    +0.054 C 
BRANCH  22  23
ATOM     23  C   LIG    1       38.676  31.217  10.012  0.00  0.00    +0.121 C 
BRANCH  23  24
ATOM     24  N   LIG    1       39.036  29.854  10.377  0.00  0.00    -0.237 N 
ATOM     25  C   LIG    1       38.058  28.878  10.402  0.00  0.00    +0.232 C 
ATOM     26  O   LIG    1       36.885  29.116  10.690  0.00  0.00    -0.274 OA
ATOM     27  C   LIG    1       38.520  27.520   9.857  0.00  0.00    +0.067 C 
ATOM     28  C   LIG    1       38.326  27.622   8.327  0.00  0.00    +0.025 C 
ATOM     29  C   LIG    1       37.601  26.417  10.412  0.00  0.00    +0.025 C 
ATOM     30  C   LIG    1       39.987  27.236  10.157  0.00  0.00    -0.021 A 
ATOM     31  C   LIG    1       40.578  26.005   9.832  0.00  0.00    +0.009 A 
ATOM     32  C   LIG    1       41.939  25.773  10.062  0.00  0.00    +0.046 A 
ATOM     33  C   LIG    1       42.737  26.761  10.633  0.00  0.00    +0.121 A 
ATOM     34  C   LIG    1       42.166  27.987  10.960  0.00  0.00    +0.059 A 
ATOM     35  C   LIG    1       40.810  28.232  10.704  0.00  0.00    +0.045 A 
ATOM     36  C   LIG    1       40.312  29.617  10.856  0.00  0.00    +0.253 C 
ATOM     37  O   LIG    1       41.040  30.494  11.308  0.00  0.00    -0.270 OA
BRANCH  33  38
ATOM     38  O   LIG    1       44.076  26.668  10.892  0.00  0.00    -0.495 OA
ATOM     39  C   LIG    1       44.922  26.354   9.794  0.00  0.00    +0.277 C 
ENDBRANCH  33  38
ENDBRANCH  23  24
ENDBRANCH  22  23
ENDBRANCH   4  22
TORSDOF 7
ENDMDL
MODEL 3
REMARK VINA RESULT:      -8.0      4.769     13.684
REMARK  Name = 
REMARK                            x       y       z     vdW  Elec       q    Type
REMARK                         _______ _______ _______ _____ _____    ______ ____
ROOT
ATOM      1  C   LIG    1       42.483  26.235  12.788  0.00  0.00    +0.109 A 
ATOM      2  C   LIG    1       42.975  25.990  11.506  0.00  0.00    +0.029 A 
ATOM      3  C   LIG    1       42.813  26.955  10.514  0.00  0.00    +0.005 A 
ATOM      4  C   LIG    1       42.157  28.156  10.802  0.00  0.00    -0.046 A 
ATOM      5  C   LIG    1       41.680  28.387  12.106  0.00  0.00    +0.005 A 
ATOM      6  C   LIG    1       41.843  27.433  13.103  0.00  0.00    +0.029 A 
ENDROOT
BRANCH   1   7
ATOM      7  S   LIG    1       42.565  24.962  14.011  0.00  0.00    +0.076 S 
ATOM      8  O   LIG    1       42.562  25.576  15.320  0.00  0.00    -0.150 OA
ATOM      9  O   LIG    1       41.615  23.928  13.664  0.00  0.00    -0.150 OA
BRANCH   7  12
ATOM     10  O   LIG    1       46.179  23.835  14.064  0.00  0.00    -0.251 OA
ATOM     11  C   LIG    1       45.114  24.132  14.577  0.00  0.00    +0.319 C 
ATOM     12  N   LIG    1       44.079  24.400  13.706  0.00  0.00    -0.169 N 
ATOM     13  H   LIG    1       44.351  24.323  12.731  0.00  0.00    +0.178 HD
ATOM     14  N   LIG    1       44.856  24.212  15.907  0.00  0.00    -0.295 N 
ATOM     15  H   LIG    1       43.914  24.465  16.169  0.00  0.00    +0.151 HD
BRANCH  14  16
ATOM     16  C   LIG    1       45.772  23.963  17.016  0.00  0.00    +0.074 C 
ATOM     17  C   LIG    1       47.154  24.597  16.851  0.00  0.00    +0.022 C 
ATOM     18  C   LIG    1       48.106  23.804  15.965  0.00  0.00    +0.002 C 
ATOM     19  C   LIG    1       48.148  22.310  16.293  0.00  0.00    +0.000 C 
ATOM     20  C   LIG    1       46.799  21.651  16.576  0.00  0.00    +0.002 C 
ATOM     21  C   LIG    1       45.869  22.495  17.437  0.00  0.00    +0.022 C 
ENDBRANCH  14  16
ENDBRANCH   7  12
ENDBRANCH   1   7
BRANCH   4  22
ATOM     22  C   LIG    1       41.896  29.226   9.779  0.00  0.00    +0.054 C 
BRANCH  22  23
ATOM     23  C   LIG    1       41.533  28.816   8.338  0.00  0.00    +0.121 C 
BRANCH  23  24
ATOM     24  N   LIG    1       40.313  29.525   7.979  0.00  0.00    -0.237 N 
ATOM     25  C   LIG    1       39.088  28.943   8.243  0.00  0.00    +0.232 C 
ATOM     26  O   LIG    1       38.910  27.726   8.226  0.00  0.00    -0.274 OA
ATOM     27  C   LIG    1       38.024  29.931   8.743  0.00  0.00    +0.067 C 
ATOM     28  C   LIG    1       38.264  30.029  10.266  0.00  0.00    +0.025 C 
ATOM     29  C   LIG    1       36.628  29.337   8.485  0.00  0.00    +0.025 C 
ATOM     30  C   LIG    1       38.173  31.315   8.122  0.00  0.00    -0.021 A 
ATOM     31  C   LIG    1       37.239  32.334   8.370  0.00  0.00    +0.009 A 
ATOM     32  C   LIG    1       37.413  33.618   7.841  0.00  0.00    +0.046 A 
ATOM     33  C   LIG    1       38.514  33.909   7.040  0.00  0.00    +0.121 A 
ATOM     34  C   LIG    1       39.448  32.909   6.786  0.00  0.00    +0.059 A 
ATOM     35  C   LIG    1       39.292  31.631   7.339  0.00  0.00    +0.045 A 
ATOM     36  C   LIG    1       40.422  30.681   7.228  0.00  0.00    +0.253 C 
ATOM     37  O   LIG    1       41.413  30.969   6.565  0.00  0.00    -0.270 OA
BRANCH  33  38
ATOM     38  O   LIG    1       38.807  35.119   6.479  0.00  0.00    -0.495 OA
ATOM     39  C   LIG    1       37.750  36.068   6.407  0.00  0.00    +0.277 C 
ENDBRANCH  33  38
ENDBRANCH  23  24
ENDBRANCH  22  23
ENDBRANCH   4  22
TORSDOF 7
ENDMDL
MODEL 4
REMARK VINA RESULT:      -7.9      4.386     11.061
REMARK  Name = 
REMARK                            x       y       z     vdW  Elec       q    Type
REMARK                         _______ _______ _______ _____ _____    ______ ____
ROOT
ATOM      1  C   LIG    1       41.916  25.584  11.703  0.00  0.00    +0.109 A 
ATOM      2  C   LIG    1       43.016  26.070  10.995  0.00  0.00    +0.029 A 
ATOM      3  C   LIG    1       42.811  26.794   9.824  0.00  0.00    +0.005 A 
ATOM      4  C   LIG    1       41.513  27.027   9.358  0.00  0.00    -0.046 A 
ATOM      5  C   LIG    1       40.417  26.539  10.095  0.00  0.00    +0.005 A 
ATOM      6  C   LIG    1       40.612  25.821  11.269  0.00  0.00    +0.029 A 
ENDROOT
BRANCH   1   7
ATOM      7  S   LIG    1       42.173  24.550  13.112  0.00  0.00    +0.076 S 
ATOM      8  O   LIG    1       41.475  23.301  12.904  0.00  0.00    -0.150 OA
ATOM      9  O   LIG    1       43.577  24.578  13.454  0.00  0.00    -0.150 OA
BRANCH   7  12
ATOM     10  O   LIG    1       40.754  27.141  15.480  0.00  0.00    -0.251 OA
ATOM     11  C   LIG    1       41.385  26.775  14.505  0.00  0.00    +0.319 C 
ATOM     12  N   LIG    1       41.348  25.423  14.235  0.00  0.00    -0.169 N 
ATOM     13  H   LIG    1       40.796  24.899  14.907  0.00  0.00    +0.178 HD
ATOM     14  N   LIG    1       42.102  27.566  13.666  0.00  0.00    -0.295 N 
ATOM     15  H   LIG    1       42.564  27.104  12.896  0.00  0.00    +0.151 HD
BRANCH  14  16
ATOM     16  C   LIG    1       42.280  29.014  13.731  0.00  0.00    +0.074 C 
ATOM     17  C   LIG    1       41.249  29.815  12.934  0.00  0.00    +0.022 C 
ATOM     18  C   LIG    1       41.544  29.907  11.443  0.00  0.00    +0.002 C 
ATOM     19  C   LIG    1       42.994  30.278  11.126  0.00  0.00    +0.000 C 
ATOM     20  C   LIG    1       44.060  29.586  11.972  0.00  0.00    +0.002 C 
ATOM     21  C   LIG    1       43.707  29.488  13.451  0.00  0.00    +0.022 C 
ENDBRANCH  14  16
ENDBRANCH   7  12
ENDBRANCH   1   7
BRANCH   4  22
ATOM     22  C   LIG    1       41.206  27.755   8.079  0.00  0.00    +0.054 C 
BRANCH  22  23
ATOM     23  C   LIG    1       41.523  29.261   7.976  0.00  0.00    +0.121 C 
BRANCH  23  24
ATOM     24  N   LIG    1       40.270  29.950   7.701  0.00  0.00    -0.237 N 
ATOM     25  C   LIG    1       39.073  29.308   7.951  0.00  0.00    +0.232 C 
ATOM     26  O   LIG    1       38.936  28.089   7.848  0.00  0.00    -0.274 OA
ATOM     27  C   LIG    1       37.991  30.217   8.549  0.00  0.00    +0.067 C 
ATOM     28  C   LIG    1       38.268  30.213  10.069  0.00  0.00    +0.025 C 
ATOM     29  C   LIG    1       36.608  29.595   8.283  0.00  0.00    +0.025 C 
ATOM     30  C   LIG    1       38.076  31.648   8.030  0.00  0.00    -0.021 A 
ATOM     31  C   LIG    1       37.116  32.612   8.375  0.00  0.00    +0.009 A 
ATOM     32  C   LIG    1       37.232  33.937   7.938  0.00  0.00    +0.046 A 
ATOM     33  C   LIG    1       38.301  34.324   7.135  0.00  0.00    +0.121 A 
ATOM     34  C   LIG    1       39.261  33.379   6.784  0.00  0.00    +0.059 A 
ATOM     35  C   LIG    1       39.163  32.059   7.244  0.00  0.00    +0.045 A 
ATOM     36  C   LIG    1       40.320  31.161   7.036  0.00  0.00    +0.253 C 
ATOM     37  O   LIG    1       41.283  31.531   6.372  0.00  0.00    -0.270 OA
BRANCH  33  38
ATOM     38  O   LIG    1       38.538  35.582   6.657  0.00  0.00    -0.495 OA
ATOM     39  C   LIG    1       37.810  35.979   5.502  0.00  0.00    +0.277 C 
ENDBRANCH  33  38
ENDBRANCH  23  24
ENDBRANCH  22  23
ENDBRANCH   4  22
TORSDOF 7
ENDMDL
MODEL 5
REMARK VINA RESULT:      -7.9      4.211     11.174
REMARK  Name = 
REMARK                            x       y       z     vdW  Elec       q    Type
REMARK                         _______ _______ _______ _____ _____    ______ ____
ROOT
ATOM      1  C   LIG    1       41.288  27.287  13.401  0.00  0.00    +0.109 A 
ATOM      2  C   LIG    1       42.301  28.238  13.524  0.00  0.00    +0.029 A 
ATOM      3  C   LIG    1       42.425  29.237  12.562  0.00  0.00    +0.005 A 
ATOM      4  C   LIG    1       41.543  29.282  11.478  0.00  0.00    -0.046 A 
ATOM      5  C   LIG    1       40.519  28.320  11.380  0.00  0.00    +0.005 A 
ATOM      6  C   LIG    1       40.384  27.324  12.339  0.00  0.00    +0.029 A 
ENDROOT
BRANCH   1   7
ATOM      7  S   LIG    1       41.211  25.940  14.542  0.00  0.00    +0.076 S 
ATOM      8  O   LIG    1       41.083  26.474  15.880  0.00  0.00    -0.150 OA
ATOM      9  O   LIG    1       40.282  24.957  14.034  0.00  0.00    -0.150 OA
BRANCH   7  12
ATOM     10  O   LIG    1       44.504  24.473  13.386  0.00  0.00    -0.251 OA
ATOM     11  C   LIG    1       43.416  24.995  13.218  0.00  0.00    +0.319 C 
ATOM     12  N   LIG    1       42.737  25.355  14.362  0.00  0.00    -0.169 N 
ATOM     13  H   LIG    1       43.240  25.120  15.213  0.00  0.00    +0.178 HD
ATOM     14  N   LIG    1       42.826  25.260  12.024  0.00  0.00    -0.295 N 
ATOM     15  H   LIG    1       41.920  25.706  12.059  0.00  0.00    +0.151 HD
BRANCH  14  16
ATOM     16  C   LIG    1       43.346  24.992  10.687  0.00  0.00    +0.074 C 
ATOM     17  C   LIG    1       44.563  25.834  10.300  0.00  0.00    +0.022 C 
ATOM     18  C   LIG    1       44.226  27.240   9.820  0.00  0.00    +0.002 C 
ATOM     19  C   LIG    1       43.094  27.283   8.793  0.00  0.00    +0.000 C 
ATOM     20  C   LIG    1       41.899  26.374   9.078  0.00  0.00    +0.002 C 
ATOM     21  C   LIG    1       42.284  24.990   9.585  0.00  0.00    +0.022 C 
ENDBRANCH  14  16
ENDBRANCH   7  12
ENDBRANCH   1   7
BRANCH   4  22
ATOM     22  C   LIG    1       41.637  30.295  10.371  0.00  0.00    +0.054 C 
BRANCH  22  23
ATOM     23  C   LIG    1       41.587  29.814   8.907  0.00  0.00    +0.121 C 
BRANCH  23  24
ATOM     24  N   LIG    1       40.360  30.336   8.321  0.00  0.00    -0.237 N 
ATOM     25  C   LIG    1       39.193  29.603   8.425  0.00  0.00    +0.232 C 
ATOM     26  O   LIG    1       39.179  28.373   8.454  0.00  0.00    -0.274 OA
ATOM     27  C   LIG    1       37.945  30.455   8.694  0.00  0.00    +0.067 C 
ATOM     28  C   LIG    1       37.919  30.644  10.227  0.00  0.00    +0.025 C 
ATOM     29  C   LIG    1       36.696  29.667   8.259  0.00  0.00    +0.025 C 
ATOM     30  C   LIG    1       38.013  31.821   8.023  0.00  0.00    -0.021 A 
ATOM     31  C   LIG    1       36.928  32.713   8.061  0.00  0.00    +0.009 A 
ATOM     32  C   LIG    1       37.019  33.987   7.489  0.00  0.00    +0.046 A 
ATOM     33  C   LIG    1       38.189  34.394   6.854  0.00  0.00    +0.121 A 
ATOM     34  C   LIG    1       39.273  33.522   6.808  0.00  0.00    +0.059 A 
ATOM     35  C   LIG    1       39.195  32.256   7.405  0.00  0.00    +0.045 A 
ATOM     36  C   LIG    1       40.440  31.467   7.528  0.00  0.00    +0.253 C 
ATOM     37  O   LIG    1       41.480  31.861   7.012  0.00  0.00    -0.270 OA
BRANCH  33  38
ATOM     38  O   LIG    1       38.411  35.611   6.274  0.00  0.00    -0.495 OA
ATOM     39  C   LIG    1       37.413  36.089   5.381  0.00  0.00    +0.277 C 
ENDBRANCH  33  38
ENDBRANCH  23  24
ENDBRANCH  22  23
ENDBRANCH   4  22
TORSDOF 7
ENDMDL
