MODEL 1
REMARK VINA RESULT:     -10.2      0.000      0.000
REMARK  Name = 
REMARK                            x       y       z     vdW  Elec       q    Type
REMARK                         _______ _______ _______ _____ _____    ______ ____
ROOT
ATOM      1  C   LIG    1        9.213  -4.184  28.122  0.00  0.00    +0.109 A 
ATOM      2  C   LIG    1       10.286  -3.682  27.385  0.00  0.00    +0.029 A 
ATOM      3  C   LIG    1       10.115  -3.401  26.032  0.00  0.00    +0.005 A 
ATOM      4  C   LIG    1        8.879  -3.626  25.416  0.00  0.00    -0.046 A 
ATOM      5  C   LIG    1        7.807  -4.121  26.183  0.00  0.00    +0.005 A 
ATOM      6  C   LIG    1        7.966  -4.398  27.535  0.00  0.00    +0.029 A 
ENDROOT
BRANCH   1   7
ATOM      7  S   LIG    1        9.461  -4.670  29.803  0.00  0.00    +0.076 S 
ATOM      8  O   LIG    1        8.723  -5.889  30.047  0.00  0.00    -0.150 OA
ATOM      9  O   LIG    1       10.871  -4.572  30.108  0.00  0.00    -0.150 OA
BRANCH   7  12
ATOM     10  O   LIG    1        8.386  -1.559  31.672  0.00  0.00    -0.251 OA
ATOM     11  C   LIG    1        9.177  -2.248  31.052  0.00  0.00    +0.319 C 
ATOM     12  N   LIG    1        8.680  -3.434  30.553  0.00  0.00    -0.169 N 
ATOM     13  H   LIG    1        7.702  -3.583  30.785  0.00  0.00    +0.178 HD
ATOM     14  N   LIG    1       10.478  -1.955  30.803  0.00  0.00    -0.295 N 
ATOM     15  H   LIG    1       10.998  -2.633  30.264  0.00  0.00    +0.151 HD
BRANCH  14  16
ATOM     16  C   LIG    1       11.224  -0.766  31.206  0.00  0.00    +0.074 C 
ATOM     17  C   LIG    1       11.930  -0.041  30.059  0.00  0.00    +0.022 C 
ATOM     18  C   LIG    1       13.260  -0.662  29.651  0.00  0.00    +0.002 C 
ATOM     19  C   LIG    1       14.174  -0.985  30.833  0.00  0.00    +0.000 C 
ATOM     20  C   LIG    1       13.496  -1.611  32.050  0.00  0.00    +0.002 C 
ATOM     21  C   LIG    1       12.155  -0.980  32.401  0.00  0.00    +0.022 C 
ENDBRANCH  14  16
ENDBRANCH   7  12
ENDBRANCH   1   7
BRANCH   4  22
ATOM     22  C   LIG    1        8.625  -3.397  23.953  0.00  0.00    +0.054 C 
BRANCH  22  23
ATOM     23  C   LIG    1        7.945  -4.507  23.126  0.00  0.00    +0.121 C 
BRANCH  23  24
ATOM     24  N   LIG    1        8.047  -4.127  21.723  0.00  0.00    -0.237 N 
ATOM     25  C   LIG    1        6.979  -3.500  21.110  0.00  0.00    +0.232 C 
ATOM     26  O   LIG    1        5.809  -3.720  21.423  0.00  0.00    -0.274 OA
ATOM     27  C   LIG    1        7.385  -2.376  20.148  0.00  0.00    +0.067 C 
ATOM     28  C   LIG    1        7.553  -1.130  21.046  0.00  0.00    +0.025 C 
ATOM     29  C   LIG    1        6.240  -2.132  19.149  0.00  0.00    +0.025 C 
ATOM     30  C   LIG    1        8.703  -2.662  19.437  0.00  0.00    -0.021 A 
ATOM     31  C   LIG    1        9.200  -1.806  18.441  0.00  0.00    +0.009 A 
ATOM     32  C   LIG    1       10.437  -2.046  17.832  0.00  0.00    +0.046 A 
ATOM     33  C   LIG    1       11.199  -3.154  18.194  0.00  0.00    +0.121 A 
ATOM     34  C   LIG    1       10.720  -4.011  19.181  0.00  0.00    +0.059 A 
ATOM     35  C   LIG    1        9.495  -3.757  19.813  0.00  0.00    +0.045 A 
ATOM     36  C   LIG    1        9.146  -4.562  21.004  0.00  0.00    +0.253 C 
ATOM     37  O   LIG    1        9.854  -5.502  21.349  0.00  0.00    -0.270 OA
BRANCH  33  38
ATOM     38  O   LIG    1       12.424  -3.491  17.692  0.00  0.00    -0.495 OA
ATOM     39  C   LIG    1       12.482  -3.828  16.312  0.00  0.00    +0.277 C 
ENDBRANCH  33  38
ENDBRANCH  23  24
ENDBRANCH  22  23
ENDBRANCH   4  22
TORSDOF 7
ENDMDL
MODEL 2
REMARK VINA RESULT:      -9.8      1.256      2.189
REMARK  Name = 
REMARK                            x       y       z     vdW  Elec       q    Type
REMARK                         _______ _______ _______ _____ _____    ______ ____
ROOT
ATOM      1  C   LIG    1        8.922  -4.165  28.095  0.00  0.00    +0.109 A 
ATOM      2  C   LIG    1        7.675  -4.360  27.500  0.00  0.00    +0.029 A 
ATOM      3  C   LIG    1        7.540  -4.198  26.124  0.00  0.00    +0.005 A 
ATOM      4  C   LIG    1        8.645  -3.837  25.346  0.00  0.00    -0.046 A 
ATOM      5  C   LIG    1        9.897  -3.659  25.965  0.00  0.00    +0.005 A 
ATOM      6  C   LIG    1       10.042  -3.825  27.337  0.00  0.00    +0.029 A 
ENDROOT
BRANCH   1   7
ATOM      7  S   LIG    1        9.070  -4.235  29.854  0.00  0.00    +0.076 S 
ATOM      8  O   LIG    1        8.222  -3.216  30.431  0.00  0.00    -0.150 OA
ATOM      9  O   LIG    1        8.973  -5.616  30.271  0.00  0.00    -0.150 OA
BRANCH   7  12
ATOM     10  O   LIG    1       12.358  -2.469  30.487  0.00  0.00    -0.251 OA
ATOM     11  C   LIG    1       11.160  -2.642  30.629  0.00  0.00    +0.319 C 
ATOM     12  N   LIG    1       10.634  -3.755  30.008  0.00  0.00    -0.169 N 
ATOM     13  H   LIG    1       11.329  -4.288  29.494  0.00  0.00    +0.178 HD
ATOM     14  N   LIG    1       10.312  -1.856  31.341  0.00  0.00    -0.295 N 
ATOM     15  H   LIG    1        9.344  -2.146  31.365  0.00  0.00    +0.151 HD
BRANCH  14  16
ATOM     16  C   LIG    1       10.627  -0.646  32.092  0.00  0.00    +0.074 C 
ATOM     17  C   LIG    1        9.551  -0.223  33.093  0.00  0.00    +0.022 C 
ATOM     18  C   LIG    1        8.385   0.538  32.475  0.00  0.00    +0.002 C 
ATOM     19  C   LIG    1        8.817   1.655  31.524  0.00  0.00    +0.000 C 
ATOM     20  C   LIG    1        9.966   1.318  30.576  0.00  0.00    +0.002 C 
ATOM     21  C   LIG    1       11.093   0.529  31.231  0.00  0.00    +0.022 C 
ENDBRANCH  14  16
ENDBRANCH   7  12
ENDBRANCH   1   7
BRANCH   4  22
ATOM     22  C   LIG    1        8.575  -3.594  23.864  0.00  0.00    +0.054 C 
BRANCH  22  23
ATOM     23  C   LIG    1        7.785  -4.577  22.978  0.00  0.00    +0.121 C 
BRANCH  23  24
ATOM     24  N   LIG    1        7.927  -4.129  21.599  0.00  0.00    -0.237 N 
ATOM     25  C   LIG    1        6.897  -3.427  21.004  0.00  0.00    +0.232 C 
ATOM     26  O   LIG    1        5.714  -3.612  21.286  0.00  0.00    -0.274 OA
ATOM     27  C   LIG    1        7.366  -2.272  20.108  0.00  0.00    +0.067 C 
ATOM     28  C   LIG    1        7.570  -1.083  21.073  0.00  0.00    +0.025 C 
ATOM     29  C   LIG    1        6.250  -1.928  19.106  0.00  0.00    +0.025 C 
ATOM     30  C   LIG    1        8.684  -2.576  19.404  0.00  0.00    -0.021 A 
ATOM     31  C   LIG    1        9.233  -1.691  18.462  0.00  0.00    +0.009 A 
ATOM     32  C   LIG    1       10.470  -1.952  17.861  0.00  0.00    +0.046 A 
ATOM     33  C   LIG    1       11.178  -3.107  18.176  0.00  0.00    +0.121 A 
ATOM     34  C   LIG    1       10.647  -3.994  19.108  0.00  0.00    +0.059 A 
ATOM     35  C   LIG    1        9.423  -3.721  19.733  0.00  0.00    +0.045 A 
ATOM     36  C   LIG    1        9.019  -4.572  20.875  0.00  0.00    +0.253 C 
ATOM     37  O   LIG    1        9.681  -5.558  21.181  0.00  0.00    -0.270 OA
BRANCH  33  38
ATOM     38  O   LIG    1       12.397  -3.469  17.675  0.00  0.00    -0.495 OA
ATOM     39  C   LIG    1       12.457  -3.776  16.288  0.00  0.00    +0.277 C 
ENDBRANCH  33  38
ENDBRANCH  23  24
ENDBRANCH  22  23
ENDBRANCH   4  22
TORSDOF 7
ENDMDL
MODEL 3
REMARK VINA RESULT:      -9.4      2.719     11.041
REMARK  Name = 
REMARK                            x       y       z     vdW  Elec       q    Type
REMARK                         _______ _______ _______ _____ _____    ______ ____
ROOT
ATOM      1  C   LIG    1        9.119  -4.263  23.074  0.00  0.00    +0.109 A 
ATOM      2  C   LIG    1       10.469  -4.492  22.803  0.00  0.00    +0.029 A 
ATOM      3  C   LIG    1       11.426  -4.147  23.754  0.00  0.00    +0.005 A 
ATOM      4  C   LIG    1       11.037  -3.572  24.968  0.00  0.00    -0.046 A 
ATOM      5  C   LIG    1        9.669  -3.362  25.226  0.00  0.00    +0.005 A 
ATOM      6  C   LIG    1        8.706  -3.710  24.285  0.00  0.00    +0.029 A 
ENDROOT
BRANCH   1   7
ATOM      7  S   LIG    1        7.914  -4.571  21.819  0.00  0.00    +0.076 S 
ATOM      8  O   LIG    1        8.064  -5.933  21.357  0.00  0.00    -0.150 OA
ATOM      9  O   LIG    1        6.637  -4.069  22.273  0.00  0.00    -0.150 OA
BRANCH   7  12
ATOM     10  O   LIG    1        8.476  -2.031  19.068  0.00  0.00    -0.251 OA
ATOM     11  C   LIG    1        7.847  -2.543  19.977  0.00  0.00    +0.319 C 
ATOM     12  N   LIG    1        8.484  -3.563  20.652  0.00  0.00    -0.169 N 
ATOM     13  H   LIG    1        9.409  -3.764  20.286  0.00  0.00    +0.178 HD
ATOM     14  N   LIG    1        6.599  -2.199  20.386  0.00  0.00    -0.295 N 
ATOM     15  H   LIG    1        6.220  -2.721  21.164  0.00  0.00    +0.151 HD
BRANCH  14  16
ATOM     16  C   LIG    1        5.734  -1.153  19.848  0.00  0.00    +0.074 C 
ATOM     17  C   LIG    1        4.763  -0.549  20.863  0.00  0.00    +0.022 C 
ATOM     18  C   LIG    1        3.508  -1.379  21.100  0.00  0.00    +0.002 C 
ATOM     19  C   LIG    1        2.836  -1.857  19.812  0.00  0.00    +0.000 C 
ATOM     20  C   LIG    1        3.775  -2.368  18.720  0.00  0.00    +0.002 C 
ATOM     21  C   LIG    1        5.031  -1.525  18.542  0.00  0.00    +0.022 C 
ENDBRANCH  14  16
ENDBRANCH   7  12
ENDBRANCH   1   7
BRANCH   4  22
ATOM     22  C   LIG    1       12.008  -3.126  26.025  0.00  0.00    +0.054 C 
BRANCH  22  23
ATOM     23  C   LIG    1       11.659  -1.903  26.897  0.00  0.00    +0.121 C 
BRANCH  23  24
ATOM     24  N   LIG    1       11.909  -2.272  28.283  0.00  0.00    -0.237 N 
ATOM     25  C   LIG    1       13.067  -1.843  28.902  0.00  0.00    +0.232 C 
ATOM     26  O   LIG    1       14.124  -1.675  28.295  0.00  0.00    -0.274 OA
ATOM     27  C   LIG    1       12.871  -1.415  30.363  0.00  0.00    +0.067 C 
ATOM     28  C   LIG    1       12.413   0.058  30.284  0.00  0.00    +0.025 C 
ATOM     29  C   LIG    1       14.224  -1.488  31.093  0.00  0.00    +0.025 C 
ATOM     30  C   LIG    1       11.801  -2.235  31.075  0.00  0.00    -0.021 A 
ATOM     31  C   LIG    1       11.540  -2.069  32.445  0.00  0.00    +0.009 A 
ATOM     32  C   LIG    1       10.518  -2.786  33.078  0.00  0.00    +0.046 A 
ATOM     33  C   LIG    1        9.744  -3.694  32.361  0.00  0.00    +0.121 A 
ATOM     34  C   LIG    1        9.991  -3.870  31.002  0.00  0.00    +0.059 A 
ATOM     35  C   LIG    1       10.994  -3.131  30.359  0.00  0.00    +0.045 A 
ATOM     36  C   LIG    1       11.059  -3.185  28.882  0.00  0.00    +0.253 C 
ATOM     37  O   LIG    1       10.334  -3.949  28.254  0.00  0.00    -0.270 OA
BRANCH  33  38
ATOM     38  O   LIG    1        8.711  -4.441  32.854  0.00  0.00    -0.495 OA
ATOM     39  C   LIG    1        7.396  -3.966  32.598  0.00  0.00    +0.277 C 
ENDBRANCH  33  38
ENDBRANCH  23  24
ENDBRANCH  22  23
ENDBRANCH   4  22
TORSDOF 7
ENDMDL
MODEL 4
REMARK VINA RESULT:      -9.1      1.628      2.511
REMARK  Name = 
REMARK                            x       y       z     vdW  Elec       q    Type
REMARK                         _______ _______ _______ _____ _____    ______ ____
ROOT
ATOM      1  C   LIG    1       10.370  -3.417  27.769  0.00  0.00    +0.109 A 
ATOM      2  C   LIG    1        9.074  -3.927  27.691  0.00  0.00    +0.029 A 
ATOM      3  C   LIG    1        8.465  -4.064  26.447  0.00  0.00    +0.005 A 
ATOM      4  C   LIG    1        9.146  -3.688  25.284  0.00  0.00    -0.046 A 
ATOM      5  C   LIG    1       10.459  -3.188  25.385  0.00  0.00    +0.005 A 
ATOM      6  C   LIG    1       11.076  -3.055  26.622  0.00  0.00    +0.029 A 
ENDROOT
BRANCH   1   7
ATOM      7  S   LIG    1       11.095  -3.114  29.351  0.00  0.00    +0.076 S 
ATOM      8  O   LIG    1       10.617  -1.842  29.844  0.00  0.00    -0.150 OA
ATOM      9  O   LIG    1       10.985  -4.317  30.147  0.00  0.00    -0.150 OA
BRANCH   7  12
ATOM     10  O   LIG    1       14.722  -2.151  28.852  0.00  0.00    -0.251 OA
ATOM     11  C   LIG    1       13.675  -2.200  29.473  0.00  0.00    +0.319 C 
ATOM     12  N   LIG    1       12.664  -2.936  28.894  0.00  0.00    -0.169 N 
ATOM     13  H   LIG    1       12.928  -3.340  28.000  0.00  0.00    +0.178 HD
ATOM     14  N   LIG    1       13.422  -1.613  30.671  0.00  0.00    -0.295 N 
ATOM     15  H   LIG    1       12.500  -1.758  31.057  0.00  0.00    +0.151 HD
BRANCH  14  16
ATOM     16  C   LIG    1       14.325  -0.804  31.483  0.00  0.00    +0.074 C 
ATOM     17  C   LIG    1       14.006  -0.806  32.979  0.00  0.00    +0.022 C 
ATOM     18  C   LIG    1       12.889   0.148  33.382  0.00  0.00    +0.002 C 
ATOM     19  C   LIG    1       13.031   1.548  32.783  0.00  0.00    +0.000 C 
ATOM     20  C   LIG    1       13.456   1.606  31.317  0.00  0.00    +0.002 C 
ATOM     21  C   LIG    1       14.553   0.613  30.954  0.00  0.00    +0.022 C 
ENDBRANCH  14  16
ENDBRANCH   7  12
ENDBRANCH   1   7
BRANCH   4  22
ATOM     22  C   LIG    1        8.544  -3.756  23.909  0.00  0.00    +0.054 C 
BRANCH  22  23
ATOM     23  C   LIG    1        9.052  -4.822  22.918  0.00  0.00    +0.121 C 
BRANCH  23  24
ATOM     24  N   LIG    1        8.791  -4.326  21.574  0.00  0.00    -0.237 N 
ATOM     25  C   LIG    1        7.520  -3.895  21.245  0.00  0.00    +0.232 C 
ATOM     26  O   LIG    1        6.503  -4.379  21.741  0.00  0.00    -0.274 OA
ATOM     27  C   LIG    1        7.497  -2.642  20.360  0.00  0.00    +0.067 C 
ATOM     28  C   LIG    1        7.602  -1.459  21.348  0.00  0.00    +0.025 C 
ATOM     29  C   LIG    1        6.147  -2.572  19.624  0.00  0.00    +0.025 C 
ATOM     30  C   LIG    1        8.672  -2.589  19.390  0.00  0.00    -0.021 A 
ATOM     31  C   LIG    1        8.780  -1.576  18.423  0.00  0.00    +0.009 A 
ATOM     32  C   LIG    1        9.890  -1.504  17.573  0.00  0.00    +0.046 A 
ATOM     33  C   LIG    1       10.908  -2.449  17.659  0.00  0.00    +0.121 A 
ATOM     34  C   LIG    1       10.815  -3.460  18.612  0.00  0.00    +0.059 A 
ATOM     35  C   LIG    1        9.719  -3.517  19.484  0.00  0.00    +0.045 A 
ATOM     36  C   LIG    1        9.782  -4.465  20.619  0.00  0.00    +0.253 C 
ATOM     37  O   LIG    1       10.712  -5.257  20.717  0.00  0.00    -0.270 OA
BRANCH  33  38
ATOM     38  O   LIG    1       12.046  -2.482  16.904  0.00  0.00    -0.495 OA
ATOM     39  C   LIG    1       12.485  -3.758  16.459  0.00  0.00    +0.277 C 
ENDBRANCH  33  38
ENDBRANCH  23  24
ENDBRANCH  22  23
ENDBRANCH   4  22
TORSDOF 7
ENDMDL
MODEL 5
REMARK VINA RESULT:      -9.0      4.888      9.287
REMARK  Name = 
REMARK                            x       y       z     vdW  Elec       q    Type
REMARK                         _______ _______ _______ _____ _____    ______ ____
ROOT
ATOM      1  C   LIG    1       10.506   2.684  31.594  0.00  0.00    +0.109 A 
ATOM      2  C   LIG    1       11.884   2.495  31.701  0.00  0.00    +0.029 A 
ATOM      3  C   LIG    1       12.477   1.406  31.067  0.00  0.00    +0.005 A 
ATOM      4  C   LIG    1       11.695   0.506  30.335  0.00  0.00    -0.046 A 
ATOM      5  C   LIG    1       10.308   0.724  30.230  0.00  0.00    +0.005 A 
ATOM      6  C   LIG    1        9.709   1.812  30.853  0.00  0.00    +0.029 A 
ENDROOT
BRANCH   1   7
ATOM      7  S   LIG    1        9.731   3.984  32.507  0.00  0.00    +0.076 S 
ATOM      8  O   LIG    1        9.225   3.441  33.748  0.00  0.00    -0.150 OA
ATOM      9  O   LIG    1       10.599   5.139  32.491  0.00  0.00    -0.150 OA
BRANCH   7  12
ATOM     10  O   LIG    1        7.170   5.334  30.067  0.00  0.00    -0.251 OA
ATOM     11  C   LIG    1        8.272   5.282  30.585  0.00  0.00    +0.319 C 
ATOM     12  N   LIG    1        8.455   4.279  31.513  0.00  0.00    -0.169 N 
ATOM     13  H   LIG    1        7.624   3.712  31.654  0.00  0.00    +0.178 HD
ATOM     14  N   LIG    1        9.323   6.102  30.326  0.00  0.00    -0.295 N 
ATOM     15  H   LIG    1       10.174   5.918  30.838  0.00  0.00    +0.151 HD
BRANCH  14  16
ATOM     16  C   LIG    1        9.382   7.215  29.383  0.00  0.00    +0.074 C 
ATOM     17  C   LIG    1        9.426   6.798  27.913  0.00  0.00    +0.022 C 
ATOM     18  C   LIG    1       10.807   6.387  27.419  0.00  0.00    +0.002 C 
ATOM     19  C   LIG    1       11.916   7.362  27.818  0.00  0.00    +0.000 C 
ATOM     20  C   LIG    1       11.854   7.895  29.249  0.00  0.00    +0.002 C 
ATOM     21  C   LIG    1       10.449   8.262  29.709  0.00  0.00    +0.022 C 
ENDBRANCH  14  16
ENDBRANCH   7  12
ENDBRANCH   1   7
BRANCH   4  22
ATOM     22  C   LIG    1       12.248  -0.720  29.664  0.00  0.00    +0.054 C 
BRANCH  22  23
ATOM     23  C   LIG    1       12.555  -1.969  30.515  0.00  0.00    +0.121 C 
BRANCH  23  24
ATOM     24  N   LIG    1       11.431  -2.882  30.367  0.00  0.00    -0.237 N 
ATOM     25  C   LIG    1       10.835  -3.413  31.495  0.00  0.00    +0.232 C 
ATOM     26  O   LIG    1       11.457  -3.645  32.531  0.00  0.00    -0.274 OA
ATOM     27  C   LIG    1        9.306  -3.506  31.406  0.00  0.00    +0.067 C 
ATOM     28  C   LIG    1        8.800  -2.112  31.841  0.00  0.00    +0.025 C 
ATOM     29  C   LIG    1        8.808  -4.562  32.410  0.00  0.00    +0.025 C 
ATOM     30  C   LIG    1        8.818  -3.797  29.992  0.00  0.00    -0.021 A 
ATOM     31  C   LIG    1        7.459  -4.021  29.716  0.00  0.00    +0.009 A 
ATOM     32  C   LIG    1        7.013  -4.233  28.406  0.00  0.00    +0.046 A 
ATOM     33  C   LIG    1        7.915  -4.240  27.346  0.00  0.00    +0.121 A 
ATOM     34  C   LIG    1        9.265  -4.019  27.603  0.00  0.00    +0.059 A 
ATOM     35  C   LIG    1        9.710  -3.778  28.910  0.00  0.00    +0.045 A 
ATOM     36  C   LIG    1       11.106  -3.324  29.097  0.00  0.00    +0.253 C 
ATOM     37  O   LIG    1       11.879  -3.281  28.146  0.00  0.00    -0.270 OA
BRANCH  33  38
ATOM     38  O   LIG    1        7.608  -4.418  26.026  0.00  0.00    -0.495 OA
ATOM     39  C   LIG    1        8.481  -3.818  25.077  0.00  0.00    +0.277 C 
ENDBRANCH  33  38
ENDBRANCH  23  24
ENDBRANCH  22  23
ENDBRANCH   4  22
TORSDOF 7
ENDMDL
MODEL 6
REMARK VINA RESULT:      -8.7      2.818     10.769
REMARK  Name = 
REMARK                            x       y       z     vdW  Elec       q    Type
REMARK                         _______ _______ _______ _____ _____    ______ ____
ROOT
ATOM      1  C   LIG    1        7.868  -4.512  23.419  0.00  0.00    +0.109 A 
ATOM      2  C   LIG    1        8.784  -3.701  24.091  0.00  0.00    +0.029 A 
ATOM      3  C   LIG    1        8.760  -3.648  25.482  0.00  0.00    +0.005 A 
ATOM      4  C   LIG    1        7.821  -4.397  26.199  0.00  0.00    -0.046 A 
ATOM      5  C   LIG    1        6.915  -5.219  25.501  0.00  0.00    +0.005 A 
ATOM      6  C   LIG    1        6.937  -5.283  24.113  0.00  0.00    +0.029 A 
ENDROOT
BRANCH   1   7
ATOM      7  S   LIG    1        7.805  -4.478  21.653  0.00  0.00    +0.076 S 
ATOM      8  O   LIG    1        8.841  -5.345  21.136  0.00  0.00    -0.150 OA
ATOM      9  O   LIG    1        6.428  -4.623  21.238  0.00  0.00    -0.150 OA
BRANCH   7  12
ATOM     10  O   LIG    1        8.189  -0.842  20.673  0.00  0.00    -0.251 OA
ATOM     11  C   LIG    1        7.560  -1.870  20.849  0.00  0.00    +0.319 C 
ATOM     12  N   LIG    1        8.263  -2.920  21.402  0.00  0.00    -0.169 N 
ATOM     13  H   LIG    1        9.237  -2.694  21.582  0.00  0.00    +0.178 HD
ATOM     14  N   LIG    1        6.247  -2.070  20.566  0.00  0.00    -0.295 N 
ATOM     15  H   LIG    1        5.874  -2.984  20.781  0.00  0.00    +0.151 HD
BRANCH  14  16
ATOM     16  C   LIG    1        5.297  -1.119  19.997  0.00  0.00    +0.074 C 
ATOM     17  C   LIG    1        4.290  -0.554  20.999  0.00  0.00    +0.022 C 
ATOM     18  C   LIG    1        3.107  -1.471  21.285  0.00  0.00    +0.002 C 
ATOM     19  C   LIG    1        2.465  -2.053  20.025  0.00  0.00    +0.000 C 
ATOM     20  C   LIG    1        3.431  -2.532  18.943  0.00  0.00    +0.002 C 
ATOM     21  C   LIG    1        4.613  -1.599  18.715  0.00  0.00    +0.022 C 
ENDBRANCH  14  16
ENDBRANCH   7  12
ENDBRANCH   1   7
BRANCH   4  22
ATOM     22  C   LIG    1        7.694  -4.358  27.696  0.00  0.00    +0.054 C 
BRANCH  22  23
ATOM     23  C   LIG    1        8.817  -4.964  28.561  0.00  0.00    +0.121 C 
BRANCH  23  24
ATOM     24  N   LIG    1        9.224  -3.945  29.520  0.00  0.00    -0.237 N 
ATOM     25  C   LIG    1        8.354  -3.575  30.527  0.00  0.00    +0.232 C 
ATOM     26  O   LIG    1        7.131  -3.585  30.388  0.00  0.00    -0.274 OA
ATOM     27  C   LIG    1        9.035  -3.336  31.881  0.00  0.00    +0.067 C 
ATOM     28  C   LIG    1        9.127  -4.736  32.528  0.00  0.00    +0.025 C 
ATOM     29  C   LIG    1        8.132  -2.436  32.745  0.00  0.00    +0.025 C 
ATOM     30  C   LIG    1       10.438  -2.758  31.738  0.00  0.00    -0.021 A 
ATOM     31  C   LIG    1       11.190  -2.373  32.859  0.00  0.00    +0.009 A 
ATOM     32  C   LIG    1       12.498  -1.894  32.721  0.00  0.00    +0.046 A 
ATOM     33  C   LIG    1       13.078  -1.775  31.461  0.00  0.00    +0.121 A 
ATOM     34  C   LIG    1       12.344  -2.153  30.340  0.00  0.00    +0.059 A 
ATOM     35  C   LIG    1       11.045  -2.661  30.478  0.00  0.00    +0.045 A 
ATOM     36  C   LIG    1       10.402  -3.258  29.287  0.00  0.00    +0.253 C 
ATOM     37  O   LIG    1       10.946  -3.198  28.189  0.00  0.00    -0.270 OA
BRANCH  33  38
ATOM     38  O   LIG    1       14.345  -1.340  31.193  0.00  0.00    -0.495 OA
ATOM     39  C   LIG    1       14.496  -0.431  30.110  0.00  0.00    +0.277 C 
ENDBRANCH  33  38
ENDBRANCH  23  24
ENDBRANCH  22  23
ENDBRANCH   4  22
TORSDOF 7
ENDMDL
MODEL 7
REMARK VINA RESULT:      -8.6      6.259      8.969
REMARK  Name = 
REMARK                            x       y       z     vdW  Elec       q    Type
REMARK                         _______ _______ _______ _____ _____    ______ ____
ROOT
ATOM      1  C   LIG    1        5.765  -1.970  20.138  0.00  0.00    +0.109 A 
ATOM      2  C   LIG    1        5.577  -3.301  20.512  0.00  0.00    +0.029 A 
ATOM      3  C   LIG    1        6.610  -3.987  21.146  0.00  0.00    +0.005 A 
ATOM      4  C   LIG    1        7.827  -3.346  21.401  0.00  0.00    -0.046 A 
ATOM      5  C   LIG    1        7.990  -1.998  21.028  0.00  0.00    +0.005 A 
ATOM      6  C   LIG    1        6.962  -1.305  20.400  0.00  0.00    +0.029 A 
ENDROOT
BRANCH   1   7
ATOM      7  S   LIG    1        4.510  -1.139  19.213  0.00  0.00    +0.076 S 
ATOM      8  O   LIG    1        4.932   0.224  18.978  0.00  0.00    -0.150 OA
ATOM      9  O   LIG    1        4.097  -1.995  18.123  0.00  0.00    -0.150 OA
BRANCH   7  12
ATOM     10  O   LIG    1        2.191  -0.539  22.145  0.00  0.00    -0.251 OA
ATOM     11  C   LIG    1        3.092  -0.243  21.380  0.00  0.00    +0.319 C 
ATOM     12  N   LIG    1        3.315  -1.123  20.342  0.00  0.00    -0.169 N 
ATOM     13  H   LIG    1        2.692  -1.925  20.361  0.00  0.00    +0.178 HD
ATOM     14  N   LIG    1        3.877   0.863  21.450  0.00  0.00    -0.295 N 
ATOM     15  H   LIG    1        4.577   0.964  20.728  0.00  0.00    +0.151 HD
BRANCH  14  16
ATOM     16  C   LIG    1        3.826   1.939  22.434  0.00  0.00    +0.074 C 
ATOM     17  C   LIG    1        2.520   2.011  23.227  0.00  0.00    +0.022 C 
ATOM     18  C   LIG    1        1.380   2.709  22.495  0.00  0.00    +0.002 C 
ATOM     19  C   LIG    1        1.787   4.036  21.853  0.00  0.00    +0.000 C 
ATOM     20  C   LIG    1        3.138   4.047  21.141  0.00  0.00    +0.002 C 
ATOM     21  C   LIG    1        4.238   3.309  21.894  0.00  0.00    +0.022 C 
ENDBRANCH  14  16
ENDBRANCH   7  12
ENDBRANCH   1   7
BRANCH   4  22
ATOM     22  C   LIG    1        9.008  -4.027  22.035  0.00  0.00    +0.054 C 
BRANCH  22  23
ATOM     23  C   LIG    1        9.725  -5.156  21.269  0.00  0.00    +0.121 C 
BRANCH  23  24
ATOM     24  N   LIG    1       11.021  -4.641  20.848  0.00  0.00    -0.237 N 
ATOM     25  C   LIG    1       12.032  -4.508  21.780  0.00  0.00    +0.232 C 
ATOM     26  O   LIG    1       11.819  -4.247  22.963  0.00  0.00    -0.274 OA
ATOM     27  C   LIG    1       13.420  -4.899  21.253  0.00  0.00    +0.067 C 
ATOM     28  C   LIG    1       13.497  -6.430  21.444  0.00  0.00    +0.025 C 
ATOM     29  C   LIG    1       14.496  -4.223  22.122  0.00  0.00    +0.025 C 
ATOM     30  C   LIG    1       13.599  -4.569  19.775  0.00  0.00    -0.021 A 
ATOM     31  C   LIG    1       14.830  -4.755  19.126  0.00  0.00    +0.009 A 
ATOM     32  C   LIG    1       14.971  -4.502  17.757  0.00  0.00    +0.046 A 
ATOM     33  C   LIG    1       13.890  -4.045  17.009  0.00  0.00    +0.121 A 
ATOM     34  C   LIG    1       12.663  -3.856  17.638  0.00  0.00    +0.059 A 
ATOM     35  C   LIG    1       12.511  -4.137  19.003  0.00  0.00    +0.045 A 
ATOM     36  C   LIG    1       11.143  -4.140  19.565  0.00  0.00    +0.253 C 
ATOM     37  O   LIG    1       10.188  -3.789  18.881  0.00  0.00    -0.270 OA
BRANCH  33  38
ATOM     38  O   LIG    1       13.891  -3.777  15.669  0.00  0.00    -0.495 OA
ATOM     39  C   LIG    1       15.107  -3.299  15.109  0.00  0.00    +0.277 C 
ENDBRANCH  33  38
ENDBRANCH  23  24
ENDBRANCH  22  23
ENDBRANCH   4  22
TORSDOF 7
ENDMDL
MODEL 8
REMARK VINA RESULT:      -8.6      5.026      9.595
REMARK  Name = 
REMARK                            x       y       z     vdW  Elec       q    Type
REMARK                         _______ _______ _______ _____ _____    ______ ____
ROOT
ATOM      1  C   LIG    1       12.393   3.182  31.982  0.00  0.00    +0.109 A 
ATOM      2  C   LIG    1       13.462   2.336  31.684  0.00  0.00    +0.029 A 
ATOM      3  C   LIG    1       13.229   1.161  30.975  0.00  0.00    +0.005 A 
ATOM      4  C   LIG    1       11.932   0.829  30.570  0.00  0.00    -0.046 A 
ATOM      5  C   LIG    1       10.870   1.703  30.869  0.00  0.00    +0.005 A 
ATOM      6  C   LIG    1       11.095   2.882  31.570  0.00  0.00    +0.029 A 
ENDROOT
BRANCH   1   7
ATOM      7  S   LIG    1       12.661   4.603  32.997  0.00  0.00    +0.076 S 
ATOM      8  O   LIG    1       11.390   5.039  33.530  0.00  0.00    -0.150 OA
ATOM      9  O   LIG    1       13.790   4.345  33.862  0.00  0.00    -0.150 OA
BRANCH   7  12
ATOM     10  O   LIG    1       12.989   7.027  30.107  0.00  0.00    -0.251 OA
ATOM     11  C   LIG    1       12.369   6.394  30.944  0.00  0.00    +0.319 C 
ATOM     12  N   LIG    1       13.129   5.671  31.838  0.00  0.00    -0.169 N 
ATOM     13  H   LIG    1       14.127   5.755  31.669  0.00  0.00    +0.178 HD
ATOM     14  N   LIG    1       11.019   6.346  31.080  0.00  0.00    -0.295 N 
ATOM     15  H   LIG    1       10.663   5.777  31.835  0.00  0.00    +0.151 HD
BRANCH  14  16
ATOM     16  C   LIG    1       10.011   7.030  30.276  0.00  0.00    +0.074 C 
ATOM     17  C   LIG    1        8.731   7.387  31.033  0.00  0.00    +0.022 C 
ATOM     18  C   LIG    1        7.746   6.234  31.178  0.00  0.00    +0.002 C 
ATOM     19  C   LIG    1        7.500   5.471  29.876  0.00  0.00    +0.000 C 
ATOM     20  C   LIG    1        8.736   5.185  29.025  0.00  0.00    +0.002 C 
ATOM     21  C   LIG    1        9.707   6.355  28.936  0.00  0.00    +0.022 C 
ENDBRANCH  14  16
ENDBRANCH   7  12
ENDBRANCH   1   7
BRANCH   4  22
ATOM     22  C   LIG    1       11.587  -0.443  29.846  0.00  0.00    +0.054 C 
BRANCH  22  23
ATOM     23  C   LIG    1       12.190  -1.774  30.337  0.00  0.00    +0.121 C 
BRANCH  23  24
ATOM     24  N   LIG    1       11.151  -2.789  30.224  0.00  0.00    -0.237 N 
ATOM     25  C   LIG    1       10.641  -3.368  31.370  0.00  0.00    +0.232 C 
ATOM     26  O   LIG    1       11.313  -3.538  32.387  0.00  0.00    -0.274 OA
ATOM     27  C   LIG    1        9.125  -3.603  31.328  0.00  0.00    +0.067 C 
ATOM     28  C   LIG    1        8.505  -2.260  31.776  0.00  0.00    +0.025 C 
ATOM     29  C   LIG    1        8.758  -4.697  32.347  0.00  0.00    +0.025 C 
ATOM     30  C   LIG    1        8.624  -3.943  29.930  0.00  0.00    -0.021 A 
ATOM     31  C   LIG    1        7.284  -4.292  29.695  0.00  0.00    +0.009 A 
ATOM     32  C   LIG    1        6.820  -4.550  28.400  0.00  0.00    +0.046 A 
ATOM     33  C   LIG    1        7.687  -4.477  27.312  0.00  0.00    +0.121 A 
ATOM     34  C   LIG    1        9.018  -4.132  27.529  0.00  0.00    +0.059 A 
ATOM     35  C   LIG    1        9.478  -3.845  28.821  0.00  0.00    +0.045 A 
ATOM     36  C   LIG    1       10.831  -3.263  28.965  0.00  0.00    +0.253 C 
ATOM     37  O   LIG    1       11.567  -3.152  27.991  0.00  0.00    -0.270 OA
BRANCH  33  38
ATOM     38  O   LIG    1        7.358  -4.687  26.002  0.00  0.00    -0.495 OA
ATOM     39  C   LIG    1        8.222  -4.123  25.025  0.00  0.00    +0.277 C 
ENDBRANCH  33  38
ENDBRANCH  23  24
ENDBRANCH  22  23
ENDBRANCH   4  22
TORSDOF 7
ENDMDL
MODEL 9
REMARK VINA RESULT:      -8.5      2.730     10.957
REMARK  Name = 
REMARK                            x       y       z     vdW  Elec       q    Type
REMARK                         _______ _______ _______ _____ _____    ______ ____
ROOT
ATOM      1  C   LIG    1        8.765  -4.248  23.382  0.00  0.00    +0.109 A 
ATOM      2  C   LIG    1        8.050  -4.056  24.566  0.00  0.00    +0.029 A 
ATOM      3  C   LIG    1        8.739  -3.787  25.746  0.00  0.00    +0.005 A 
ATOM      4  C   LIG    1       10.136  -3.717  25.745  0.00  0.00    -0.046 A 
ATOM      5  C   LIG    1       10.836  -3.901  24.537  0.00  0.00    +0.005 A 
ATOM      6  C   LIG    1       10.156  -4.163  23.353  0.00  0.00    +0.029 A 
ENDROOT
BRANCH   1   7
ATOM      7  S   LIG    1        7.906  -4.723  21.913  0.00  0.00    +0.076 S 
ATOM      8  O   LIG    1        8.362  -6.037  21.515  0.00  0.00    -0.150 OA
ATOM      9  O   LIG    1        6.500  -4.437  22.087  0.00  0.00    -0.150 OA
BRANCH   7  12
ATOM     10  O   LIG    1        8.610  -1.962  19.420  0.00  0.00    -0.251 OA
ATOM     11  C   LIG    1        7.931  -2.551  20.243  0.00  0.00    +0.319 C 
ATOM     12  N   LIG    1        8.536  -3.620  20.870  0.00  0.00    -0.169 N 
ATOM     13  H   LIG    1        9.484  -3.785  20.547  0.00  0.00    +0.178 HD
ATOM     14  N   LIG    1        6.657  -2.248  20.601  0.00  0.00    -0.295 N 
ATOM     15  H   LIG    1        6.237  -2.834  21.309  0.00  0.00    +0.151 HD
BRANCH  14  16
ATOM     16  C   LIG    1        5.816  -1.166  20.098  0.00  0.00    +0.074 C 
ATOM     17  C   LIG    1        4.743  -0.689  21.078  0.00  0.00    +0.022 C 
ATOM     18  C   LIG    1        3.494  -1.561  21.112  0.00  0.00    +0.002 C 
ATOM     19  C   LIG    1        2.953  -1.910  19.725  0.00  0.00    +0.000 C 
ATOM     20  C   LIG    1        3.997  -2.288  18.676  0.00  0.00    +0.002 C 
ATOM     21  C   LIG    1        5.241  -1.409  18.702  0.00  0.00    +0.022 C 
ENDBRANCH  14  16
ENDBRANCH   7  12
ENDBRANCH   1   7
BRANCH   4  22
ATOM     22  C   LIG    1       10.957  -3.481  26.982  0.00  0.00    +0.054 C 
BRANCH  22  23
ATOM     23  C   LIG    1       10.722  -4.368  28.220  0.00  0.00    +0.121 C 
BRANCH  23  24
ATOM     24  N   LIG    1       10.011  -3.561  29.203  0.00  0.00    -0.237 N 
ATOM     25  C   LIG    1        8.804  -4.009  29.704  0.00  0.00    +0.232 C 
ATOM     26  O   LIG    1        8.019  -4.689  29.043  0.00  0.00    -0.274 OA
ATOM     27  C   LIG    1        8.617  -3.749  31.204  0.00  0.00    +0.067 C 
ATOM     28  C   LIG    1        9.306  -4.944  31.901  0.00  0.00    +0.025 C 
ATOM     29  C   LIG    1        7.113  -3.767  31.533  0.00  0.00    +0.025 C 
ATOM     30  C   LIG    1        9.279  -2.454  31.661  0.00  0.00    -0.021 A 
ATOM     31  C   LIG    1        9.138  -1.982  32.976  0.00  0.00    +0.009 A 
ATOM     32  C   LIG    1        9.794  -0.821  33.401  0.00  0.00    +0.046 A 
ATOM     33  C   LIG    1       10.593  -0.099  32.520  0.00  0.00    +0.121 A 
ATOM     34  C   LIG    1       10.743  -0.554  31.213  0.00  0.00    +0.059 A 
ATOM     35  C   LIG    1       10.110  -1.732  30.792  0.00  0.00    +0.045 A 
ATOM     36  C   LIG    1       10.485  -2.290  29.474  0.00  0.00    +0.253 C 
ATOM     37  O   LIG    1       11.234  -1.672  28.727  0.00  0.00    -0.270 OA
BRANCH  33  38
ATOM     38  O   LIG    1       11.298   1.036  32.812  0.00  0.00    -0.495 OA
ATOM     39  C   LIG    1       11.002   2.192  32.040  0.00  0.00    +0.277 C 
ENDBRANCH  33  38
ENDBRANCH  23  24
ENDBRANCH  22  23
ENDBRANCH   4  22
TORSDOF 7
ENDMDL
