MODEL 1
REMARK VINA RESULT:      -9.3      0.000      0.000
REMARK  Name = 
REMARK                            x       y       z     vdW  Elec       q    Type
REMARK                         _______ _______ _______ _____ _____    ______ ____
ROOT
ATOM      1  C   LIG    1       19.469   6.758  28.095  0.00  0.00    +0.109 A 
ATOM      2  C   LIG    1       18.544   6.388  29.073  0.00  0.00    +0.029 A 
ATOM      3  C   LIG    1       18.862   6.562  30.417  0.00  0.00    +0.005 A 
ATOM      4  C   LIG    1       20.101   7.099  30.784  0.00  0.00    -0.046 A 
ATOM      5  C   LIG    1       21.014   7.477  29.780  0.00  0.00    +0.005 A 
ATOM      6  C   LIG    1       20.701   7.313  28.436  0.00  0.00    +0.029 A 
ENDROOT
BRANCH   1   7
ATOM      7  S   LIG    1       19.126   6.413  26.396  0.00  0.00    +0.076 S 
ATOM      8  O   LIG    1       18.563   7.597  25.788  0.00  0.00    -0.150 OA
ATOM      9  O   LIG    1       20.272   5.745  25.821  0.00  0.00    -0.150 OA
BRANCH   7  12
ATOM     10  O   LIG    1       16.302   3.914  26.058  0.00  0.00    -0.251 OA
ATOM     11  C   LIG    1       17.234   4.579  25.642  0.00  0.00    +0.319 C 
ATOM     12  N   LIG    1       17.924   5.308  26.588  0.00  0.00    -0.169 N 
ATOM     13  H   LIG    1       17.548   5.199  27.525  0.00  0.00    +0.178 HD
ATOM     14  N   LIG    1       17.655   4.659  24.354  0.00  0.00    -0.295 N 
ATOM     15  H   LIG    1       18.453   5.254  24.177  0.00  0.00    +0.151 HD
BRANCH  14  16
ATOM     16  C   LIG    1       17.105   3.978  23.186  0.00  0.00    +0.074 C 
ATOM     17  C   LIG    1       16.917   2.471  23.362  0.00  0.00    +0.022 C 
ATOM     18  C   LIG    1       18.188   1.654  23.163  0.00  0.00    +0.002 C 
ATOM     19  C   LIG    1       18.972   2.036  21.907  0.00  0.00    +0.000 C 
ATOM     20  C   LIG    1       19.094   3.533  21.626  0.00  0.00    +0.002 C 
ATOM     21  C   LIG    1       17.809   4.313  21.870  0.00  0.00    +0.022 C 
ENDBRANCH  14  16
ENDBRANCH   7  12
ENDBRANCH   1   7
BRANCH   4  22
ATOM     22  C   LIG    1       20.542   7.273  32.210  0.00  0.00    +0.054 C 
BRANCH  22  23
ATOM     23  C   LIG    1       21.721   8.217  32.521  0.00  0.00    +0.121 C 
BRANCH  23  24
ATOM     24  N   LIG    1       21.158   9.476  32.989  0.00  0.00    -0.237 N 
ATOM     25  C   LIG    1       20.878  10.475  32.077  0.00  0.00    +0.232 C 
ATOM     26  O   LIG    1       21.534  10.642  31.049  0.00  0.00    -0.274 OA
ATOM     27  C   LIG    1       19.572  11.229  32.360  0.00  0.00    +0.067 C 
ATOM     28  C   LIG    1       18.470  10.370  31.701  0.00  0.00    +0.025 C 
ATOM     29  C   LIG    1       19.626  12.604  31.670  0.00  0.00    +0.025 C 
ATOM     30  C   LIG    1       19.281  11.358  33.851  0.00  0.00    -0.021 A 
ATOM     31  C   LIG    1       18.188  12.100  34.324  0.00  0.00    +0.009 A 
ATOM     32  C   LIG    1       17.896  12.168  35.691  0.00  0.00    +0.046 A 
ATOM     33  C   LIG    1       18.699  11.506  36.617  0.00  0.00    +0.121 A 
ATOM     34  C   LIG    1       19.786  10.765  36.164  0.00  0.00    +0.059 A 
ATOM     35  C   LIG    1       20.063  10.673  34.793  0.00  0.00    +0.045 A 
ATOM     36  C   LIG    1       21.082   9.694  34.353  0.00  0.00    +0.253 C 
ATOM     37  O   LIG    1       21.746   9.075  35.177  0.00  0.00    -0.270 OA
BRANCH  33  38
ATOM     38  O   LIG    1       18.515  11.478  37.971  0.00  0.00    -0.495 OA
ATOM     39  C   LIG    1       17.437  10.687  38.457  0.00  0.00    +0.277 C 
ENDBRANCH  33  38
ENDBRANCH  23  24
ENDBRANCH  22  23
ENDBRANCH   4  22
TORSDOF 7
ENDMDL
MODEL 2
REMARK VINA RESULT:      -8.7      6.174      9.455
REMARK  Name = 
REMARK                            x       y       z     vdW  Elec       q    Type
REMARK                         _______ _______ _______ _____ _____    ______ ____
ROOT
ATOM      1  C   LIG    1       17.647   5.524  29.062  0.00  0.00    +0.109 A 
ATOM      2  C   LIG    1       17.530   6.268  30.237  0.00  0.00    +0.029 A 
ATOM      3  C   LIG    1       16.664   5.836  31.238  0.00  0.00    +0.005 A 
ATOM      4  C   LIG    1       15.915   4.668  31.065  0.00  0.00    -0.046 A 
ATOM      5  C   LIG    1       16.059   3.925  29.877  0.00  0.00    +0.005 A 
ATOM      6  C   LIG    1       16.925   4.346  28.876  0.00  0.00    +0.029 A 
ENDROOT
BRANCH   1   7
ATOM      7  S   LIG    1       18.638   6.140  27.736  0.00  0.00    +0.076 S 
ATOM      8  O   LIG    1       17.798   6.916  26.851  0.00  0.00    -0.150 OA
ATOM      9  O   LIG    1       19.857   6.688  28.286  0.00  0.00    -0.150 OA
BRANCH   7  12
ATOM     10  O   LIG    1       18.979   3.126  25.469  0.00  0.00    -0.251 OA
ATOM     11  C   LIG    1       18.689   4.283  25.721  0.00  0.00    +0.319 C 
ATOM     12  N   LIG    1       18.998   4.718  26.993  0.00  0.00    -0.169 N 
ATOM     13  H   LIG    1       19.425   3.997  27.567  0.00  0.00    +0.178 HD
ATOM     14  N   LIG    1       18.108   5.170  24.874  0.00  0.00    -0.295 N 
ATOM     15  H   LIG    1       17.941   6.098  25.239  0.00  0.00    +0.151 HD
BRANCH  14  16
ATOM     16  C   LIG    1       17.706   4.956  23.487  0.00  0.00    +0.074 C 
ATOM     17  C   LIG    1       16.575   3.942  23.305  0.00  0.00    +0.022 C 
ATOM     18  C   LIG    1       17.028   2.488  23.335  0.00  0.00    +0.002 C 
ATOM     19  C   LIG    1       18.253   2.209  22.464  0.00  0.00    +0.000 C 
ATOM     20  C   LIG    1       19.368   3.252  22.526  0.00  0.00    +0.002 C 
ATOM     21  C   LIG    1       18.866   4.690  22.526  0.00  0.00    +0.022 C 
ENDBRANCH  14  16
ENDBRANCH   7  12
ENDBRANCH   1   7
BRANCH   4  22
ATOM     22  C   LIG    1       14.923   4.159  32.073  0.00  0.00    +0.054 C 
BRANCH  22  23
ATOM     23  C   LIG    1       13.454   4.617  31.979  0.00  0.00    +0.121 C 
BRANCH  23  24
ATOM     24  N   LIG    1       12.625   3.420  31.963  0.00  0.00    -0.237 N 
ATOM     25  C   LIG    1       12.235   2.848  33.159  0.00  0.00    +0.232 C 
ATOM     26  O   LIG    1       12.928   2.890  34.175  0.00  0.00    -0.274 OA
ATOM     27  C   LIG    1       10.791   2.330  33.160  0.00  0.00    +0.067 C 
ATOM     28  C   LIG    1        9.929   3.563  33.511  0.00  0.00    +0.025 C 
ATOM     29  C   LIG    1       10.638   1.271  34.267  0.00  0.00    +0.025 C 
ATOM     30  C   LIG    1       10.362   1.790  31.800  0.00  0.00    -0.021 A 
ATOM     31  C   LIG    1        9.112   1.177  31.615  0.00  0.00    +0.009 A 
ATOM     32  C   LIG    1        8.704   0.734  30.351  0.00  0.00    +0.046 A 
ATOM     33  C   LIG    1        9.540   0.881  29.248  0.00  0.00    +0.121 A 
ATOM     34  C   LIG    1       10.782   1.487  29.416  0.00  0.00    +0.059 A 
ATOM     35  C   LIG    1       11.181   1.958  30.674  0.00  0.00    +0.045 A 
ATOM     36  C   LIG    1       12.400   2.794  30.750  0.00  0.00    +0.253 C 
ATOM     37  O   LIG    1       13.101   2.963  29.759  0.00  0.00    -0.270 OA
BRANCH  33  38
ATOM     38  O   LIG    1        9.257   0.508  27.964  0.00  0.00    -0.495 OA
ATOM     39  C   LIG    1        8.682  -0.779  27.781  0.00  0.00    +0.277 C 
ENDBRANCH  33  38
ENDBRANCH  23  24
ENDBRANCH  22  23
ENDBRANCH   4  22
TORSDOF 7
ENDMDL
MODEL 3
REMARK VINA RESULT:      -8.7      6.462      9.064
REMARK  Name = 
REMARK                            x       y       z     vdW  Elec       q    Type
REMARK                         _______ _______ _______ _____ _____    ______ ____
ROOT
ATOM      1  C   LIG    1       17.492   4.309  28.279  0.00  0.00    +0.109 A 
ATOM      2  C   LIG    1       16.908   3.438  27.357  0.00  0.00    +0.029 A 
ATOM      3  C   LIG    1       15.699   2.821  27.668  0.00  0.00    +0.005 A 
ATOM      4  C   LIG    1       15.079   3.068  28.898  0.00  0.00    -0.046 A 
ATOM      5  C   LIG    1       15.680   3.959  29.807  0.00  0.00    +0.005 A 
ATOM      6  C   LIG    1       16.882   4.585  29.502  0.00  0.00    +0.029 A 
ENDROOT
BRANCH   1   7
ATOM      7  S   LIG    1       19.089   4.987  27.946  0.00  0.00    +0.076 S 
ATOM      8  O   LIG    1       19.633   5.516  29.177  0.00  0.00    -0.150 OA
ATOM      9  O   LIG    1       19.833   4.043  27.142  0.00  0.00    -0.150 OA
BRANCH   7  12
ATOM     10  O   LIG    1       18.221   7.397  25.159  0.00  0.00    -0.251 OA
ATOM     11  C   LIG    1       18.424   6.292  25.631  0.00  0.00    +0.319 C 
ATOM     12  N   LIG    1       18.647   6.249  26.991  0.00  0.00    -0.169 N 
ATOM     13  H   LIG    1       18.624   7.166  27.426  0.00  0.00    +0.178 HD
ATOM     14  N   LIG    1       18.440   5.117  24.951  0.00  0.00    -0.295 N 
ATOM     15  H   LIG    1       18.616   4.284  25.496  0.00  0.00    +0.151 HD
BRANCH  14  16
ATOM     16  C   LIG    1       18.218   4.902  23.525  0.00  0.00    +0.074 C 
ATOM     17  C   LIG    1       16.857   4.294  23.179  0.00  0.00    +0.022 C 
ATOM     18  C   LIG    1       16.784   2.783  23.356  0.00  0.00    +0.002 C 
ATOM     19  C   LIG    1       17.968   2.035  22.742  0.00  0.00    +0.000 C 
ATOM     20  C   LIG    1       19.343   2.663  22.965  0.00  0.00    +0.002 C 
ATOM     21  C   LIG    1       19.360   4.178  22.810  0.00  0.00    +0.022 C 
ENDBRANCH  14  16
ENDBRANCH   7  12
ENDBRANCH   1   7
BRANCH   4  22
ATOM     22  C   LIG    1       13.802   2.405  29.332  0.00  0.00    +0.054 C 
BRANCH  22  23
ATOM     23  C   LIG    1       12.454   3.008  28.888  0.00  0.00    +0.121 C 
BRANCH  23  24
ATOM     24  N   LIG    1       11.520   2.845  29.994  0.00  0.00    -0.237 N 
ATOM     25  C   LIG    1       10.287   2.268  29.761  0.00  0.00    +0.232 C 
ATOM     26  O   LIG    1        9.687   2.385  28.692  0.00  0.00    -0.274 OA
ATOM     27  C   LIG    1        9.823   1.319  30.874  0.00  0.00    +0.067 C 
ATOM     28  C   LIG    1       10.480  -0.038  30.534  0.00  0.00    +0.025 C 
ATOM     29  C   LIG    1        8.292   1.174  30.805  0.00  0.00    +0.025 C 
ATOM     30  C   LIG    1       10.285   1.766  32.256  0.00  0.00    -0.021 A 
ATOM     31  C   LIG    1        9.882   1.091  33.419  0.00  0.00    +0.009 A 
ATOM     32  C   LIG    1       10.355   1.475  34.679  0.00  0.00    +0.046 A 
ATOM     33  C   LIG    1       11.231   2.550  34.806  0.00  0.00    +0.121 A 
ATOM     34  C   LIG    1       11.640   3.229  33.662  0.00  0.00    +0.059 A 
ATOM     35  C   LIG    1       11.191   2.829  32.397  0.00  0.00    +0.045 A 
ATOM     36  C   LIG    1       11.832   3.432  31.207  0.00  0.00    +0.253 C 
ATOM     37  O   LIG    1       12.644   4.342  31.332  0.00  0.00    -0.270 OA
BRANCH  33  38
ATOM     38  O   LIG    1       11.777   3.014  35.970  0.00  0.00    -0.495 OA
ATOM     39  C   LIG    1       12.421   2.058  36.803  0.00  0.00    +0.277 C 
ENDBRANCH  33  38
ENDBRANCH  23  24
ENDBRANCH  22  23
ENDBRANCH   4  22
TORSDOF 7
ENDMDL
MODEL 4
REMARK VINA RESULT:      -8.5      1.427      1.910
REMARK  Name = 
REMARK                            x       y       z     vdW  Elec       q    Type
REMARK                         _______ _______ _______ _____ _____    ______ ____
ROOT
ATOM      1  C   LIG    1       19.153   6.337  28.435  0.00  0.00    +0.109 A 
ATOM      2  C   LIG    1       20.302   6.910  28.981  0.00  0.00    +0.029 A 
ATOM      3  C   LIG    1       20.204   7.661  30.150  0.00  0.00    +0.005 A 
ATOM      4  C   LIG    1       18.963   7.843  30.767  0.00  0.00    -0.046 A 
ATOM      5  C   LIG    1       17.818   7.245  30.206  0.00  0.00    +0.005 A 
ATOM      6  C   LIG    1       17.908   6.488  29.044  0.00  0.00    +0.029 A 
ENDROOT
BRANCH   1   7
ATOM      7  S   LIG    1       19.249   5.500  26.882  0.00  0.00    +0.076 S 
ATOM      8  O   LIG    1       19.481   6.477  25.842  0.00  0.00    -0.150 OA
ATOM      9  O   LIG    1       20.107   4.346  27.033  0.00  0.00    -0.150 OA
BRANCH   7  12
ATOM     10  O   LIG    1       15.816   4.288  25.844  0.00  0.00    -0.251 OA
ATOM     11  C   LIG    1       17.006   4.490  25.676  0.00  0.00    +0.319 C 
ATOM     12  N   LIG    1       17.695   4.979  26.765  0.00  0.00    -0.169 N 
ATOM     13  H   LIG    1       17.102   5.120  27.578  0.00  0.00    +0.178 HD
ATOM     14  N   LIG    1       17.706   4.270  24.533  0.00  0.00    -0.295 N 
ATOM     15  H   LIG    1       18.693   4.484  24.562  0.00  0.00    +0.151 HD
BRANCH  14  16
ATOM     16  C   LIG    1       17.211   3.747  23.264  0.00  0.00    +0.074 C 
ATOM     17  C   LIG    1       17.126   2.222  23.197  0.00  0.00    +0.022 C 
ATOM     18  C   LIG    1       18.450   1.532  22.895  0.00  0.00    +0.002 C 
ATOM     19  C   LIG    1       19.215   2.159  21.729  0.00  0.00    +0.000 C 
ATOM     20  C   LIG    1       19.237   3.686  21.688  0.00  0.00    +0.002 C 
ATOM     21  C   LIG    1       17.900   4.331  22.029  0.00  0.00    +0.022 C 
ENDBRANCH  14  16
ENDBRANCH   7  12
ENDBRANCH   1   7
BRANCH   4  22
ATOM     22  C   LIG    1       18.762   8.679  32.000  0.00  0.00    +0.054 C 
BRANCH  22  23
ATOM     23  C   LIG    1       19.992   9.277  32.711  0.00  0.00    +0.121 C 
BRANCH  23  24
ATOM     24  N   LIG    1       19.685  10.668  33.014  0.00  0.00    -0.237 N 
ATOM     25  C   LIG    1       20.102  11.660  32.148  0.00  0.00    +0.232 C 
ATOM     26  O   LIG    1       21.134  11.573  31.482  0.00  0.00    -0.274 OA
ATOM     27  C   LIG    1       19.077  12.784  31.948  0.00  0.00    +0.067 C 
ATOM     28  C   LIG    1       18.134  12.265  30.839  0.00  0.00    +0.025 C 
ATOM     29  C   LIG    1       19.805  14.044  31.446  0.00  0.00    +0.025 C 
ATOM     30  C   LIG    1       18.263  13.065  33.205  0.00  0.00    -0.021 A 
ATOM     31  C   LIG    1       17.342  14.124  33.262  0.00  0.00    +0.009 A 
ATOM     32  C   LIG    1       16.560  14.341  34.402  0.00  0.00    +0.046 A 
ATOM     33  C   LIG    1       16.689  13.515  35.515  0.00  0.00    +0.121 A 
ATOM     34  C   LIG    1       17.598  12.461  35.474  0.00  0.00    +0.059 A 
ATOM     35  C   LIG    1       18.361  12.224  34.323  0.00  0.00    +0.045 A 
ATOM     36  C   LIG    1       19.135  10.964  34.249  0.00  0.00    +0.253 C 
ATOM     37  O   LIG    1       19.198  10.215  35.217  0.00  0.00    -0.270 OA
BRANCH  33  38
ATOM     38  O   LIG    1       15.977  13.608  36.678  0.00  0.00    -0.495 OA
ATOM     39  C   LIG    1       16.427  12.819  37.772  0.00  0.00    +0.277 C 
ENDBRANCH  33  38
ENDBRANCH  23  24
ENDBRANCH  22  23
ENDBRANCH   4  22
TORSDOF 7
ENDMDL
MODEL 5
REMARK VINA RESULT:      -8.2      6.521     11.100
REMARK  Name = 
REMARK                            x       y       z     vdW  Elec       q    Type
REMARK                         _______ _______ _______ _____ _____    ______ ____
ROOT
ATOM      1  C   LIG    1       12.095   2.083  29.450  0.00  0.00    +0.109 A 
ATOM      2  C   LIG    1       12.729   1.279  28.502  0.00  0.00    +0.029 A 
ATOM      3  C   LIG    1       14.073   1.496  28.207  0.00  0.00    +0.005 A 
ATOM      4  C   LIG    1       14.779   2.516  28.853  0.00  0.00    -0.046 A 
ATOM      5  C   LIG    1       14.123   3.307  29.817  0.00  0.00    +0.005 A 
ATOM      6  C   LIG    1       12.784   3.092  30.121  0.00  0.00    +0.029 A 
ENDROOT
BRANCH   1   7
ATOM      7  S   LIG    1       10.360   1.901  29.727  0.00  0.00    +0.076 S 
ATOM      8  O   LIG    1       10.160   1.261  31.009  0.00  0.00    -0.150 OA
ATOM      9  O   LIG    1        9.708   3.149  29.401  0.00  0.00    -0.150 OA
BRANCH   7  12
ATOM     10  O   LIG    1        8.961  -0.136  26.860  0.00  0.00    -0.251 OA
ATOM     11  C   LIG    1        9.087   0.874  27.529  0.00  0.00    +0.319 C 
ATOM     12  N   LIG    1       10.016   0.811  28.546  0.00  0.00    -0.169 N 
ATOM     13  H   LIG    1       10.474  -0.093  28.610  0.00  0.00    +0.178 HD
ATOM     14  N   LIG    1        8.414   2.041  27.361  0.00  0.00    -0.295 N 
ATOM     15  H   LIG    1        8.643   2.789  27.999  0.00  0.00    +0.151 HD
BRANCH  14  16
ATOM     16  C   LIG    1        7.403   2.357  26.356  0.00  0.00    +0.074 C 
ATOM     17  C   LIG    1        7.643   3.668  25.606  0.00  0.00    +0.022 C 
ATOM     18  C   LIG    1        7.194   4.913  26.361  0.00  0.00    +0.002 C 
ATOM     19  C   LIG    1        5.793   4.794  26.962  0.00  0.00    +0.000 C 
ATOM     20  C   LIG    1        5.464   3.459  27.628  0.00  0.00    +0.002 C 
ATOM     21  C   LIG    1        5.961   2.245  26.854  0.00  0.00    +0.022 C 
ENDBRANCH  14  16
ENDBRANCH   7  12
ENDBRANCH   1   7
BRANCH   4  22
ATOM     22  C   LIG    1       16.215   2.849  28.558  0.00  0.00    +0.054 C 
BRANCH  22  23
ATOM     23  C   LIG    1       16.690   4.310  28.691  0.00  0.00    +0.121 C 
BRANCH  23  24
ATOM     24  N   LIG    1       17.154   4.736  27.378  0.00  0.00    -0.237 N 
ATOM     25  C   LIG    1       17.710   5.993  27.230  0.00  0.00    +0.232 C 
ATOM     26  O   LIG    1       17.363   6.959  27.909  0.00  0.00    -0.274 OA
ATOM     27  C   LIG    1       18.919   6.032  26.286  0.00  0.00    +0.067 C 
ATOM     28  C   LIG    1       20.124   5.645  27.172  0.00  0.00    +0.025 C 
ATOM     29  C   LIG    1       19.108   7.470  25.771  0.00  0.00    +0.025 C 
ATOM     30  C   LIG    1       18.800   5.033  25.140  0.00  0.00    -0.021 A 
ATOM     31  C   LIG    1       19.753   4.981  24.110  0.00  0.00    +0.009 A 
ATOM     32  C   LIG    1       19.665   4.025  23.092  0.00  0.00    +0.046 A 
ATOM     33  C   LIG    1       18.617   3.110  23.072  0.00  0.00    +0.121 A 
ATOM     34  C   LIG    1       17.664   3.148  24.086  0.00  0.00    +0.059 A 
ATOM     35  C   LIG    1       17.766   4.086  25.123  0.00  0.00    +0.045 A 
ATOM     36  C   LIG    1       16.866   3.935  26.288  0.00  0.00    +0.253 C 
ATOM     37  O   LIG    1       15.980   3.088  26.284  0.00  0.00    -0.270 OA
BRANCH  33  38
ATOM     38  O   LIG    1       18.426   2.120  22.148  0.00  0.00    -0.495 OA
ATOM     39  C   LIG    1       18.994   0.850  22.441  0.00  0.00    +0.277 C 
ENDBRANCH  33  38
ENDBRANCH  23  24
ENDBRANCH  22  23
ENDBRANCH   4  22
TORSDOF 7
ENDMDL
MODEL 6
REMARK VINA RESULT:      -8.2     10.206     14.240
REMARK  Name = 
REMARK                            x       y       z     vdW  Elec       q    Type
REMARK                         _______ _______ _______ _____ _____    ______ ____
ROOT
ATOM      1  C   LIG    1       10.661   2.665  29.586  0.00  0.00    +0.109 A 
ATOM      2  C   LIG    1        9.987   1.969  28.583  0.00  0.00    +0.029 A 
ATOM      3  C   LIG    1        9.678   2.615  27.389  0.00  0.00    +0.005 A 
ATOM      4  C   LIG    1       10.036   3.954  27.200  0.00  0.00    -0.046 A 
ATOM      5  C   LIG    1       10.728   4.634  28.221  0.00  0.00    +0.005 A 
ATOM      6  C   LIG    1       11.046   3.994  29.413  0.00  0.00    +0.029 A 
ENDROOT
BRANCH   1   7
ATOM      7  S   LIG    1       10.934   1.893  31.151  0.00  0.00    +0.076 S 
ATOM      8  O   LIG    1        9.765   2.095  31.978  0.00  0.00    -0.150 OA
ATOM      9  O   LIG    1       11.474   0.571  30.926  0.00  0.00    -0.150 OA
BRANCH   7  12
ATOM     10  O   LIG    1       13.272   4.146  33.099  0.00  0.00    -0.251 OA
ATOM     11  C   LIG    1       12.358   3.348  32.985  0.00  0.00    +0.319 C 
ATOM     12  N   LIG    1       12.140   2.857  31.716  0.00  0.00    -0.169 N 
ATOM     13  H   LIG    1       12.778   3.243  31.026  0.00  0.00    +0.178 HD
ATOM     14  N   LIG    1       11.553   2.899  33.982  0.00  0.00    -0.295 N 
ATOM     15  H   LIG    1       10.843   2.229  33.721  0.00  0.00    +0.151 HD
BRANCH  14  16
ATOM     16  C   LIG    1       11.594   3.254  35.398  0.00  0.00    +0.074 C 
ATOM     17  C   LIG    1       12.739   2.608  36.180  0.00  0.00    +0.022 C 
ATOM     18  C   LIG    1       12.471   1.171  36.611  0.00  0.00    +0.002 C 
ATOM     19  C   LIG    1       11.096   0.969  37.248  0.00  0.00    +0.000 C 
ATOM     20  C   LIG    1        9.932   1.685  36.567  0.00  0.00    +0.002 C 
ATOM     21  C   LIG    1       10.256   3.106  36.125  0.00  0.00    +0.022 C 
ENDBRANCH  14  16
ENDBRANCH   7  12
ENDBRANCH   1   7
BRANCH   4  22
ATOM     22  C   LIG    1        9.697   4.739  25.964  0.00  0.00    +0.054 C 
BRANCH  22  23
ATOM     23  C   LIG    1        8.467   4.333  25.129  0.00  0.00    +0.121 C 
BRANCH  23  24
ATOM     24  N   LIG    1        7.310   5.006  25.703  0.00  0.00    -0.237 N 
ATOM     25  C   LIG    1        6.289   4.254  26.251  0.00  0.00    +0.232 C 
ATOM     26  O   LIG    1        5.985   3.138  25.831  0.00  0.00    -0.274 OA
ATOM     27  C   LIG    1        5.702   4.845  27.540  0.00  0.00    +0.067 C 
ATOM     28  C   LIG    1        6.630   4.337  28.666  0.00  0.00    +0.025 C 
ATOM     29  C   LIG    1        4.287   4.278  27.753  0.00  0.00    +0.025 C 
ATOM     30  C   LIG    1        5.705   6.369  27.539  0.00  0.00    -0.021 A 
ATOM     31  C   LIG    1        5.118   7.105  28.581  0.00  0.00    +0.009 A 
ATOM     32  C   LIG    1        5.173   8.504  28.599  0.00  0.00    +0.046 A 
ATOM     33  C   LIG    1        5.803   9.198  27.571  0.00  0.00    +0.121 A 
ATOM     34  C   LIG    1        6.390   8.483  26.530  0.00  0.00    +0.059 A 
ATOM     35  C   LIG    1        6.361   7.082  26.525  0.00  0.00    +0.045 A 
ATOM     36  C   LIG    1        7.192   6.373  25.526  0.00  0.00    +0.253 C 
ATOM     37  O   LIG    1        7.789   6.998  24.657  0.00  0.00    -0.270 OA
BRANCH  33  38
ATOM     38  O   LIG    1        5.941  10.555  27.478  0.00  0.00    -0.495 OA
ATOM     39  C   LIG    1        6.142  11.093  26.178  0.00  0.00    +0.277 C 
ENDBRANCH  33  38
ENDBRANCH  23  24
ENDBRANCH  22  23
ENDBRANCH   4  22
TORSDOF 7
ENDMDL
MODEL 7
REMARK VINA RESULT:      -8.2      1.339      1.727
REMARK  Name = 
REMARK                            x       y       z     vdW  Elec       q    Type
REMARK                         _______ _______ _______ _____ _____    ______ ____
ROOT
ATOM      1  C   LIG    1       19.394   6.969  29.018  0.00  0.00    +0.109 A 
ATOM      2  C   LIG    1       18.586   6.815  30.145  0.00  0.00    +0.029 A 
ATOM      3  C   LIG    1       19.097   7.124  31.402  0.00  0.00    +0.005 A 
ATOM      4  C   LIG    1       20.413   7.581  31.534  0.00  0.00    -0.046 A 
ATOM      5  C   LIG    1       21.207   7.742  30.382  0.00  0.00    +0.005 A 
ATOM      6  C   LIG    1       20.702   7.441  29.123  0.00  0.00    +0.029 A 
ENDROOT
BRANCH   1   7
ATOM      7  S   LIG    1       18.796   6.448  27.439  0.00  0.00    +0.076 S 
ATOM      8  O   LIG    1       17.365   6.647  27.397  0.00  0.00    -0.150 OA
ATOM      9  O   LIG    1       19.661   6.993  26.416  0.00  0.00    -0.150 OA
BRANCH   7  12
ATOM     10  O   LIG    1       19.294   2.726  26.962  0.00  0.00    -0.251 OA
ATOM     11  C   LIG    1       19.186   3.877  26.577  0.00  0.00    +0.319 C 
ATOM     12  N   LIG    1       19.091   4.836  27.563  0.00  0.00    -0.169 N 
ATOM     13  H   LIG    1       19.112   4.445  28.500  0.00  0.00    +0.178 HD
ATOM     14  N   LIG    1       19.162   4.295  25.285  0.00  0.00    -0.295 N 
ATOM     15  H   LIG    1       19.075   5.290  25.136  0.00  0.00    +0.151 HD
BRANCH  14  16
ATOM     16  C   LIG    1       19.262   3.482  24.077  0.00  0.00    +0.074 C 
ATOM     17  C   LIG    1       19.759   4.238  22.844  0.00  0.00    +0.022 C 
ATOM     18  C   LIG    1       18.685   5.053  22.134  0.00  0.00    +0.002 C 
ATOM     19  C   LIG    1       17.384   4.283  21.903  0.00  0.00    +0.000 C 
ATOM     20  C   LIG    1       16.902   3.423  23.070  0.00  0.00    +0.002 C 
ATOM     21  C   LIG    1       18.014   2.652  23.769  0.00  0.00    +0.022 C 
ENDBRANCH  14  16
ENDBRANCH   7  12
ENDBRANCH   1   7
BRANCH   4  22
ATOM     22  C   LIG    1       21.058   7.890  32.856  0.00  0.00    +0.054 C 
BRANCH  22  23
ATOM     23  C   LIG    1       22.166   8.959  32.921  0.00  0.00    +0.121 C 
BRANCH  23  24
ATOM     24  N   LIG    1       21.514  10.251  33.080  0.00  0.00    -0.237 N 
ATOM     25  C   LIG    1       21.391  11.089  31.988  0.00  0.00    +0.232 C 
ATOM     26  O   LIG    1       22.218  11.123  31.078  0.00  0.00    -0.274 OA
ATOM     27  C   LIG    1       20.047  11.826  31.917  0.00  0.00    +0.067 C 
ATOM     28  C   LIG    1       19.090  10.835  31.218  0.00  0.00    +0.025 C 
ATOM     29  C   LIG    1       20.208  13.081  31.041  0.00  0.00    +0.025 C 
ATOM     30  C   LIG    1       19.493  12.168  33.296  0.00  0.00    -0.021 A 
ATOM     31  C   LIG    1       18.324  12.931  33.449  0.00  0.00    +0.009 A 
ATOM     32  C   LIG    1       17.793  13.193  34.716  0.00  0.00    +0.046 A 
ATOM     33  C   LIG    1       18.424  12.712  35.860  0.00  0.00    +0.121 A 
ATOM     34  C   LIG    1       19.583  11.954  35.725  0.00  0.00    +0.059 A 
ATOM     35  C   LIG    1       20.102  11.665  34.455  0.00  0.00    +0.045 A 
ATOM     36  C   LIG    1       21.194  10.671  34.359  0.00  0.00    +0.253 C 
ATOM     37  O   LIG    1       21.707  10.210  35.373  0.00  0.00    -0.270 OA
BRANCH  33  38
ATOM     38  O   LIG    1       18.001  12.883  37.148  0.00  0.00    -0.495 OA
ATOM     39  C   LIG    1       18.299  11.838  38.066  0.00  0.00    +0.277 C 
ENDBRANCH  33  38
ENDBRANCH  23  24
ENDBRANCH  22  23
ENDBRANCH   4  22
TORSDOF 7
ENDMDL
MODEL 8
REMARK VINA RESULT:      -7.9      2.030      3.514
REMARK  Name = 
REMARK                            x       y       z     vdW  Elec       q    Type
REMARK                         _______ _______ _______ _____ _____    ______ ____
ROOT
ATOM      1  C   LIG    1       18.940   6.574  29.168  0.00  0.00    +0.109 A 
ATOM      2  C   LIG    1       20.252   7.034  29.046  0.00  0.00    +0.029 A 
ATOM      3  C   LIG    1       20.881   7.611  30.147  0.00  0.00    +0.005 A 
ATOM      4  C   LIG    1       20.200   7.732  31.363  0.00  0.00    -0.046 A 
ATOM      5  C   LIG    1       18.881   7.249  31.467  0.00  0.00    +0.005 A 
ATOM      6  C   LIG    1       18.249   6.666  30.375  0.00  0.00    +0.029 A 
ENDROOT
BRANCH   1   7
ATOM      7  S   LIG    1       18.093   5.968  27.741  0.00  0.00    +0.076 S 
ATOM      8  O   LIG    1       17.543   4.666  28.047  0.00  0.00    -0.150 OA
ATOM      9  O   LIG    1       17.264   7.028  27.212  0.00  0.00    -0.150 OA
BRANCH   7  12
ATOM     10  O   LIG    1       20.526   5.171  24.952  0.00  0.00    -0.251 OA
ATOM     11  C   LIG    1       19.416   5.350  25.422  0.00  0.00    +0.319 C 
ATOM     12  N   LIG    1       19.379   5.764  26.737  0.00  0.00    -0.169 N 
ATOM     13  H   LIG    1       20.302   5.854  27.151  0.00  0.00    +0.178 HD
ATOM     14  N   LIG    1       18.233   5.193  24.776  0.00  0.00    -0.295 N 
ATOM     15  H   LIG    1       17.398   5.391  25.310  0.00  0.00    +0.151 HD
BRANCH  14  16
ATOM     16  C   LIG    1       18.013   4.783  23.392  0.00  0.00    +0.074 C 
ATOM     17  C   LIG    1       16.645   4.152  23.128  0.00  0.00    +0.022 C 
ATOM     18  C   LIG    1       16.548   2.682  23.514  0.00  0.00    +0.002 C 
ATOM     19  C   LIG    1       17.724   1.839  23.017  0.00  0.00    +0.000 C 
ATOM     20  C   LIG    1       19.106   2.473  23.158  0.00  0.00    +0.002 C 
ATOM     21  C   LIG    1       19.147   3.951  22.792  0.00  0.00    +0.022 C 
ENDBRANCH  14  16
ENDBRANCH   7  12
ENDBRANCH   1   7
BRANCH   4  22
ATOM     22  C   LIG    1       20.787   8.386  32.583  0.00  0.00    +0.054 C 
BRANCH  22  23
ATOM     23  C   LIG    1       21.285   9.841  32.489  0.00  0.00    +0.121 C 
BRANCH  23  24
ATOM     24  N   LIG    1       20.253  10.692  33.065  0.00  0.00    -0.237 N 
ATOM     25  C   LIG    1       20.143  10.790  34.439  0.00  0.00    +0.232 C 
ATOM     26  O   LIG    1       20.423   9.862  35.198  0.00  0.00    -0.274 OA
ATOM     27  C   LIG    1       19.828  12.206  34.940  0.00  0.00    +0.067 C 
ATOM     28  C   LIG    1       21.203  12.904  35.037  0.00  0.00    +0.025 C 
ATOM     29  C   LIG    1       19.203  12.115  36.343  0.00  0.00    +0.025 C 
ATOM     30  C   LIG    1       18.939  12.984  33.976  0.00  0.00    -0.021 A 
ATOM     31  C   LIG    1       18.453  14.262  34.294  0.00  0.00    +0.009 A 
ATOM     32  C   LIG    1       17.683  14.991  33.381  0.00  0.00    +0.046 A 
ATOM     33  C   LIG    1       17.370  14.455  32.135  0.00  0.00    +0.121 A 
ATOM     34  C   LIG    1       17.845  13.189  31.804  0.00  0.00    +0.059 A 
ATOM     35  C   LIG    1       18.641  12.468  32.705  0.00  0.00    +0.045 A 
ATOM     36  C   LIG    1       19.305  11.239  32.219  0.00  0.00    +0.253 C 
ATOM     37  O   LIG    1       19.065  10.804  31.098  0.00  0.00    -0.270 OA
BRANCH  33  38
ATOM     38  O   LIG    1       16.645  15.066  31.151  0.00  0.00    -0.495 OA
ATOM     39  C   LIG    1       15.230  14.967  31.240  0.00  0.00    +0.277 C 
ENDBRANCH  33  38
ENDBRANCH  23  24
ENDBRANCH  22  23
ENDBRANCH   4  22
TORSDOF 7
ENDMDL
MODEL 9
REMARK VINA RESULT:      -7.6      6.422      9.973
REMARK  Name = 
REMARK                            x       y       z     vdW  Elec       q    Type
REMARK                         _______ _______ _______ _____ _____    ______ ____
ROOT
ATOM      1  C   LIG    1       17.159   3.486  26.916  0.00  0.00    +0.109 A 
ATOM      2  C   LIG    1       16.041   3.219  26.126  0.00  0.00    +0.029 A 
ATOM      3  C   LIG    1       14.860   2.796  26.730  0.00  0.00    +0.005 A 
ATOM      4  C   LIG    1       14.798   2.636  28.119  0.00  0.00    -0.046 A 
ATOM      5  C   LIG    1       15.935   2.924  28.898  0.00  0.00    +0.005 A 
ATOM      6  C   LIG    1       17.115   3.353  28.304  0.00  0.00    +0.029 A 
ENDROOT
BRANCH   1   7
ATOM      7  S   LIG    1       18.696   3.890  26.144  0.00  0.00    +0.076 S 
ATOM      8  O   LIG    1       19.736   3.880  27.149  0.00  0.00    -0.150 OA
ATOM      9  O   LIG    1       18.819   3.117  24.929  0.00  0.00    -0.150 OA
BRANCH   7  12
ATOM     10  O   LIG    1       17.993   7.606  25.980  0.00  0.00    -0.251 OA
ATOM     11  C   LIG    1       18.379   6.585  26.521  0.00  0.00    +0.319 C 
ATOM     12  N   LIG    1       18.385   5.452  25.737  0.00  0.00    -0.169 N 
ATOM     13  H   LIG    1       18.049   5.620  24.793  0.00  0.00    +0.178 HD
ATOM     14  N   LIG    1       18.807   6.467  27.804  0.00  0.00    -0.295 N 
ATOM     15  H   LIG    1       19.102   5.546  28.097  0.00  0.00    +0.151 HD
BRANCH  14  16
ATOM     16  C   LIG    1       18.908   7.513  28.817  0.00  0.00    +0.074 C 
ATOM     17  C   LIG    1       20.240   7.540  29.570  0.00  0.00    +0.022 C 
ATOM     18  C   LIG    1       20.342   6.523  30.699  0.00  0.00    +0.002 C 
ATOM     19  C   LIG    1       19.116   6.497  31.613  0.00  0.00    +0.000 C 
ATOM     20  C   LIG    1       17.760   6.579  30.914  0.00  0.00    +0.002 C 
ATOM     21  C   LIG    1       17.715   7.586  29.772  0.00  0.00    +0.022 C 
ENDBRANCH  14  16
ENDBRANCH   7  12
ENDBRANCH   1   7
BRANCH   4  22
ATOM     22  C   LIG    1       13.580   2.137  28.845  0.00  0.00    +0.054 C 
BRANCH  22  23
ATOM     23  C   LIG    1       12.189   2.640  28.412  0.00  0.00    +0.121 C 
BRANCH  23  24
ATOM     24  N   LIG    1       11.336   2.627  29.593  0.00  0.00    -0.237 N 
ATOM     25  C   LIG    1       10.024   2.209  29.477  0.00  0.00    +0.232 C 
ATOM     26  O   LIG    1        9.358   2.376  28.456  0.00  0.00    -0.274 OA
ATOM     27  C   LIG    1        9.537   1.355  30.656  0.00  0.00    +0.067 C 
ATOM     28  C   LIG    1        9.986  -0.084  30.312  0.00  0.00    +0.025 C 
ATOM     29  C   LIG    1        7.999   1.407  30.712  0.00  0.00    +0.025 C 
ATOM     30  C   LIG    1       10.165   1.772  31.981  0.00  0.00    -0.021 A 
ATOM     31  C   LIG    1        9.776   1.183  33.195  0.00  0.00    +0.009 A 
ATOM     32  C   LIG    1       10.396   1.533  34.399  0.00  0.00    +0.046 A 
ATOM     33  C   LIG    1       11.408   2.489  34.420  0.00  0.00    +0.121 A 
ATOM     34  C   LIG    1       11.805   3.081  33.225  0.00  0.00    +0.059 A 
ATOM     35  C   LIG    1       11.206   2.711  32.013  0.00  0.00    +0.045 A 
ATOM     36  C   LIG    1       11.818   3.197  30.757  0.00  0.00    +0.253 C 
ATOM     37  O   LIG    1       12.747   3.997  30.786  0.00  0.00    -0.270 OA
BRANCH  33  38
ATOM     38  O   LIG    1       12.103   2.906  35.521  0.00  0.00    -0.495 OA
ATOM     39  C   LIG    1       12.319   1.945  36.546  0.00  0.00    +0.277 C 
ENDBRANCH  33  38
ENDBRANCH  23  24
ENDBRANCH  22  23
ENDBRANCH   4  22
TORSDOF 7
ENDMDL
