MODEL 1
REMARK VINA RESULT:      -2.3      0.000      0.000
REMARK  Name = 
REMARK                            x       y       z     vdW  Elec       q    Type
REMARK                         _______ _______ _______ _____ _____    ______ ____
ROOT
ATOM      1  C   LIG    1       16.156   1.684  53.452  0.00  0.00    +0.109 A 
ATOM      2  C   LIG    1       16.105   2.747  54.356  0.00  0.00    +0.029 A 
ATOM      3  C   LIG    1       16.417   4.032  53.919  0.00  0.00    +0.005 A 
ATOM      4  C   LIG    1       16.782   4.254  52.588  0.00  0.00    -0.046 A 
ATOM      5  C   LIG    1       16.814   3.169  51.690  0.00  0.00    +0.005 A 
ATOM      6  C   LIG    1       16.498   1.885  52.116  0.00  0.00    +0.029 A 
ENDROOT
BRANCH   1   7
ATOM      7  S   LIG    1       15.895   0.035  54.031  0.00  0.00    +0.076 S 
ATOM      8  O   LIG    1       15.694   0.073  55.462  0.00  0.00    -0.150 OA
ATOM      9  O   LIG    1       14.946  -0.616  53.156  0.00  0.00    -0.150 OA
BRANCH   7  12
ATOM     10  O   LIG    1       19.585  -0.743  53.691  0.00  0.00    -0.251 OA
ATOM     11  C   LIG    1       18.625  -0.159  54.164  0.00  0.00    +0.319 C 
ATOM     12  N   LIG    1       17.387  -0.588  53.734  0.00  0.00    -0.169 N 
ATOM     13  H   LIG    1       17.441  -1.342  53.056  0.00  0.00    +0.178 HD
ATOM     14  N   LIG    1       18.664   0.852  55.069  0.00  0.00    -0.295 N 
ATOM     15  H   LIG    1       17.773   1.223  55.367  0.00  0.00    +0.151 HD
BRANCH  14  16
ATOM     16  C   LIG    1       19.839   1.464  55.682  0.00  0.00    +0.074 C 
ATOM     17  C   LIG    1       19.560   2.196  56.995  0.00  0.00    +0.022 C 
ATOM     18  C   LIG    1       18.995   3.600  56.821  0.00  0.00    +0.002 C 
ATOM     19  C   LIG    1       19.751   4.443  55.793  0.00  0.00    +0.000 C 
ATOM     20  C   LIG    1       20.151   3.724  54.505  0.00  0.00    +0.002 C 
ATOM     21  C   LIG    1       20.679   2.313  54.726  0.00  0.00    +0.022 C 
ENDBRANCH  14  16
ENDBRANCH   7  12
ENDBRANCH   1   7
BRANCH   4  22
ATOM     22  C   LIG    1       17.181   5.599  52.048  0.00  0.00    +0.054 C 
BRANCH  22  23
ATOM     23  C   LIG    1       17.779   5.693  50.630  0.00  0.00    +0.121 C 
BRANCH  23  24
ATOM     24  N   LIG    1       19.223   5.814  50.775  0.00  0.00    -0.237 N 
ATOM     25  C   LIG    1       19.785   7.064  50.950  0.00  0.00    +0.232 C 
ATOM     26  O   LIG    1       19.305   8.086  50.459  0.00  0.00    -0.274 OA
ATOM     27  C   LIG    1       20.940   7.092  51.960  0.00  0.00    +0.067 C 
ATOM     28  C   LIG    1       20.257   7.248  53.337  0.00  0.00    +0.025 C 
ATOM     29  C   LIG    1       21.817   8.327  51.685  0.00  0.00    +0.025 C 
ATOM     30  C   LIG    1       21.758   5.805  51.950  0.00  0.00    -0.021 A 
ATOM     31  C   LIG    1       22.919   5.668  52.727  0.00  0.00    +0.009 A 
ATOM     32  C   LIG    1       23.633   4.464  52.753  0.00  0.00    +0.046 A 
ATOM     33  C   LIG    1       23.211   3.376  51.994  0.00  0.00    +0.121 A 
ATOM     34  C   LIG    1       22.061   3.497  51.218  0.00  0.00    +0.059 A 
ATOM     35  C   LIG    1       21.328   4.692  51.213  0.00  0.00    +0.045 A 
ATOM     36  C   LIG    1       20.001   4.691  50.559  0.00  0.00    +0.253 C 
ATOM     37  O   LIG    1       19.614   3.707  49.938  0.00  0.00    -0.270 OA
BRANCH  33  38
ATOM     38  O   LIG    1       23.805   2.147  51.944  0.00  0.00    -0.495 OA
ATOM     39  C   LIG    1       23.802   1.482  50.687  0.00  0.00    +0.277 C 
ENDBRANCH  33  38
ENDBRANCH  23  24
ENDBRANCH  22  23
ENDBRANCH   4  22
TORSDOF 7
ENDMDL
MODEL 2
REMARK VINA RESULT:      -2.1      3.203      6.337
REMARK  Name = 
REMARK                            x       y       z     vdW  Elec       q    Type
REMARK                         _______ _______ _______ _____ _____    ______ ____
ROOT
ATOM      1  C   LIG    1       18.606   4.609  52.128  0.00  0.00    +0.109 A 
ATOM      2  C   LIG    1       19.430   5.480  52.843  0.00  0.00    +0.029 A 
ATOM      3  C   LIG    1       18.884   6.627  53.413  0.00  0.00    +0.005 A 
ATOM      4  C   LIG    1       17.521   6.906  53.265  0.00  0.00    -0.046 A 
ATOM      5  C   LIG    1       16.706   6.007  52.552  0.00  0.00    +0.005 A 
ATOM      6  C   LIG    1       17.241   4.857  51.985  0.00  0.00    +0.029 A 
ENDROOT
BRANCH   1   7
ATOM      7  S   LIG    1       19.317   3.227  51.289  0.00  0.00    +0.076 S 
ATOM      8  O   LIG    1       18.375   2.750  50.301  0.00  0.00    -0.150 OA
ATOM      9  O   LIG    1       20.679   3.555  50.931  0.00  0.00    -0.150 OA
BRANCH   7  12
ATOM     10  O   LIG    1       18.617   0.816  54.122  0.00  0.00    -0.251 OA
ATOM     11  C   LIG    1       18.320   1.463  53.134  0.00  0.00    +0.319 C 
ATOM     12  N   LIG    1       19.352   2.152  52.532  0.00  0.00    -0.169 N 
ATOM     13  H   LIG    1       20.240   2.034  53.010  0.00  0.00    +0.178 HD
ATOM     14  N   LIG    1       17.087   1.559  52.574  0.00  0.00    -0.295 N 
ATOM     15  H   LIG    1       17.011   2.134  51.748  0.00  0.00    +0.151 HD
BRANCH  14  16
ATOM     16  C   LIG    1       15.851   0.918  53.012  0.00  0.00    +0.074 C 
ATOM     17  C   LIG    1       15.408  -0.263  52.147  0.00  0.00    +0.022 C 
ATOM     18  C   LIG    1       14.677   0.135  50.871  0.00  0.00    +0.002 C 
ATOM     19  C   LIG    1       13.585   1.184  51.091  0.00  0.00    +0.000 C 
ATOM     20  C   LIG    1       13.941   2.329  52.037  0.00  0.00    +0.002 C 
ATOM     21  C   LIG    1       14.698   1.887  53.283  0.00  0.00    +0.022 C 
ENDBRANCH  14  16
ENDBRANCH   7  12
ENDBRANCH   1   7
BRANCH   4  22
ATOM     22  C   LIG    1       16.863   8.145  53.806  0.00  0.00    +0.054 C 
BRANCH  22  23
ATOM     23  C   LIG    1       16.978   8.461  55.310  0.00  0.00    +0.121 C 
BRANCH  23  24
ATOM     24  N   LIG    1       16.549   7.275  56.037  0.00  0.00    -0.237 N 
ATOM     25  C   LIG    1       15.207   7.097  56.313  0.00  0.00    +0.232 C 
ATOM     26  O   LIG    1       14.436   8.036  56.510  0.00  0.00    -0.274 OA
ATOM     27  C   LIG    1       14.728   5.646  56.164  0.00  0.00    +0.067 C 
ATOM     28  C   LIG    1       14.401   5.491  54.662  0.00  0.00    +0.025 C 
ATOM     29  C   LIG    1       13.440   5.456  56.987  0.00  0.00    +0.025 C 
ATOM     30  C   LIG    1       15.799   4.633  56.550  0.00  0.00    -0.021 A 
ATOM     31  C   LIG    1       15.529   3.255  56.581  0.00  0.00    +0.009 A 
ATOM     32  C   LIG    1       16.534   2.329  56.883  0.00  0.00    +0.046 A 
ATOM     33  C   LIG    1       17.826   2.758  57.175  0.00  0.00    +0.121 A 
ATOM     34  C   LIG    1       18.109   4.120  57.148  0.00  0.00    +0.059 A 
ATOM     35  C   LIG    1       17.112   5.048  56.817  0.00  0.00    +0.045 A 
ATOM     36  C   LIG    1       17.518   6.451  56.579  0.00  0.00    +0.253 C 
ATOM     37  O   LIG    1       18.673   6.808  56.786  0.00  0.00    -0.270 OA
BRANCH  33  38
ATOM     38  O   LIG    1       18.895   1.959  57.468  0.00  0.00    -0.495 OA
ATOM     39  C   LIG    1       20.140   2.310  56.877  0.00  0.00    +0.277 C 
ENDBRANCH  33  38
ENDBRANCH  23  24
ENDBRANCH  22  23
ENDBRANCH   4  22
TORSDOF 7
ENDMDL
MODEL 3
REMARK VINA RESULT:      -2.1      3.961      7.590
REMARK  Name = 
REMARK                            x       y       z     vdW  Elec       q    Type
REMARK                         _______ _______ _______ _____ _____    ______ ____
ROOT
ATOM      1  C   LIG    1       18.432   4.494  52.269  0.00  0.00    +0.109 A 
ATOM      2  C   LIG    1       17.150   4.889  51.885  0.00  0.00    +0.029 A 
ATOM      3  C   LIG    1       16.492   5.879  52.609  0.00  0.00    +0.005 A 
ATOM      4  C   LIG    1       17.110   6.470  53.716  0.00  0.00    -0.046 A 
ATOM      5  C   LIG    1       18.410   6.065  54.079  0.00  0.00    +0.005 A 
ATOM      6  C   LIG    1       19.076   5.082  53.357  0.00  0.00    +0.029 A 
ENDROOT
BRANCH   1   7
ATOM      7  S   LIG    1       19.214   3.145  51.439  0.00  0.00    +0.076 S 
ATOM      8  O   LIG    1       18.345   2.686  50.378  0.00  0.00    -0.150 OA
ATOM      9  O   LIG    1       20.592   3.499  51.181  0.00  0.00    -0.150 OA
BRANCH   7  12
ATOM     10  O   LIG    1       18.363   0.646  54.152  0.00  0.00    -0.251 OA
ATOM     11  C   LIG    1       18.122   1.320  53.166  0.00  0.00    +0.319 C 
ATOM     12  N   LIG    1       19.182   2.034  52.651  0.00  0.00    -0.169 N 
ATOM     13  H   LIG    1       20.040   1.910  53.180  0.00  0.00    +0.178 HD
ATOM     14  N   LIG    1       16.925   1.421  52.533  0.00  0.00    -0.295 N 
ATOM     15  H   LIG    1       16.896   2.019  51.720  0.00  0.00    +0.151 HD
BRANCH  14  16
ATOM     16  C   LIG    1       15.671   0.757  52.873  0.00  0.00    +0.074 C 
ATOM     17  C   LIG    1       15.303  -0.411  51.957  0.00  0.00    +0.022 C 
ATOM     18  C   LIG    1       14.655   0.005  50.642  0.00  0.00    +0.002 C 
ATOM     19  C   LIG    1       13.537   1.035  50.808  0.00  0.00    +0.000 C 
ATOM     20  C   LIG    1       13.813   2.165  51.799  0.00  0.00    +0.002 C 
ATOM     21  C   LIG    1       14.490   1.706  53.084  0.00  0.00    +0.022 C 
ENDBRANCH  14  16
ENDBRANCH   7  12
ENDBRANCH   1   7
BRANCH   4  22
ATOM     22  C   LIG    1       16.452   7.508  54.581  0.00  0.00    +0.054 C 
BRANCH  22  23
ATOM     23  C   LIG    1       14.927   7.446  54.801  0.00  0.00    +0.121 C 
BRANCH  23  24
ATOM     24  N   LIG    1       14.684   6.510  55.890  0.00  0.00    -0.237 N 
ATOM     25  C   LIG    1       14.194   5.250  55.606  0.00  0.00    +0.232 C 
ATOM     26  O   LIG    1       13.443   5.025  54.657  0.00  0.00    -0.274 OA
ATOM     27  C   LIG    1       14.816   4.134  56.455  0.00  0.00    +0.067 C 
ATOM     28  C   LIG    1       16.118   3.754  55.714  0.00  0.00    +0.025 C 
ATOM     29  C   LIG    1       13.866   2.922  56.466  0.00  0.00    +0.025 C 
ATOM     30  C   LIG    1       15.161   4.594  57.867  0.00  0.00    -0.021 A 
ATOM     31  C   LIG    1       15.645   3.698  58.833  0.00  0.00    +0.009 A 
ATOM     32  C   LIG    1       16.011   4.140  60.110  0.00  0.00    +0.046 A 
ATOM     33  C   LIG    1       15.887   5.483  60.454  0.00  0.00    +0.121 A 
ATOM     34  C   LIG    1       15.408   6.383  59.507  0.00  0.00    +0.059 A 
ATOM     35  C   LIG    1       15.069   5.949  58.219  0.00  0.00    +0.045 A 
ATOM     36  C   LIG    1       14.788   6.974  57.189  0.00  0.00    +0.253 C 
ATOM     37  O   LIG    1       14.735   8.161  57.492  0.00  0.00    -0.270 OA
BRANCH  33  38
ATOM     38  O   LIG    1       16.222   6.043  61.655  0.00  0.00    -0.495 OA
ATOM     39  C   LIG    1       16.621   7.407  61.638  0.00  0.00    +0.277 C 
ENDBRANCH  33  38
ENDBRANCH  23  24
ENDBRANCH  22  23
ENDBRANCH   4  22
TORSDOF 7
ENDMDL
MODEL 4
REMARK VINA RESULT:      -2.1      1.850      2.389
REMARK  Name = 
REMARK                            x       y       z     vdW  Elec       q    Type
REMARK                         _______ _______ _______ _____ _____    ______ ____
ROOT
ATOM      1  C   LIG    1       16.852   2.969  51.834  0.00  0.00    +0.109 A 
ATOM      2  C   LIG    1       16.586   4.268  52.268  0.00  0.00    +0.029 A 
ATOM      3  C   LIG    1       17.431   5.306  51.883  0.00  0.00    +0.005 A 
ATOM      4  C   LIG    1       18.541   5.046  51.072  0.00  0.00    -0.046 A 
ATOM      5  C   LIG    1       18.783   3.729  50.635  0.00  0.00    +0.005 A 
ATOM      6  C   LIG    1       17.941   2.689  51.009  0.00  0.00    +0.029 A 
ENDROOT
BRANCH   1   7
ATOM      7  S   LIG    1       15.864   1.631  52.430  0.00  0.00    +0.076 S 
ATOM      8  O   LIG    1       15.016   2.120  53.494  0.00  0.00    -0.150 OA
ATOM      9  O   LIG    1       15.313   0.924  51.295  0.00  0.00    -0.150 OA
BRANCH   7  12
ATOM     10  O   LIG    1       18.825   0.171  54.283  0.00  0.00    -0.251 OA
ATOM     11  C   LIG    1       17.981   1.021  54.059  0.00  0.00    +0.319 C 
ATOM     12  N   LIG    1       17.047   0.704  53.095  0.00  0.00    -0.169 N 
ATOM     13  H   LIG    1       17.198  -0.211  52.682  0.00  0.00    +0.178 HD
ATOM     14  N   LIG    1       17.871   2.228  54.671  0.00  0.00    -0.295 N 
ATOM     15  H   LIG    1       17.106   2.816  54.373  0.00  0.00    +0.151 HD
BRANCH  14  16
ATOM     16  C   LIG    1       18.719   2.781  55.723  0.00  0.00    +0.074 C 
ATOM     17  C   LIG    1       18.012   3.768  56.653  0.00  0.00    +0.022 C 
ATOM     18  C   LIG    1       17.890   5.179  56.094  0.00  0.00    +0.002 C 
ATOM     19  C   LIG    1       19.191   5.718  55.498  0.00  0.00    +0.000 C 
ATOM     20  C   LIG    1       19.993   4.734  54.648  0.00  0.00    +0.002 C 
ATOM     21  C   LIG    1       20.061   3.328  55.231  0.00  0.00    +0.022 C 
ENDBRANCH  14  16
ENDBRANCH   7  12
ENDBRANCH   1   7
BRANCH   4  22
ATOM     22  C   LIG    1       19.530   6.098  50.653  0.00  0.00    +0.054 C 
BRANCH  22  23
ATOM     23  C   LIG    1       20.827   5.668  49.939  0.00  0.00    +0.121 C 
BRANCH  23  24
ATOM     24  N   LIG    1       21.905   5.740  50.916  0.00  0.00    -0.237 N 
ATOM     25  C   LIG    1       22.525   6.951  51.154  0.00  0.00    +0.232 C 
ATOM     26  O   LIG    1       22.660   7.813  50.286  0.00  0.00    -0.274 OA
ATOM     27  C   LIG    1       22.856   7.202  52.632  0.00  0.00    +0.067 C 
ATOM     28  C   LIG    1       21.559   7.790  53.232  0.00  0.00    +0.025 C 
ATOM     29  C   LIG    1       23.979   8.250  52.724  0.00  0.00    +0.025 C 
ATOM     30  C   LIG    1       23.215   5.921  53.377  0.00  0.00    -0.021 A 
ATOM     31  C   LIG    1       23.648   5.946  54.712  0.00  0.00    +0.009 A 
ATOM     32  C   LIG    1       23.924   4.761  55.405  0.00  0.00    +0.046 A 
ATOM     33  C   LIG    1       23.787   3.528  54.775  0.00  0.00    +0.121 A 
ATOM     34  C   LIG    1       23.359   3.486  53.451  0.00  0.00    +0.059 A 
ATOM     35  C   LIG    1       23.054   4.669  52.765  0.00  0.00    +0.045 A 
ATOM     36  C   LIG    1       22.388   4.558  51.448  0.00  0.00    +0.253 C 
ATOM     37  O   LIG    1       22.222   3.461  50.925  0.00  0.00    -0.270 OA
BRANCH  33  38
ATOM     38  O   LIG    1       24.007   2.303  55.341  0.00  0.00    -0.495 OA
ATOM     39  C   LIG    1       23.783   1.166  54.518  0.00  0.00    +0.277 C 
ENDBRANCH  33  38
ENDBRANCH  23  24
ENDBRANCH  22  23
ENDBRANCH   4  22
TORSDOF 7
ENDMDL
MODEL 5
REMARK VINA RESULT:      -2.1      1.666      2.444
REMARK  Name = 
REMARK                            x       y       z     vdW  Elec       q    Type
REMARK                         _______ _______ _______ _____ _____    ______ ____
ROOT
ATOM      1  C   LIG    1       15.774   2.602  52.210  0.00  0.00    +0.109 A 
ATOM      2  C   LIG    1       17.052   2.592  51.650  0.00  0.00    +0.029 A 
ATOM      3  C   LIG    1       17.863   3.717  51.775  0.00  0.00    +0.005 A 
ATOM      4  C   LIG    1       17.397   4.850  52.450  0.00  0.00    -0.046 A 
ATOM      5  C   LIG    1       16.109   4.833  53.018  0.00  0.00    +0.005 A 
ATOM      6  C   LIG    1       15.295   3.712  52.905  0.00  0.00    +0.029 A 
ENDROOT
BRANCH   1   7
ATOM      7  S   LIG    1       14.692   1.232  51.938  0.00  0.00    +0.076 S 
ATOM      8  O   LIG    1       13.438   1.728  51.418  0.00  0.00    -0.150 OA
ATOM      9  O   LIG    1       15.429   0.191  51.256  0.00  0.00    -0.150 OA
BRANCH   7  12
ATOM     10  O   LIG    1       14.914  -0.026  55.502  0.00  0.00    -0.251 OA
ATOM     11  C   LIG    1       15.376   0.390  54.454  0.00  0.00    +0.319 C 
ATOM     12  N   LIG    1       14.458   0.767  53.497  0.00  0.00    -0.169 N 
ATOM     13  H   LIG    1       13.496   0.634  53.795  0.00  0.00    +0.178 HD
ATOM     14  N   LIG    1       16.693   0.523  54.152  0.00  0.00    -0.295 N 
ATOM     15  H   LIG    1       16.910   0.892  53.237  0.00  0.00    +0.151 HD
BRANCH  14  16
ATOM     16  C   LIG    1       17.843   0.210  54.995  0.00  0.00    +0.074 C 
ATOM     17  C   LIG    1       18.177   1.282  56.034  0.00  0.00    +0.022 C 
ATOM     18  C   LIG    1       18.975   2.458  55.487  0.00  0.00    +0.002 C 
ATOM     19  C   LIG    1       20.167   2.042  54.624  0.00  0.00    +0.000 C 
ATOM     20  C   LIG    1       19.915   0.898  53.644  0.00  0.00    +0.002 C 
ATOM     21  C   LIG    1       19.087  -0.240  54.226  0.00  0.00    +0.022 C 
ENDBRANCH  14  16
ENDBRANCH   7  12
ENDBRANCH   1   7
BRANCH   4  22
ATOM     22  C   LIG    1       18.188   6.121  52.586  0.00  0.00    +0.054 C 
BRANCH  22  23
ATOM     23  C   LIG    1       19.161   6.525  51.460  0.00  0.00    +0.121 C 
BRANCH  23  24
ATOM     24  N   LIG    1       20.486   6.055  51.842  0.00  0.00    -0.237 N 
ATOM     25  C   LIG    1       21.233   6.791  52.742  0.00  0.00    +0.232 C 
ATOM     26  O   LIG    1       21.160   8.017  52.824  0.00  0.00    -0.274 OA
ATOM     27  C   LIG    1       22.011   5.936  53.751  0.00  0.00    +0.067 C 
ATOM     28  C   LIG    1       21.002   5.646  54.884  0.00  0.00    +0.025 C 
ATOM     29  C   LIG    1       23.182   6.763  54.312  0.00  0.00    +0.025 C 
ATOM     30  C   LIG    1       22.488   4.616  53.156  0.00  0.00    -0.021 A 
ATOM     31  C   LIG    1       23.304   3.735  53.883  0.00  0.00    +0.009 A 
ATOM     32  C   LIG    1       23.691   2.500  53.349  0.00  0.00    +0.046 A 
ATOM     33  C   LIG    1       23.283   2.124  52.072  0.00  0.00    +0.121 A 
ATOM     34  C   LIG    1       22.474   2.987  51.338  0.00  0.00    +0.059 A 
ATOM     35  C   LIG    1       22.061   4.211  51.882  0.00  0.00    +0.045 A 
ATOM     36  C   LIG    1       21.022   4.978  51.160  0.00  0.00    +0.253 C 
ATOM     37  O   LIG    1       20.629   4.609  50.058  0.00  0.00    -0.270 OA
BRANCH  33  38
ATOM     38  O   LIG    1       23.577   0.946  51.444  0.00  0.00    -0.495 OA
ATOM     39  C   LIG    1       24.304   1.031  50.226  0.00  0.00    +0.277 C 
ENDBRANCH  33  38
ENDBRANCH  23  24
ENDBRANCH  22  23
ENDBRANCH   4  22
TORSDOF 7
ENDMDL
MODEL 6
REMARK VINA RESULT:      -2.0      2.857      6.875
REMARK  Name = 
REMARK                            x       y       z     vdW  Elec       q    Type
REMARK                         _______ _______ _______ _____ _____    ______ ____
ROOT
ATOM      1  C   LIG    1       19.621   7.635  55.037  0.00  0.00    +0.109 A 
ATOM      2  C   LIG    1       18.359   7.563  54.446  0.00  0.00    +0.029 A 
ATOM      3  C   LIG    1       17.475   6.561  54.838  0.00  0.00    +0.005 A 
ATOM      4  C   LIG    1       17.852   5.632  55.813  0.00  0.00    -0.046 A 
ATOM      5  C   LIG    1       19.125   5.731  56.406  0.00  0.00    +0.005 A 
ATOM      6  C   LIG    1       20.011   6.732  56.025  0.00  0.00    +0.029 A 
ENDROOT
BRANCH   1   7
ATOM      7  S   LIG    1       20.794   8.816  54.447  0.00  0.00    +0.076 S 
ATOM      8  O   LIG    1       20.078   9.922  53.850  0.00  0.00    -0.150 OA
ATOM      9  O   LIG    1       21.787   9.033  55.475  0.00  0.00    -0.150 OA
BRANCH   7  12
ATOM     10  O   LIG    1       21.676   6.874  51.319  0.00  0.00    -0.251 OA
ATOM     11  C   LIG    1       21.017   7.666  51.970  0.00  0.00    +0.319 C 
ATOM     12  N   LIG    1       21.478   7.932  53.242  0.00  0.00    -0.169 N 
ATOM     13  H   LIG    1       22.318   7.411  53.477  0.00  0.00    +0.178 HD
ATOM     14  N   LIG    1       19.894   8.308  51.559  0.00  0.00    -0.295 N 
ATOM     15  H   LIG    1       19.470   8.942  52.221  0.00  0.00    +0.151 HD
BRANCH  14  16
ATOM     16  C   LIG    1       19.226   8.208  50.265  0.00  0.00    +0.074 C 
ATOM     17  C   LIG    1       18.299   9.381  49.938  0.00  0.00    +0.022 C 
ATOM     18  C   LIG    1       16.924   9.292  50.586  0.00  0.00    +0.002 C 
ATOM     19  C   LIG    1       16.262   7.922  50.436  0.00  0.00    +0.000 C 
ATOM     20  C   LIG    1       17.173   6.714  50.645  0.00  0.00    +0.002 C 
ATOM     21  C   LIG    1       18.548   6.861  50.006  0.00  0.00    +0.022 C 
ENDBRANCH  14  16
ENDBRANCH   7  12
ENDBRANCH   1   7
BRANCH   4  22
ATOM     22  C   LIG    1       16.978   4.492  56.257  0.00  0.00    +0.054 C 
BRANCH  22  23
ATOM     23  C   LIG    1       17.562   3.065  56.287  0.00  0.00    +0.121 C 
BRANCH  23  24
ATOM     24  N   LIG    1       17.798   2.662  54.908  0.00  0.00    -0.237 N 
ATOM     25  C   LIG    1       16.762   2.116  54.174  0.00  0.00    +0.232 C 
ATOM     26  O   LIG    1       15.869   1.440  54.683  0.00  0.00    -0.274 OA
ATOM     27  C   LIG    1       16.720   2.583  52.713  0.00  0.00    +0.067 C 
ATOM     28  C   LIG    1       15.942   3.917  52.748  0.00  0.00    +0.025 C 
ATOM     29  C   LIG    1       15.932   1.557  51.880  0.00  0.00    +0.025 C 
ATOM     30  C   LIG    1       18.110   2.830  52.137  0.00  0.00    -0.021 A 
ATOM     31  C   LIG    1       18.295   3.165  50.786  0.00  0.00    +0.009 A 
ATOM     32  C   LIG    1       19.569   3.443  50.278  0.00  0.00    +0.046 A 
ATOM     33  C   LIG    1       20.688   3.380  51.104  0.00  0.00    +0.121 A 
ATOM     34  C   LIG    1       20.520   3.049  52.446  0.00  0.00    +0.059 A 
ATOM     35  C   LIG    1       19.242   2.799  52.964  0.00  0.00    +0.045 A 
ATOM     36  C   LIG    1       19.096   2.681  54.431  0.00  0.00    +0.253 C 
ATOM     37  O   LIG    1       20.085   2.682  55.157  0.00  0.00    -0.270 OA
BRANCH  33  38
ATOM     38  O   LIG    1       21.978   3.643  50.739  0.00  0.00    -0.495 OA
ATOM     39  C   LIG    1       23.001   2.974  51.466  0.00  0.00    +0.277 C 
ENDBRANCH  33  38
ENDBRANCH  23  24
ENDBRANCH  22  23
ENDBRANCH   4  22
TORSDOF 7
ENDMDL
MODEL 7
REMARK VINA RESULT:      -2.0      2.607      5.393
REMARK  Name = 
REMARK                            x       y       z     vdW  Elec       q    Type
REMARK                         _______ _______ _______ _____ _____    ______ ____
ROOT
ATOM      1  C   LIG    1       18.250   2.669  52.270  0.00  0.00    +0.109 A 
ATOM      2  C   LIG    1       18.382   3.061  50.938  0.00  0.00    +0.029 A 
ATOM      3  C   LIG    1       19.623   3.480  50.467  0.00  0.00    +0.005 A 
ATOM      4  C   LIG    1       20.727   3.512  51.325  0.00  0.00    -0.046 A 
ATOM      5  C   LIG    1       20.575   3.099  52.662  0.00  0.00    +0.005 A 
ATOM      6  C   LIG    1       19.340   2.673  53.139  0.00  0.00    +0.029 A 
ENDROOT
BRANCH   1   7
ATOM      7  S   LIG    1       16.651   2.268  52.907  0.00  0.00    +0.076 S 
ATOM      8  O   LIG    1       15.661   2.569  51.897  0.00  0.00    -0.150 OA
ATOM      9  O   LIG    1       16.716   0.965  53.530  0.00  0.00    -0.150 OA
BRANCH   7  12
ATOM     10  O   LIG    1       16.687   5.368  55.080  0.00  0.00    -0.251 OA
ATOM     11  C   LIG    1       16.702   4.773  54.017  0.00  0.00    +0.319 C 
ATOM     12  N   LIG    1       16.545   3.405  54.089  0.00  0.00    -0.169 N 
ATOM     13  H   LIG    1       16.447   3.066  55.042  0.00  0.00    +0.178 HD
ATOM     14  N   LIG    1       16.847   5.327  52.786  0.00  0.00    -0.295 N 
ATOM     15  H   LIG    1       16.830   4.691  52.001  0.00  0.00    +0.151 HD
BRANCH  14  16
ATOM     16  C   LIG    1       17.012   6.738  52.451  0.00  0.00    +0.074 C 
ATOM     17  C   LIG    1       16.530   7.117  51.050  0.00  0.00    +0.022 C 
ATOM     18  C   LIG    1       17.524   6.801  49.939  0.00  0.00    +0.002 C 
ATOM     19  C   LIG    1       18.951   7.255  50.246  0.00  0.00    +0.000 C 
ATOM     20  C   LIG    1       19.443   6.999  51.669  0.00  0.00    +0.002 C 
ATOM     21  C   LIG    1       18.405   7.298  52.743  0.00  0.00    +0.022 C 
ENDBRANCH  14  16
ENDBRANCH   7  12
ENDBRANCH   1   7
BRANCH   4  22
ATOM     22  C   LIG    1       22.089   3.997  50.911  0.00  0.00    +0.054 C 
BRANCH  22  23
ATOM     23  C   LIG    1       23.201   4.111  51.972  0.00  0.00    +0.121 C 
BRANCH  23  24
ATOM     24  N   LIG    1       23.383   5.527  52.259  0.00  0.00    -0.237 N 
ATOM     25  C   LIG    1       24.202   6.285  51.444  0.00  0.00    +0.232 C 
ATOM     26  O   LIG    1       25.189   5.821  50.875  0.00  0.00    -0.274 OA
ATOM     27  C   LIG    1       23.666   7.695  51.161  0.00  0.00    +0.067 C 
ATOM     28  C   LIG    1       22.703   7.519  49.966  0.00  0.00    +0.025 C 
ATOM     29  C   LIG    1       24.837   8.602  50.741  0.00  0.00    +0.025 C 
ATOM     30  C   LIG    1       22.897   8.277  52.342  0.00  0.00    -0.021 A 
ATOM     31  C   LIG    1       22.413   9.595  52.324  0.00  0.00    +0.009 A 
ATOM     32  C   LIG    1       21.660  10.103  53.389  0.00  0.00    +0.046 A 
ATOM     33  C   LIG    1       21.387   9.312  54.501  0.00  0.00    +0.121 A 
ATOM     34  C   LIG    1       21.861   8.003  54.534  0.00  0.00    +0.059 A 
ATOM     35  C   LIG    1       22.589   7.483  53.456  0.00  0.00    +0.045 A 
ATOM     36  C   LIG    1       22.867   6.029  53.441  0.00  0.00    +0.253 C 
ATOM     37  O   LIG    1       22.572   5.329  54.403  0.00  0.00    -0.270 OA
BRANCH  33  38
ATOM     38  O   LIG    1       20.655   9.680  55.595  0.00  0.00    -0.495 OA
ATOM     39  C   LIG    1       19.240   9.641  55.462  0.00  0.00    +0.277 C 
ENDBRANCH  33  38
ENDBRANCH  23  24
ENDBRANCH  22  23
ENDBRANCH   4  22
TORSDOF 7
ENDMDL
MODEL 8
REMARK VINA RESULT:      -1.9      3.190      7.265
REMARK  Name = 
REMARK                            x       y       z     vdW  Elec       q    Type
REMARK                         _______ _______ _______ _____ _____    ______ ____
ROOT
ATOM      1  C   LIG    1       23.165   5.331  52.498  0.00  0.00    +0.109 A 
ATOM      2  C   LIG    1       22.701   4.785  53.696  0.00  0.00    +0.029 A 
ATOM      3  C   LIG    1       21.561   3.985  53.688  0.00  0.00    +0.005 A 
ATOM      4  C   LIG    1       20.885   3.736  52.489  0.00  0.00    -0.046 A 
ATOM      5  C   LIG    1       21.379   4.285  51.290  0.00  0.00    +0.005 A 
ATOM      6  C   LIG    1       22.519   5.079  51.288  0.00  0.00    +0.029 A 
ENDROOT
BRANCH   1   7
ATOM      7  S   LIG    1       24.528   6.455  52.523  0.00  0.00    +0.076 S 
ATOM      8  O   LIG    1       24.941   6.653  53.894  0.00  0.00    -0.150 OA
ATOM      9  O   LIG    1       25.473   6.057  51.503  0.00  0.00    -0.150 OA
BRANCH   7  12
ATOM     10  O   LIG    1       22.232   9.401  51.905  0.00  0.00    -0.251 OA
ATOM     11  C   LIG    1       22.678   8.477  52.561  0.00  0.00    +0.319 C 
ATOM     12  N   LIG    1       23.758   7.815  52.014  0.00  0.00    -0.169 N 
ATOM     13  H   LIG    1       24.036   8.188  51.111  0.00  0.00    +0.178 HD
ATOM     14  N   LIG    1       22.223   8.052  53.767  0.00  0.00    -0.295 N 
ATOM     15  H   LIG    1       22.713   7.272  54.184  0.00  0.00    +0.151 HD
BRANCH  14  16
ATOM     16  C   LIG    1       21.117   8.594  54.551  0.00  0.00    +0.074 C 
ATOM     17  C   LIG    1       21.214   8.326  56.053  0.00  0.00    +0.022 C 
ATOM     18  C   LIG    1       20.751   6.937  56.474  0.00  0.00    +0.002 C 
ATOM     19  C   LIG    1       19.414   6.525  55.858  0.00  0.00    +0.000 C 
ATOM     20  C   LIG    1       19.223   6.869  54.382  0.00  0.00    +0.002 C 
ATOM     21  C   LIG    1       19.730   8.255  54.003  0.00  0.00    +0.022 C 
ENDBRANCH  14  16
ENDBRANCH   7  12
ENDBRANCH   1   7
BRANCH   4  22
ATOM     22  C   LIG    1       19.622   2.926  52.400  0.00  0.00    +0.054 C 
BRANCH  22  23
ATOM     23  C   LIG    1       18.746   3.036  51.137  0.00  0.00    +0.121 C 
BRANCH  23  24
ATOM     24  N   LIG    1       17.637   3.926  51.453  0.00  0.00    -0.237 N 
ATOM     25  C   LIG    1       16.521   3.419  52.091  0.00  0.00    +0.232 C 
ATOM     26  O   LIG    1       16.126   2.265  51.926  0.00  0.00    -0.274 OA
ATOM     27  C   LIG    1       15.936   4.353  53.158  0.00  0.00    +0.067 C 
ATOM     28  C   LIG    1       16.754   4.054  54.435  0.00  0.00    +0.025 C 
ATOM     29  C   LIG    1       14.462   3.979  53.400  0.00  0.00    +0.025 C 
ATOM     30  C   LIG    1       16.092   5.826  52.797  0.00  0.00    -0.021 A 
ATOM     31  C   LIG    1       15.533   6.839  53.593  0.00  0.00    +0.009 A 
ATOM     32  C   LIG    1       15.728   8.191  53.284  0.00  0.00    +0.046 A 
ATOM     33  C   LIG    1       16.472   8.559  52.167  0.00  0.00    +0.121 A 
ATOM     34  C   LIG    1       17.033   7.566  51.368  0.00  0.00    +0.059 A 
ATOM     35  C   LIG    1       16.864   6.213  51.692  0.00  0.00    +0.045 A 
ATOM     36  C   LIG    1       17.665   5.214  50.950  0.00  0.00    +0.253 C 
ATOM     37  O   LIG    1       18.362   5.557  50.001  0.00  0.00    -0.270 OA
BRANCH  33  38
ATOM     38  O   LIG    1       16.750   9.836  51.766  0.00  0.00    -0.495 OA
ATOM     39  C   LIG    1       17.159  10.011  50.416  0.00  0.00    +0.277 C 
ENDBRANCH  33  38
ENDBRANCH  23  24
ENDBRANCH  22  23
ENDBRANCH   4  22
TORSDOF 7
ENDMDL
MODEL 9
REMARK VINA RESULT:      -1.8      3.045      7.051
REMARK  Name = 
REMARK                            x       y       z     vdW  Elec       q    Type
REMARK                         _______ _______ _______ _____ _____    ______ ____
ROOT
ATOM      1  C   LIG    1       20.282   3.054  52.248  0.00  0.00    +0.109 A 
ATOM      2  C   LIG    1       19.433   3.752  51.388  0.00  0.00    +0.029 A 
ATOM      3  C   LIG    1       18.065   3.492  51.416  0.00  0.00    +0.005 A 
ATOM      4  C   LIG    1       17.548   2.536  52.295  0.00  0.00    -0.046 A 
ATOM      5  C   LIG    1       18.421   1.853  53.164  0.00  0.00    +0.005 A 
ATOM      6  C   LIG    1       19.787   2.111  53.148  0.00  0.00    +0.029 A 
ENDROOT
BRANCH   1   7
ATOM      7  S   LIG    1       22.029   3.281  52.122  0.00  0.00    +0.076 S 
ATOM      8  O   LIG    1       22.682   2.024  52.415  0.00  0.00    -0.150 OA
ATOM      9  O   LIG    1       22.313   4.009  50.905  0.00  0.00    -0.150 OA
BRANCH   7  12
ATOM     10  O   LIG    1       22.350   6.168  54.549  0.00  0.00    -0.251 OA
ATOM     11  C   LIG    1       21.961   5.633  53.527  0.00  0.00    +0.319 C 
ATOM     12  N   LIG    1       22.258   4.292  53.397  0.00  0.00    -0.169 N 
ATOM     13  H   LIG    1       22.784   3.924  54.185  0.00  0.00    +0.178 HD
ATOM     14  N   LIG    1       21.263   6.224  52.523  0.00  0.00    -0.295 N 
ATOM     15  H   LIG    1       21.008   5.634  51.744  0.00  0.00    +0.151 HD
BRANCH  14  16
ATOM     16  C   LIG    1       20.819   7.612  52.436  0.00  0.00    +0.074 C 
ATOM     17  C   LIG    1       19.345   7.828  52.780  0.00  0.00    +0.022 C 
ATOM     18  C   LIG    1       18.382   7.513  51.643  0.00  0.00    +0.002 C 
ATOM     19  C   LIG    1       18.798   8.119  50.302  0.00  0.00    +0.000 C 
ATOM     20  C   LIG    1       20.284   8.026  49.959  0.00  0.00    +0.002 C 
ATOM     21  C   LIG    1       21.207   8.318  51.135  0.00  0.00    +0.022 C 
ENDBRANCH  14  16
ENDBRANCH   7  12
ENDBRANCH   1   7
BRANCH   4  22
ATOM     22  C   LIG    1       16.094   2.160  52.354  0.00  0.00    +0.054 C 
BRANCH  22  23
ATOM     23  C   LIG    1       15.384   2.113  53.722  0.00  0.00    +0.121 C 
BRANCH  23  24
ATOM     24  N   LIG    1       15.205   3.489  54.165  0.00  0.00    -0.237 N 
ATOM     25  C   LIG    1       15.775   3.898  55.356  0.00  0.00    +0.232 C 
ATOM     26  O   LIG    1       15.928   3.143  56.316  0.00  0.00    -0.274 OA
ATOM     27  C   LIG    1       16.369   5.312  55.308  0.00  0.00    +0.067 C 
ATOM     28  C   LIG    1       17.792   5.123  54.736  0.00  0.00    +0.025 C 
ATOM     29  C   LIG    1       16.467   5.863  56.742  0.00  0.00    +0.025 C 
ATOM     30  C   LIG    1       15.583   6.247  54.397  0.00  0.00    -0.021 A 
ATOM     31  C   LIG    1       15.903   7.611  54.293  0.00  0.00    +0.009 A 
ATOM     32  C   LIG    1       15.211   8.450  53.412  0.00  0.00    +0.046 A 
ATOM     33  C   LIG    1       14.177   7.950  52.626  0.00  0.00    +0.121 A 
ATOM     34  C   LIG    1       13.849   6.601  52.717  0.00  0.00    +0.059 A 
ATOM     35  C   LIG    1       14.559   5.752  53.577  0.00  0.00    +0.045 A 
ATOM     36  C   LIG    1       14.325   4.295  53.465  0.00  0.00    +0.253 C 
ATOM     37  O   LIG    1       13.448   3.860  52.727  0.00  0.00    -0.270 OA
BRANCH  33  38
ATOM     38  O   LIG    1       13.438   8.657  51.719  0.00  0.00    -0.495 OA
ATOM     39  C   LIG    1       13.627   8.336  50.347  0.00  0.00    +0.277 C 
ENDBRANCH  33  38
ENDBRANCH  23  24
ENDBRANCH  22  23
ENDBRANCH   4  22
TORSDOF 7
ENDMDL
