MODEL 1
REMARK VINA RESULT:       1.5      0.000      0.000
REMARK  Name = 
REMARK                            x       y       z     vdW  Elec       q    Type
REMARK                         _______ _______ _______ _____ _____    ______ ____
ROOT
ATOM      1  C   LIG    1       29.239  -1.478  22.341  0.00  0.00    +0.109 A 
ATOM      2  C   LIG    1       29.781  -1.974  21.154  0.00  0.00    +0.029 A 
ATOM      3  C   LIG    1       29.123  -1.739  19.950  0.00  0.00    +0.005 A 
ATOM      4  C   LIG    1       27.927  -1.015  19.931  0.00  0.00    -0.046 A 
ATOM      5  C   LIG    1       27.405  -0.512  21.139  0.00  0.00    +0.005 A 
ATOM      6  C   LIG    1       28.058  -0.737  22.344  0.00  0.00    +0.029 A 
ENDROOT
BRANCH   1   7
ATOM      7  S   LIG    1       29.996  -1.890  23.884  0.00  0.00    +0.076 S 
ATOM      8  O   LIG    1       29.351  -1.131  24.932  0.00  0.00    -0.150 OA
ATOM      9  O   LIG    1       30.122  -3.328  23.966  0.00  0.00    -0.150 OA
BRANCH   7  12
ATOM     10  O   LIG    1       33.047   0.092  22.838  0.00  0.00    -0.251 OA
ATOM     11  C   LIG    1       31.851  -0.079  22.996  0.00  0.00    +0.319 C 
ATOM     12  N   LIG    1       31.488  -1.251  23.625  0.00  0.00    -0.169 N 
ATOM     13  H   LIG    1       32.283  -1.834  23.869  0.00  0.00    +0.178 HD
ATOM     14  N   LIG    1       30.859   0.770  22.623  0.00  0.00    -0.295 N 
ATOM     15  H   LIG    1       29.915   0.480  22.835  0.00  0.00    +0.151 HD
BRANCH  14  16
ATOM     16  C   LIG    1       30.988   2.065  21.962  0.00  0.00    +0.074 C 
ATOM     17  C   LIG    1       29.702   2.892  21.933  0.00  0.00    +0.022 C 
ATOM     18  C   LIG    1       28.727   2.496  20.832  0.00  0.00    +0.002 C 
ATOM     19  C   LIG    1       29.385   2.329  19.461  0.00  0.00    +0.000 C 
ATOM     20  C   LIG    1       30.730   1.604  19.450  0.00  0.00    +0.002 C 
ATOM     21  C   LIG    1       31.658   2.009  20.588  0.00  0.00    +0.022 C 
ENDBRANCH  14  16
ENDBRANCH   7  12
ENDBRANCH   1   7
BRANCH   4  22
ATOM     22  C   LIG    1       27.129  -0.760  18.683  0.00  0.00    +0.054 C 
BRANCH  22  23
ATOM     23  C   LIG    1       27.664   0.242  17.641  0.00  0.00    +0.121 C 
BRANCH  23  24
ATOM     24  N   LIG    1       26.566   1.130  17.286  0.00  0.00    -0.237 N 
ATOM     25  C   LIG    1       25.880   1.793  18.286  0.00  0.00    +0.232 C 
ATOM     26  O   LIG    1       25.718   1.320  19.410  0.00  0.00    -0.274 OA
ATOM     27  C   LIG    1       25.508   3.239  17.931  0.00  0.00    +0.067 C 
ATOM     28  C   LIG    1       26.761   4.068  18.292  0.00  0.00    +0.025 C 
ATOM     29  C   LIG    1       24.331   3.686  18.817  0.00  0.00    +0.025 C 
ATOM     30  C   LIG    1       25.200   3.418  16.449  0.00  0.00    -0.021 A 
ATOM     31  C   LIG    1       24.740   4.643  15.938  0.00  0.00    +0.009 A 
ATOM     32  C   LIG    1       24.512   4.814  14.568  0.00  0.00    +0.046 A 
ATOM     33  C   LIG    1       24.723   3.763  13.680  0.00  0.00    +0.121 A 
ATOM     34  C   LIG    1       25.179   2.543  14.172  0.00  0.00    +0.059 A 
ATOM     35  C   LIG    1       25.436   2.377  15.539  0.00  0.00    +0.045 A 
ATOM     36  C   LIG    1       26.132   1.146  15.973  0.00  0.00    +0.253 C 
ATOM     37  O   LIG    1       26.364   0.247  15.171  0.00  0.00    -0.270 OA
BRANCH  33  38
ATOM     38  O   LIG    1       24.555   3.804  12.325  0.00  0.00    -0.495 OA
ATOM     39  C   LIG    1       23.349   3.255  11.810  0.00  0.00    +0.277 C 
ENDBRANCH  33  38
ENDBRANCH  23  24
ENDBRANCH  22  23
ENDBRANCH   4  22
TORSDOF 7
ENDMDL
MODEL 2
REMARK VINA RESULT:       1.8      2.199      7.749
REMARK  Name = 
REMARK                            x       y       z     vdW  Elec       q    Type
REMARK                         _______ _______ _______ _____ _____    ______ ____
ROOT
ATOM      1  C   LIG    1       26.899  -0.204  18.701  0.00  0.00    +0.109 A 
ATOM      2  C   LIG    1       26.088  -0.002  19.818  0.00  0.00    +0.029 A 
ATOM      3  C   LIG    1       26.435  -0.588  21.032  0.00  0.00    +0.005 A 
ATOM      4  C   LIG    1       27.586  -1.378  21.129  0.00  0.00    -0.046 A 
ATOM      5  C   LIG    1       28.397  -1.558  19.992  0.00  0.00    +0.005 A 
ATOM      6  C   LIG    1       28.061  -0.971  18.778  0.00  0.00    +0.029 A 
ENDROOT
BRANCH   1   7
ATOM      7  S   LIG    1       26.391   0.423  17.129  0.00  0.00    +0.076 S 
ATOM      8  O   LIG    1       27.553   0.937  16.438  0.00  0.00    -0.150 OA
ATOM      9  O   LIG    1       25.514  -0.544  16.508  0.00  0.00    -0.150 OA
BRANCH   7  12
ATOM     10  O   LIG    1       24.565   3.700  17.638  0.00  0.00    -0.251 OA
ATOM     11  C   LIG    1       25.158   2.866  16.978  0.00  0.00    +0.319 C 
ATOM     12  N   LIG    1       25.484   1.698  17.634  0.00  0.00    -0.169 N 
ATOM     13  H   LIG    1       25.190   1.693  18.606  0.00  0.00    +0.178 HD
ATOM     14  N   LIG    1       25.513   2.976  15.672  0.00  0.00    -0.295 N 
ATOM     15  H   LIG    1       25.996   2.185  15.269  0.00  0.00    +0.151 HD
BRANCH  14  16
ATOM     16  C   LIG    1       25.269   4.094  14.767  0.00  0.00    +0.074 C 
ATOM     17  C   LIG    1       23.796   4.477  14.615  0.00  0.00    +0.022 C 
ATOM     18  C   LIG    1       23.017   3.600  13.643  0.00  0.00    +0.002 C 
ATOM     19  C   LIG    1       23.736   3.372  12.312  0.00  0.00    +0.000 C 
ATOM     20  C   LIG    1       25.236   3.095  12.402  0.00  0.00    +0.002 C 
ATOM     21  C   LIG    1       25.966   3.973  13.410  0.00  0.00    +0.022 C 
ENDBRANCH  14  16
ENDBRANCH   7  12
ENDBRANCH   1   7
BRANCH   4  22
ATOM     22  C   LIG    1       28.005  -2.087  22.386  0.00  0.00    +0.054 C 
BRANCH  22  23
ATOM     23  C   LIG    1       28.519  -1.258  23.580  0.00  0.00    +0.121 C 
BRANCH  23  24
ATOM     24  N   LIG    1       29.364  -0.200  23.043  0.00  0.00    -0.237 N 
ATOM     25  C   LIG    1       30.719  -0.210  23.315  0.00  0.00    +0.232 C 
ATOM     26  O   LIG    1       31.185  -0.656  24.363  0.00  0.00    -0.274 OA
ATOM     27  C   LIG    1       31.595   0.204  22.125  0.00  0.00    +0.067 C 
ATOM     28  C   LIG    1       31.788  -1.092  21.307  0.00  0.00    +0.025 C 
ATOM     29  C   LIG    1       32.961   0.682  22.650  0.00  0.00    +0.025 C 
ATOM     30  C   LIG    1       30.930   1.256  21.246  0.00  0.00    -0.021 A 
ATOM     31  C   LIG    1       31.606   1.843  20.164  0.00  0.00    +0.009 A 
ATOM     32  C   LIG    1       30.969   2.767  19.328  0.00  0.00    +0.046 A 
ATOM     33  C   LIG    1       29.648   3.137  19.563  0.00  0.00    +0.121 A 
ATOM     34  C   LIG    1       28.964   2.565  20.632  0.00  0.00    +0.059 A 
ATOM     35  C   LIG    1       29.590   1.617  21.452  0.00  0.00    +0.045 A 
ATOM     36  C   LIG    1       28.754   0.875  22.422  0.00  0.00    +0.253 C 
ATOM     37  O   LIG    1       27.575   1.172  22.582  0.00  0.00    -0.270 OA
BRANCH  33  38
ATOM     38  O   LIG    1       28.909   4.012  18.817  0.00  0.00    -0.495 OA
ATOM     39  C   LIG    1       27.595   4.300  19.278  0.00  0.00    +0.277 C 
ENDBRANCH  33  38
ENDBRANCH  23  24
ENDBRANCH  22  23
ENDBRANCH   4  22
TORSDOF 7
ENDMDL
MODEL 3
REMARK VINA RESULT:       2.0      2.643      8.757
REMARK  Name = 
REMARK                            x       y       z     vdW  Elec       q    Type
REMARK                         _______ _______ _______ _____ _____    ______ ____
ROOT
ATOM      1  C   LIG    1       26.022   2.158  18.472  0.00  0.00    +0.109 A 
ATOM      2  C   LIG    1       26.620   1.004  17.964  0.00  0.00    +0.029 A 
ATOM      3  C   LIG    1       26.797  -0.099  18.795  0.00  0.00    +0.005 A 
ATOM      4  C   LIG    1       26.384  -0.047  20.130  0.00  0.00    -0.046 A 
ATOM      5  C   LIG    1       25.770   1.123  20.618  0.00  0.00    +0.005 A 
ATOM      6  C   LIG    1       25.583   2.225  19.793  0.00  0.00    +0.029 A 
ENDROOT
BRANCH   1   7
ATOM      7  S   LIG    1       25.919   3.604  17.461  0.00  0.00    +0.076 S 
ATOM      8  O   LIG    1       25.899   4.768  18.319  0.00  0.00    -0.150 OA
ATOM      9  O   LIG    1       26.874   3.481  16.383  0.00  0.00    -0.150 OA
BRANCH   7  12
ATOM     10  O   LIG    1       22.703   3.569  15.464  0.00  0.00    -0.251 OA
ATOM     11  C   LIG    1       23.900   3.741  15.614  0.00  0.00    +0.319 C 
ATOM     12  N   LIG    1       24.410   3.389  16.846  0.00  0.00    -0.169 N 
ATOM     13  H   LIG    1       23.702   3.036  17.483  0.00  0.00    +0.178 HD
ATOM     14  N   LIG    1       24.765   4.230  14.689  0.00  0.00    -0.295 N 
ATOM     15  H   LIG    1       25.732   4.303  14.972  0.00  0.00    +0.151 HD
BRANCH  14  16
ATOM     16  C   LIG    1       24.473   4.653  13.323  0.00  0.00    +0.074 C 
ATOM     17  C   LIG    1       23.749   3.605  12.476  0.00  0.00    +0.022 C 
ATOM     18  C   LIG    1       24.662   2.538  11.885  0.00  0.00    +0.002 C 
ATOM     19  C   LIG    1       25.920   3.104  11.225  0.00  0.00    +0.000 C 
ATOM     20  C   LIG    1       26.620   4.232  11.981  0.00  0.00    +0.002 C 
ATOM     21  C   LIG    1       25.666   5.257  12.580  0.00  0.00    +0.022 C 
ENDBRANCH  14  16
ENDBRANCH   7  12
ENDBRANCH   1   7
BRANCH   4  22
ATOM     22  C   LIG    1       26.583  -1.173  21.107  0.00  0.00    +0.054 C 
BRANCH  22  23
ATOM     23  C   LIG    1       26.749  -0.848  22.604  0.00  0.00    +0.121 C 
BRANCH  23  24
ATOM     24  N   LIG    1       28.118  -0.391  22.801  0.00  0.00    -0.237 N 
ATOM     25  C   LIG    1       28.900  -0.989  23.770  0.00  0.00    +0.232 C 
ATOM     26  O   LIG    1       28.435  -1.446  24.814  0.00  0.00    -0.274 OA
ATOM     27  C   LIG    1       30.360  -1.202  23.348  0.00  0.00    +0.067 C 
ATOM     28  C   LIG    1       30.356  -2.542  22.578  0.00  0.00    +0.025 C 
ATOM     29  C   LIG    1       31.232  -1.344  24.608  0.00  0.00    +0.025 C 
ATOM     30  C   LIG    1       30.871  -0.099  22.428  0.00  0.00    -0.021 A 
ATOM     31  C   LIG    1       32.211  -0.054  22.011  0.00  0.00    +0.009 A 
ATOM     32  C   LIG    1       32.658   0.932  21.123  0.00  0.00    +0.046 A 
ATOM     33  C   LIG    1       31.782   1.901  20.644  0.00  0.00    +0.121 A 
ATOM     34  C   LIG    1       30.450   1.869  21.049  0.00  0.00    +0.059 A 
ATOM     35  C   LIG    1       29.993   0.867  21.915  0.00  0.00    +0.045 A 
ATOM     36  C   LIG    1       28.534   0.743  22.128  0.00  0.00    +0.253 C 
ATOM     37  O   LIG    1       27.764   1.572  21.655  0.00  0.00    -0.270 OA
BRANCH  33  38
ATOM     38  O   LIG    1       32.086   2.902  19.765  0.00  0.00    -0.495 OA
ATOM     39  C   LIG    1       31.088   3.248  18.814  0.00  0.00    +0.277 C 
ENDBRANCH  33  38
ENDBRANCH  23  24
ENDBRANCH  22  23
ENDBRANCH   4  22
TORSDOF 7
ENDMDL
MODEL 4
REMARK VINA RESULT:       2.2      2.205      7.366
REMARK  Name = 
REMARK                            x       y       z     vdW  Elec       q    Type
REMARK                         _______ _______ _______ _____ _____    ______ ____
ROOT
ATOM      1  C   LIG    1       27.061  -0.517  18.459  0.00  0.00    +0.109 A 
ATOM      2  C   LIG    1       26.383  -0.747  19.657  0.00  0.00    +0.029 A 
ATOM      3  C   LIG    1       27.058  -1.333  20.724  0.00  0.00    +0.005 A 
ATOM      4  C   LIG    1       28.403  -1.693  20.594  0.00  0.00    -0.046 A 
ATOM      5  C   LIG    1       29.071  -1.440  19.380  0.00  0.00    +0.005 A 
ATOM      6  C   LIG    1       28.407  -0.849  18.312  0.00  0.00    +0.029 A 
ENDROOT
BRANCH   1   7
ATOM      7  S   LIG    1       26.175   0.099  17.060  0.00  0.00    +0.076 S 
ATOM      8  O   LIG    1       27.123   0.436  16.022  0.00  0.00    -0.150 OA
ATOM      9  O   LIG    1       25.057  -0.780  16.799  0.00  0.00    -0.150 OA
BRANCH   7  12
ATOM     10  O   LIG    1       25.044   3.623  17.858  0.00  0.00    -0.251 OA
ATOM     11  C   LIG    1       25.364   2.716  17.109  0.00  0.00    +0.319 C 
ATOM     12  N   LIG    1       25.597   1.495  17.707  0.00  0.00    -0.169 N 
ATOM     13  H   LIG    1       25.480   1.518  18.715  0.00  0.00    +0.178 HD
ATOM     14  N   LIG    1       25.499   2.795  15.761  0.00  0.00    -0.295 N 
ATOM     15  H   LIG    1       25.765   1.944  15.285  0.00  0.00    +0.151 HD
BRANCH  14  16
ATOM     16  C   LIG    1       25.294   3.959  14.904  0.00  0.00    +0.074 C 
ATOM     17  C   LIG    1       23.838   4.414  14.792  0.00  0.00    +0.022 C 
ATOM     18  C   LIG    1       23.006   3.613  13.799  0.00  0.00    +0.002 C 
ATOM     19  C   LIG    1       23.694   3.406  12.449  0.00  0.00    +0.000 C 
ATOM     20  C   LIG    1       25.180   3.057  12.503  0.00  0.00    +0.002 C 
ATOM     21  C   LIG    1       25.964   3.860  13.533  0.00  0.00    +0.022 C 
ENDBRANCH  14  16
ENDBRANCH   7  12
ENDBRANCH   1   7
BRANCH   4  22
ATOM     22  C   LIG    1       29.191  -2.374  21.678  0.00  0.00    +0.054 C 
BRANCH  22  23
ATOM     23  C   LIG    1       30.146  -1.538  22.552  0.00  0.00    +0.121 C 
BRANCH  23  24
ATOM     24  N   LIG    1       29.861  -0.134  22.286  0.00  0.00    -0.237 N 
ATOM     25  C   LIG    1       30.898   0.719  21.962  0.00  0.00    +0.232 C 
ATOM     26  O   LIG    1       32.039   0.578  22.400  0.00  0.00    -0.274 OA
ATOM     27  C   LIG    1       30.548   1.736  20.867  0.00  0.00    +0.067 C 
ATOM     28  C   LIG    1       30.799   0.988  19.539  0.00  0.00    +0.025 C 
ATOM     29  C   LIG    1       31.513   2.932  20.966  0.00  0.00    +0.025 C 
ATOM     30  C   LIG    1       29.091   2.180  20.924  0.00  0.00    -0.021 A 
ATOM     31  C   LIG    1       28.595   3.182  20.074  0.00  0.00    +0.009 A 
ATOM     32  C   LIG    1       27.244   3.544  20.095  0.00  0.00    +0.046 A 
ATOM     33  C   LIG    1       26.361   2.925  20.975  0.00  0.00    +0.121 A 
ATOM     34  C   LIG    1       26.837   1.930  21.824  0.00  0.00    +0.059 A 
ATOM     35  C   LIG    1       28.184   1.545  21.784  0.00  0.00    +0.045 A 
ATOM     36  C   LIG    1       28.584   0.335  22.536  0.00  0.00    +0.253 C 
ATOM     37  O   LIG    1       27.782  -0.237  23.267  0.00  0.00    -0.270 OA
BRANCH  33  38
ATOM     38  O   LIG    1       25.021   3.174  21.083  0.00  0.00    -0.495 OA
ATOM     39  C   LIG    1       24.622   4.537  21.126  0.00  0.00    +0.277 C 
ENDBRANCH  33  38
ENDBRANCH  23  24
ENDBRANCH  22  23
ENDBRANCH   4  22
TORSDOF 7
ENDMDL
MODEL 5
REMARK VINA RESULT:       3.4      2.074      7.458
REMARK  Name = 
REMARK                            x       y       z     vdW  Elec       q    Type
REMARK                         _______ _______ _______ _____ _____    ______ ____
ROOT
ATOM      1  C   LIG    1       27.976   2.841  19.797  0.00  0.00    +0.109 A 
ATOM      2  C   LIG    1       28.263   3.083  21.142  0.00  0.00    +0.029 A 
ATOM      3  C   LIG    1       29.467   2.633  21.677  0.00  0.00    +0.005 A 
ATOM      4  C   LIG    1       30.379   1.940  20.875  0.00  0.00    -0.046 A 
ATOM      5  C   LIG    1       30.075   1.718  19.518  0.00  0.00    +0.005 A 
ATOM      6  C   LIG    1       28.879   2.169  18.973  0.00  0.00    +0.029 A 
ENDROOT
BRANCH   1   7
ATOM      7  S   LIG    1       26.395   3.288  19.149  0.00  0.00    +0.076 S 
ATOM      8  O   LIG    1       25.371   2.633  19.931  0.00  0.00    -0.150 OA
ATOM      9  O   LIG    1       26.374   4.717  18.930  0.00  0.00    -0.150 OA
BRANCH   7  12
ATOM     10  O   LIG    1       26.062   2.086  15.574  0.00  0.00    -0.251 OA
ATOM     11  C   LIG    1       25.930   2.893  16.477  0.00  0.00    +0.319 C 
ATOM     12  N   LIG    1       26.488   2.540  17.688  0.00  0.00    -0.169 N 
ATOM     13  H   LIG    1       26.935   1.628  17.668  0.00  0.00    +0.178 HD
ATOM     14  N   LIG    1       25.302   4.095  16.398  0.00  0.00    -0.295 N 
ATOM     15  H   LIG    1       25.287   4.651  17.241  0.00  0.00    +0.151 HD
BRANCH  14  16
ATOM     16  C   LIG    1       24.654   4.694  15.236  0.00  0.00    +0.074 C 
ATOM     17  C   LIG    1       23.478   3.888  14.681  0.00  0.00    +0.022 C 
ATOM     18  C   LIG    1       23.883   2.728  13.780  0.00  0.00    +0.002 C 
ATOM     19  C   LIG    1       24.926   3.104  12.727  0.00  0.00    +0.000 C 
ATOM     20  C   LIG    1       26.065   4.002  13.206  0.00  0.00    +0.002 C 
ATOM     21  C   LIG    1       25.617   5.128  14.129  0.00  0.00    +0.022 C 
ENDBRANCH  14  16
ENDBRANCH   7  12
ENDBRANCH   1   7
BRANCH   4  22
ATOM     22  C   LIG    1       31.676   1.378  21.386  0.00  0.00    +0.054 C 
BRANCH  22  23
ATOM     23  C   LIG    1       31.648   0.152  22.320  0.00  0.00    +0.121 C 
BRANCH  23  24
ATOM     24  N   LIG    1       30.355  -0.497  22.147  0.00  0.00    -0.237 N 
ATOM     25  C   LIG    1       29.532  -0.673  23.243  0.00  0.00    +0.232 C 
ATOM     26  O   LIG    1       29.966  -0.854  24.380  0.00  0.00    -0.274 OA
ATOM     27  C   LIG    1       28.045  -0.433  22.950  0.00  0.00    +0.067 C 
ATOM     28  C   LIG    1       27.855   1.093  23.100  0.00  0.00    +0.025 C 
ATOM     29  C   LIG    1       27.201  -1.157  24.014  0.00  0.00    +0.025 C 
ATOM     30  C   LIG    1       27.652  -0.850  21.538  0.00  0.00    -0.021 A 
ATOM     31  C   LIG    1       26.317  -0.807  21.105  0.00  0.00    +0.009 A 
ATOM     32  C   LIG    1       25.972  -1.140  19.789  0.00  0.00    +0.046 A 
ATOM     33  C   LIG    1       26.950  -1.536  18.882  0.00  0.00    +0.121 A 
ATOM     34  C   LIG    1       28.279  -1.583  19.296  0.00  0.00    +0.059 A 
ATOM     35  C   LIG    1       28.630  -1.223  20.604  0.00  0.00    +0.045 A 
ATOM     36  C   LIG    1       30.067  -1.070  20.922  0.00  0.00    +0.253 C 
ATOM     37  O   LIG    1       30.922  -1.369  20.095  0.00  0.00    -0.270 OA
BRANCH  33  38
ATOM     38  O   LIG    1       26.750  -1.869  17.572  0.00  0.00    -0.495 OA
ATOM     39  C   LIG    1       26.799  -0.809  16.625  0.00  0.00    +0.277 C 
ENDBRANCH  33  38
ENDBRANCH  23  24
ENDBRANCH  22  23
ENDBRANCH   4  22
TORSDOF 7
ENDMDL
MODEL 6
REMARK VINA RESULT:       3.4      1.452      2.417
REMARK  Name = 
REMARK                            x       y       z     vdW  Elec       q    Type
REMARK                         _______ _______ _______ _____ _____    ______ ____
ROOT
ATOM      1  C   LIG    1       29.264  -1.759  21.730  0.00  0.00    +0.109 A 
ATOM      2  C   LIG    1       28.826  -1.771  20.405  0.00  0.00    +0.029 A 
ATOM      3  C   LIG    1       27.713  -1.016  20.045  0.00  0.00    +0.005 A 
ATOM      4  C   LIG    1       27.037  -0.255  21.005  0.00  0.00    -0.046 A 
ATOM      5  C   LIG    1       27.505  -0.247  22.333  0.00  0.00    +0.005 A 
ATOM      6  C   LIG    1       28.619  -0.993  22.700  0.00  0.00    +0.029 A 
ENDROOT
BRANCH   1   7
ATOM      7  S   LIG    1       30.589  -2.819  22.220  0.00  0.00    +0.076 S 
ATOM      8  O   LIG    1       30.034  -3.978  22.883  0.00  0.00    -0.150 OA
ATOM      9  O   LIG    1       31.505  -2.957  21.109  0.00  0.00    -0.150 OA
BRANCH   7  12
ATOM     10  O   LIG    1       32.290  -0.106  24.239  0.00  0.00    -0.251 OA
ATOM     11  C   LIG    1       31.681  -0.539  23.277  0.00  0.00    +0.319 C 
ATOM     12  N   LIG    1       31.291  -1.859  23.355  0.00  0.00    -0.169 N 
ATOM     13  H   LIG    1       31.580  -2.309  24.218  0.00  0.00    +0.178 HD
ATOM     14  N   LIG    1       31.346   0.153  22.157  0.00  0.00    -0.295 N 
ATOM     15  H   LIG    1       30.831  -0.355  21.452  0.00  0.00    +0.151 HD
BRANCH  14  16
ATOM     16  C   LIG    1       31.629   1.551  21.849  0.00  0.00    +0.074 C 
ATOM     17  C   LIG    1       30.464   2.506  22.113  0.00  0.00    +0.022 C 
ATOM     18  C   LIG    1       29.416   2.537  21.007  0.00  0.00    +0.002 C 
ATOM     19  C   LIG    1       30.010   2.661  19.603  0.00  0.00    +0.000 C 
ATOM     20  C   LIG    1       31.245   1.807  19.323  0.00  0.00    +0.002 C 
ATOM     21  C   LIG    1       32.249   1.781  20.469  0.00  0.00    +0.022 C 
ENDBRANCH  14  16
ENDBRANCH   7  12
ENDBRANCH   1   7
BRANCH   4  22
ATOM     22  C   LIG    1       25.801   0.547  20.711  0.00  0.00    +0.054 C 
BRANCH  22  23
ATOM     23  C   LIG    1       25.935   2.055  20.420  0.00  0.00    +0.121 C 
BRANCH  23  24
ATOM     24  N   LIG    1       26.188   2.202  18.994  0.00  0.00    -0.237 N 
ATOM     25  C   LIG    1       27.099   1.366  18.377  0.00  0.00    +0.232 C 
ATOM     26  O   LIG    1       28.087   0.915  18.954  0.00  0.00    -0.274 OA
ATOM     27  C   LIG    1       26.670   0.901  16.979  0.00  0.00    +0.067 C 
ATOM     28  C   LIG    1       25.769  -0.329  17.231  0.00  0.00    +0.025 C 
ATOM     29  C   LIG    1       27.917   0.464  16.190  0.00  0.00    +0.025 C 
ATOM     30  C   LIG    1       25.870   1.960  16.228  0.00  0.00    -0.021 A 
ATOM     31  C   LIG    1       25.471   1.771  14.896  0.00  0.00    +0.009 A 
ATOM     32  C   LIG    1       24.690   2.725  14.233  0.00  0.00    +0.046 A 
ATOM     33  C   LIG    1       24.304   3.895  14.881  0.00  0.00    +0.121 A 
ATOM     34  C   LIG    1       24.692   4.097  16.202  0.00  0.00    +0.059 A 
ATOM     35  C   LIG    1       25.448   3.130  16.878  0.00  0.00    +0.045 A 
ATOM     36  C   LIG    1       25.635   3.287  18.337  0.00  0.00    +0.253 C 
ATOM     37  O   LIG    1       25.242   4.297  18.910  0.00  0.00    -0.270 OA
BRANCH  33  38
ATOM     38  O   LIG    1       23.532   4.893  14.355  0.00  0.00    -0.495 OA
ATOM     39  C   LIG    1       23.171   4.771  12.985  0.00  0.00    +0.277 C 
ENDBRANCH  33  38
ENDBRANCH  23  24
ENDBRANCH  22  23
ENDBRANCH   4  22
TORSDOF 7
ENDMDL
MODEL 7
REMARK VINA RESULT:       3.5      2.800      7.873
REMARK  Name = 
REMARK                            x       y       z     vdW  Elec       q    Type
REMARK                         _______ _______ _______ _____ _____    ______ ____
ROOT
ATOM      1  C   LIG    1       26.213   0.944  16.970  0.00  0.00    +0.109 A 
ATOM      2  C   LIG    1       26.860  -0.269  16.733  0.00  0.00    +0.029 A 
ATOM      3  C   LIG    1       27.107  -1.134  17.796  0.00  0.00    +0.005 A 
ATOM      4  C   LIG    1       26.714  -0.786  19.092  0.00  0.00    -0.046 A 
ATOM      5  C   LIG    1       26.050   0.438  19.307  0.00  0.00    +0.005 A 
ATOM      6  C   LIG    1       25.794   1.303  18.251  0.00  0.00    +0.029 A 
ENDROOT
BRANCH   1   7
ATOM      7  S   LIG    1       26.020   2.103  15.651  0.00  0.00    +0.076 S 
ATOM      8  O   LIG    1       27.096   3.067  15.719  0.00  0.00    -0.150 OA
ATOM      9  O   LIG    1       25.741   1.374  14.434  0.00  0.00    -0.150 OA
BRANCH   7  12
ATOM     10  O   LIG    1       23.248   3.971  17.428  0.00  0.00    -0.251 OA
ATOM     11  C   LIG    1       24.409   3.659  17.229  0.00  0.00    +0.319 C 
ATOM     12  N   LIG    1       24.635   2.838  16.145  0.00  0.00    -0.169 N 
ATOM     13  H   LIG    1       23.783   2.588  15.651  0.00  0.00    +0.178 HD
ATOM     14  N   LIG    1       25.484   4.048  17.962  0.00  0.00    -0.295 N 
ATOM     15  H   LIG    1       26.384   3.704  17.657  0.00  0.00    +0.151 HD
BRANCH  14  16
ATOM     16  C   LIG    1       25.504   4.918  19.133  0.00  0.00    +0.074 C 
ATOM     17  C   LIG    1       26.881   5.078  19.780  0.00  0.00    +0.022 C 
ATOM     18  C   LIG    1       27.278   3.931  20.701  0.00  0.00    +0.002 C 
ATOM     19  C   LIG    1       26.178   3.524  21.682  0.00  0.00    +0.000 C 
ATOM     20  C   LIG    1       24.763   3.457  21.110  0.00  0.00    +0.002 C 
ATOM     21  C   LIG    1       24.423   4.606  20.170  0.00  0.00    +0.022 C 
ENDBRANCH  14  16
ENDBRANCH   7  12
ENDBRANCH   1   7
BRANCH   4  22
ATOM     22  C   LIG    1       26.986  -1.637  20.300  0.00  0.00    +0.054 C 
BRANCH  22  23
ATOM     23  C   LIG    1       26.762  -1.042  21.705  0.00  0.00    +0.121 C 
BRANCH  23  24
ATOM     24  N   LIG    1       28.032  -0.486  22.149  0.00  0.00    -0.237 N 
ATOM     25  C   LIG    1       28.636  -0.993  23.283  0.00  0.00    +0.232 C 
ATOM     26  O   LIG    1       27.998  -1.444  24.233  0.00  0.00    -0.274 OA
ATOM     27  C   LIG    1       30.162  -1.120  23.172  0.00  0.00    +0.067 C 
ATOM     28  C   LIG    1       30.395  -2.484  22.483  0.00  0.00    +0.025 C 
ATOM     29  C   LIG    1       30.767  -1.156  24.587  0.00  0.00    +0.025 C 
ATOM     30  C   LIG    1       30.781  -0.018  22.321  0.00  0.00    -0.021 A 
ATOM     31  C   LIG    1       32.172   0.105  22.178  0.00  0.00    +0.009 A 
ATOM     32  C   LIG    1       32.730   1.087  21.351  0.00  0.00    +0.046 A 
ATOM     33  C   LIG    1       31.912   1.976  20.660  0.00  0.00    +0.121 A 
ATOM     34  C   LIG    1       30.530   1.867  20.791  0.00  0.00    +0.059 A 
ATOM     35  C   LIG    1       29.968   0.867  21.595  0.00  0.00    +0.045 A 
ATOM     36  C   LIG    1       28.507   0.650  21.518  0.00  0.00    +0.253 C 
ATOM     37  O   LIG    1       27.800   1.407  20.861  0.00  0.00    -0.270 OA
BRANCH  33  38
ATOM     38  O   LIG    1       32.328   2.964  19.812  0.00  0.00    -0.495 OA
ATOM     39  C   LIG    1       31.389   3.418  18.845  0.00  0.00    +0.277 C 
ENDBRANCH  33  38
ENDBRANCH  23  24
ENDBRANCH  22  23
ENDBRANCH   4  22
TORSDOF 7
ENDMDL
MODEL 8
REMARK VINA RESULT:       4.2      4.113     11.025
REMARK  Name = 
REMARK                            x       y       z     vdW  Elec       q    Type
REMARK                         _______ _______ _______ _____ _____    ______ ____
ROOT
ATOM      1  C   LIG    1       23.702   3.920  14.828  0.00  0.00    +0.109 A 
ATOM      2  C   LIG    1       23.474   3.661  16.180  0.00  0.00    +0.029 A 
ATOM      3  C   LIG    1       24.549   3.344  17.007  0.00  0.00    +0.005 A 
ATOM      4  C   LIG    1       25.845   3.282  16.484  0.00  0.00    -0.046 A 
ATOM      5  C   LIG    1       26.053   3.561  15.120  0.00  0.00    +0.005 A 
ATOM      6  C   LIG    1       24.987   3.884  14.289  0.00  0.00    +0.029 A 
ENDROOT
BRANCH   1   7
ATOM      7  S   LIG    1       22.329   4.187  13.748  0.00  0.00    +0.076 S 
ATOM      8  O   LIG    1       21.564   2.964  13.661  0.00  0.00    -0.150 OA
ATOM      9  O   LIG    1       21.702   5.442  14.101  0.00  0.00    -0.150 OA
BRANCH   7  12
ATOM     10  O   LIG    1       23.596   5.124  10.306  0.00  0.00    -0.251 OA
ATOM     11  C   LIG    1       22.903   5.270  11.297  0.00  0.00    +0.319 C 
ATOM     12  N   LIG    1       23.141   4.392  12.334  0.00  0.00    -0.169 N 
ATOM     13  H   LIG    1       23.870   3.718  12.123  0.00  0.00    +0.178 HD
ATOM     14  N   LIG    1       21.940   6.211  11.476  0.00  0.00    -0.295 N 
ATOM     15  H   LIG    1       21.460   6.201  12.365  0.00  0.00    +0.151 HD
BRANCH  14  16
ATOM     16  C   LIG    1       21.519   7.252  10.543  0.00  0.00    +0.074 C 
ATOM     17  C   LIG    1       22.211   8.601  10.744  0.00  0.00    +0.022 C 
ATOM     18  C   LIG    1       21.619   9.449  11.862  0.00  0.00    +0.002 C 
ATOM     19  C   LIG    1       20.093   9.538  11.822  0.00  0.00    +0.000 C 
ATOM     20  C   LIG    1       19.356   8.235  11.515  0.00  0.00    +0.002 C 
ATOM     21  C   LIG    1       20.002   7.406  10.412  0.00  0.00    +0.022 C 
ENDBRANCH  14  16
ENDBRANCH   7  12
ENDBRANCH   1   7
BRANCH   4  22
ATOM     22  C   LIG    1       27.051   2.900  17.295  0.00  0.00    +0.054 C 
BRANCH  22  23
ATOM     23  C   LIG    1       27.075   3.219  18.803  0.00  0.00    +0.121 C 
BRANCH  23  24
ATOM     24  N   LIG    1       27.246   1.957  19.511  0.00  0.00    -0.237 N 
ATOM     25  C   LIG    1       26.391   0.906  19.241  0.00  0.00    +0.232 C 
ATOM     26  O   LIG    1       25.217   1.070  18.911  0.00  0.00    -0.274 OA
ATOM     27  C   LIG    1       27.082  -0.464  19.201  0.00  0.00    +0.067 C 
ATOM     28  C   LIG    1       27.630  -0.588  17.762  0.00  0.00    +0.025 C 
ATOM     29  C   LIG    1       26.031  -1.563  19.441  0.00  0.00    +0.025 C 
ATOM     30  C   LIG    1       28.239  -0.564  20.188  0.00  0.00    -0.021 A 
ATOM     31  C   LIG    1       28.937  -1.767  20.380  0.00  0.00    +0.009 A 
ATOM     32  C   LIG    1       30.034  -1.837  21.247  0.00  0.00    +0.046 A 
ATOM     33  C   LIG    1       30.448  -0.710  21.952  0.00  0.00    +0.121 A 
ATOM     34  C   LIG    1       29.767   0.490  21.772  0.00  0.00    +0.059 A 
ATOM     35  C   LIG    1       28.687   0.569  20.882  0.00  0.00    +0.045 A 
ATOM     36  C   LIG    1       28.150   1.909  20.557  0.00  0.00    +0.253 C 
ATOM     37  O   LIG    1       28.561   2.904  21.145  0.00  0.00    -0.270 OA
BRANCH  33  38
ATOM     38  O   LIG    1       31.508  -0.640  22.812  0.00  0.00    -0.495 OA
ATOM     39  C   LIG    1       31.289  -1.100  24.140  0.00  0.00    +0.277 C 
ENDBRANCH  33  38
ENDBRANCH  23  24
ENDBRANCH  22  23
ENDBRANCH   4  22
TORSDOF 7
ENDMDL
MODEL 9
REMARK VINA RESULT:       4.4      2.374      5.454
REMARK  Name = 
REMARK                            x       y       z     vdW  Elec       q    Type
REMARK                         _______ _______ _______ _____ _____    ______ ____
ROOT
ATOM      1  C   LIG    1       29.470   2.640  20.110  0.00  0.00    +0.109 A 
ATOM      2  C   LIG    1       28.612   2.699  21.208  0.00  0.00    +0.029 A 
ATOM      3  C   LIG    1       27.493   3.526  21.160  0.00  0.00    +0.005 A 
ATOM      4  C   LIG    1       27.236   4.296  20.020  0.00  0.00    -0.046 A 
ATOM      5  C   LIG    1       28.108   4.211  18.918  0.00  0.00    +0.005 A 
ATOM      6  C   LIG    1       29.224   3.383  18.956  0.00  0.00    +0.029 A 
ENDROOT
BRANCH   1   7
ATOM      7  S   LIG    1       30.962   1.699  20.218  0.00  0.00    +0.076 S 
ATOM      8  O   LIG    1       30.649   0.307  19.982  0.00  0.00    -0.150 OA
ATOM      9  O   LIG    1       31.991   2.376  19.462  0.00  0.00    -0.150 OA
BRANCH   7  12
ATOM     10  O   LIG    1       31.609   1.368  23.934  0.00  0.00    -0.251 OA
ATOM     11  C   LIG    1       31.518   0.947  22.794  0.00  0.00    +0.319 C 
ATOM     12  N   LIG    1       31.281   1.893  21.819  0.00  0.00    -0.169 N 
ATOM     13  H   LIG    1       31.201   2.835  22.191  0.00  0.00    +0.178 HD
ATOM     14  N   LIG    1       31.637  -0.347  22.401  0.00  0.00    -0.295 N 
ATOM     15  H   LIG    1       31.542  -0.528  21.412  0.00  0.00    +0.151 HD
BRANCH  14  16
ATOM     16  C   LIG    1       31.901  -1.517  23.234  0.00  0.00    +0.074 C 
ATOM     17  C   LIG    1       31.943  -2.841  22.471  0.00  0.00    +0.022 C 
ATOM     18  C   LIG    1       30.573  -3.438  22.175  0.00  0.00    +0.002 C 
ATOM     19  C   LIG    1       29.636  -3.451  23.384  0.00  0.00    +0.000 C 
ATOM     20  C   LIG    1       29.639  -2.188  24.244  0.00  0.00    +0.002 C 
ATOM     21  C   LIG    1       31.027  -1.611  24.486  0.00  0.00    +0.022 C 
ENDBRANCH  14  16
ENDBRANCH   7  12
ENDBRANCH   1   7
BRANCH   4  22
ATOM     22  C   LIG    1       26.080   5.250  19.905  0.00  0.00    +0.054 C 
BRANCH  22  23
ATOM     23  C   LIG    1       24.692   4.706  19.514  0.00  0.00    +0.121 C 
BRANCH  23  24
ATOM     24  N   LIG    1       24.899   3.433  18.839  0.00  0.00    -0.237 N 
ATOM     25  C   LIG    1       24.588   3.317  17.497  0.00  0.00    +0.232 C 
ATOM     26  O   LIG    1       23.677   3.953  16.967  0.00  0.00    -0.274 OA
ATOM     27  C   LIG    1       25.592   2.479  16.695  0.00  0.00    +0.067 C 
ATOM     28  C   LIG    1       26.714   3.469  16.310  0.00  0.00    +0.025 C 
ATOM     29  C   LIG    1       24.907   1.965  15.415  0.00  0.00    +0.025 C 
ATOM     30  C   LIG    1       26.189   1.339  17.512  0.00  0.00    -0.021 A 
ATOM     31  C   LIG    1       27.052   0.395  16.934  0.00  0.00    +0.009 A 
ATOM     32  C   LIG    1       27.639  -0.616  17.704  0.00  0.00    +0.046 A 
ATOM     33  C   LIG    1       27.366  -0.714  19.065  0.00  0.00    +0.121 A 
ATOM     34  C   LIG    1       26.513   0.215  19.654  0.00  0.00    +0.059 A 
ATOM     35  C   LIG    1       25.947   1.246  18.891  0.00  0.00    +0.045 A 
ATOM     36  C   LIG    1       25.239   2.332  19.604  0.00  0.00    +0.253 C 
ATOM     37  O   LIG    1       25.052   2.263  20.814  0.00  0.00    -0.270 OA
BRANCH  33  38
ATOM     38  O   LIG    1       27.884  -1.638  19.929  0.00  0.00    -0.495 OA
ATOM     39  C   LIG    1       28.223  -1.182  21.232  0.00  0.00    +0.277 C 
ENDBRANCH  33  38
ENDBRANCH  23  24
ENDBRANCH  22  23
ENDBRANCH   4  22
TORSDOF 7
ENDMDL
