MODEL 1
REMARK VINA RESULT:      -2.1      0.000      0.000
REMARK  Name = 
REMARK                            x       y       z     vdW  Elec       q    Type
REMARK                         _______ _______ _______ _____ _____    ______ ____
ROOT
ATOM      1  C   LIG    1        2.826  16.727  32.933  0.00  0.00    +0.109 A 
ATOM      2  C   LIG    1        3.457  17.787  33.586  0.00  0.00    +0.029 A 
ATOM      3  C   LIG    1        4.569  18.387  33.003  0.00  0.00    +0.005 A 
ATOM      4  C   LIG    1        5.053  17.927  31.774  0.00  0.00    -0.046 A 
ATOM      5  C   LIG    1        4.394  16.865  31.126  0.00  0.00    +0.005 A 
ATOM      6  C   LIG    1        3.279  16.264  31.698  0.00  0.00    +0.029 A 
ENDROOT
BRANCH   1   7
ATOM      7  S   LIG    1        1.501  15.875  33.732  0.00  0.00    +0.076 S 
ATOM      8  O   LIG    1        0.874  14.991  32.775  0.00  0.00    -0.150 OA
ATOM      9  O   LIG    1        1.970  15.387  35.010  0.00  0.00    -0.150 OA
BRANCH   7  12
ATOM     10  O   LIG    1       -0.505  19.085  33.690  0.00  0.00    -0.251 OA
ATOM     11  C   LIG    1        0.189  18.219  33.189  0.00  0.00    +0.319 C 
ATOM     12  N   LIG    1        0.493  17.145  34.000  0.00  0.00    -0.169 N 
ATOM     13  H   LIG    1        0.098  17.228  34.932  0.00  0.00    +0.178 HD
ATOM     14  N   LIG    1        0.675  18.209  31.921  0.00  0.00    -0.295 N 
ATOM     15  H   LIG    1        1.231  17.407  31.658  0.00  0.00    +0.151 HD
BRANCH  14  16
ATOM     16  C   LIG    1        0.481  19.211  30.878  0.00  0.00    +0.074 C 
ATOM     17  C   LIG    1        0.830  18.734  29.468  0.00  0.00    +0.022 C 
ATOM     18  C   LIG    1        2.318  18.773  29.143  0.00  0.00    +0.002 C 
ATOM     19  C   LIG    1        2.997  20.086  29.537  0.00  0.00    +0.000 C 
ATOM     20  C   LIG    1        2.597  20.664  30.893  0.00  0.00    +0.002 C 
ATOM     21  C   LIG    1        1.105  20.573  31.187  0.00  0.00    +0.022 C 
ENDBRANCH  14  16
ENDBRANCH   7  12
ENDBRANCH   1   7
BRANCH   4  22
ATOM     22  C   LIG    1        6.276  18.484  31.100  0.00  0.00    +0.054 C 
BRANCH  22  23
ATOM     23  C   LIG    1        6.230  19.913  30.522  0.00  0.00    +0.121 C 
BRANCH  23  24
ATOM     24  N   LIG    1        6.635  19.830  29.126  0.00  0.00    -0.237 N 
ATOM     25  C   LIG    1        5.887  19.071  28.246  0.00  0.00    +0.232 C 
ATOM     26  O   LIG    1        5.282  18.056  28.590  0.00  0.00    -0.274 OA
ATOM     27  C   LIG    1        5.722  19.706  26.859  0.00  0.00    +0.067 C 
ATOM     28  C   LIG    1        4.515  20.660  27.003  0.00  0.00    +0.025 C 
ATOM     29  C   LIG    1        5.381  18.605  25.840  0.00  0.00    +0.025 C 
ATOM     30  C   LIG    1        6.946  20.509  26.434  0.00  0.00    -0.021 A 
ATOM     31  C   LIG    1        7.038  21.085  25.157  0.00  0.00    +0.009 A 
ATOM     32  C   LIG    1        8.142  21.867  24.794  0.00  0.00    +0.046 A 
ATOM     33  C   LIG    1        9.183  22.077  25.693  0.00  0.00    +0.121 A 
ATOM     34  C   LIG    1        9.107  21.513  26.963  0.00  0.00    +0.059 A 
ATOM     35  C   LIG    1        7.990  20.754  27.339  0.00  0.00    +0.045 A 
ATOM     36  C   LIG    1        7.853  20.375  28.762  0.00  0.00    +0.253 C 
ATOM     37  O   LIG    1        8.754  20.614  29.559  0.00  0.00    -0.270 OA
BRANCH  33  38
ATOM     38  O   LIG    1       10.303  22.829  25.470  0.00  0.00    -0.495 OA
ATOM     39  C   LIG    1       10.692  23.016  24.116  0.00  0.00    +0.277 C 
ENDBRANCH  33  38
ENDBRANCH  23  24
ENDBRANCH  22  23
ENDBRANCH   4  22
TORSDOF 7
ENDMDL
MODEL 2
REMARK VINA RESULT:      -1.5      2.341      5.771
REMARK  Name = 
REMARK                            x       y       z     vdW  Elec       q    Type
REMARK                         _______ _______ _______ _____ _____    ______ ____
ROOT
ATOM      1  C   LIG    1        2.155  20.075  29.392  0.00  0.00    +0.109 A 
ATOM      2  C   LIG    1        1.868  18.807  28.885  0.00  0.00    +0.029 A 
ATOM      3  C   LIG    1        2.363  18.440  27.637  0.00  0.00    +0.005 A 
ATOM      4  C   LIG    1        3.137  19.338  26.894  0.00  0.00    -0.046 A 
ATOM      5  C   LIG    1        3.425  20.608  27.430  0.00  0.00    +0.005 A 
ATOM      6  C   LIG    1        2.940  20.980  28.679  0.00  0.00    +0.029 A 
ENDROOT
BRANCH   1   7
ATOM      7  S   LIG    1        1.417  20.594  30.911  0.00  0.00    +0.076 S 
ATOM      8  O   LIG    1        2.467  20.846  31.873  0.00  0.00    -0.150 OA
ATOM      9  O   LIG    1        0.412  21.591  30.619  0.00  0.00    -0.150 OA
BRANCH   7  12
ATOM     10  O   LIG    1        0.254  17.309  32.388  0.00  0.00    -0.251 OA
ATOM     11  C   LIG    1        0.894  18.345  32.386  0.00  0.00    +0.319 C 
ATOM     12  N   LIG    1        0.658  19.197  31.328  0.00  0.00    -0.169 N 
ATOM     13  H   LIG    1       -0.024  18.833  30.669  0.00  0.00    +0.178 HD
ATOM     14  N   LIG    1        1.796  18.736  33.322  0.00  0.00    -0.295 N 
ATOM     15  H   LIG    1        2.236  19.634  33.176  0.00  0.00    +0.151 HD
BRANCH  14  16
ATOM     16  C   LIG    1        2.201  18.024  34.530  0.00  0.00    +0.074 C 
ATOM     17  C   LIG    1        1.044  17.605  35.438  0.00  0.00    +0.022 C 
ATOM     18  C   LIG    1        0.522  18.715  36.341  0.00  0.00    +0.002 C 
ATOM     19  C   LIG    1        1.626  19.486  37.065  0.00  0.00    +0.000 C 
ATOM     20  C   LIG    1        2.856  19.834  36.229  0.00  0.00    +0.002 C 
ATOM     21  C   LIG    1        3.322  18.705  35.319  0.00  0.00    +0.022 C 
ENDBRANCH  14  16
ENDBRANCH   7  12
ENDBRANCH   1   7
BRANCH   4  22
ATOM     22  C   LIG    1        3.667  19.041  25.520  0.00  0.00    +0.054 C 
BRANCH  22  23
ATOM     23  C   LIG    1        5.182  18.830  25.328  0.00  0.00    +0.121 C 
BRANCH  23  24
ATOM     24  N   LIG    1        5.783  18.770  26.653  0.00  0.00    -0.237 N 
ATOM     25  C   LIG    1        6.908  19.527  26.922  0.00  0.00    +0.232 C 
ATOM     26  O   LIG    1        7.752  19.794  26.067  0.00  0.00    -0.274 OA
ATOM     27  C   LIG    1        6.913  20.160  28.320  0.00  0.00    +0.067 C 
ATOM     28  C   LIG    1        6.113  21.472  28.162  0.00  0.00    +0.025 C 
ATOM     29  C   LIG    1        8.362  20.492  28.716  0.00  0.00    +0.025 C 
ATOM     30  C   LIG    1        6.230  19.282  29.363  0.00  0.00    -0.021 A 
ATOM     31  C   LIG    1        6.217  19.632  30.722  0.00  0.00    +0.009 A 
ATOM     32  C   LIG    1        5.541  18.848  31.665  0.00  0.00    +0.046 A 
ATOM     33  C   LIG    1        4.876  17.690  31.272  0.00  0.00    +0.121 A 
ATOM     34  C   LIG    1        4.880  17.329  29.928  0.00  0.00    +0.059 A 
ATOM     35  C   LIG    1        5.531  18.128  28.978  0.00  0.00    +0.045 A 
ATOM     36  C   LIG    1        5.311  17.826  27.546  0.00  0.00    +0.253 C 
ATOM     37  O   LIG    1        4.675  16.833  27.210  0.00  0.00    -0.270 OA
BRANCH  33  38
ATOM     38  O   LIG    1        4.168  16.850  32.086  0.00  0.00    -0.495 OA
ATOM     39  C   LIG    1        3.163  16.056  31.470  0.00  0.00    +0.277 C 
ENDBRANCH  33  38
ENDBRANCH  23  24
ENDBRANCH  22  23
ENDBRANCH   4  22
TORSDOF 7
ENDMDL
MODEL 3
REMARK VINA RESULT:      -0.9      1.432      2.463
REMARK  Name = 
REMARK                            x       y       z     vdW  Elec       q    Type
REMARK                         _______ _______ _______ _____ _____    ______ ____
ROOT
ATOM      1  C   LIG    1        3.312  17.384  33.183  0.00  0.00    +0.109 A 
ATOM      2  C   LIG    1        2.788  16.482  32.255  0.00  0.00    +0.029 A 
ATOM      3  C   LIG    1        3.431  16.307  31.032  0.00  0.00    +0.005 A 
ATOM      4  C   LIG    1        4.588  17.033  30.735  0.00  0.00    -0.046 A 
ATOM      5  C   LIG    1        5.107  17.928  31.690  0.00  0.00    +0.005 A 
ATOM      6  C   LIG    1        4.476  18.104  32.916  0.00  0.00    +0.029 A 
ENDROOT
BRANCH   1   7
ATOM      7  S   LIG    1        2.428  17.711  34.677  0.00  0.00    +0.076 S 
ATOM      8  O   LIG    1        2.700  16.648  35.619  0.00  0.00    -0.150 OA
ATOM      9  O   LIG    1        2.622  19.099  35.033  0.00  0.00    -0.150 OA
BRANCH   7  12
ATOM     10  O   LIG    1       -0.945  17.926  32.969  0.00  0.00    -0.251 OA
ATOM     11  C   LIG    1        0.242  18.175  33.090  0.00  0.00    +0.319 C 
ATOM     12  N   LIG    1        0.892  17.528  34.120  0.00  0.00    -0.169 N 
ATOM     13  H   LIG    1        0.278  16.925  34.660  0.00  0.00    +0.178 HD
ATOM     14  N   LIG    1        0.973  19.010  32.308  0.00  0.00    -0.295 N 
ATOM     15  H   LIG    1        1.953  19.100  32.539  0.00  0.00    +0.151 HD
BRANCH  14  16
ATOM     16  C   LIG    1        0.522  19.788  31.159  0.00  0.00    +0.074 C 
ATOM     17  C   LIG    1        0.555  19.032  29.829  0.00  0.00    +0.022 C 
ATOM     18  C   LIG    1        1.929  18.976  29.174  0.00  0.00    +0.002 C 
ATOM     19  C   LIG    1        2.645  20.327  29.135  0.00  0.00    +0.000 C 
ATOM     20  C   LIG    1        2.549  21.171  30.404  0.00  0.00    +0.002 C 
ATOM     21  C   LIG    1        1.165  21.171  31.041  0.00  0.00    +0.022 C 
ENDBRANCH  14  16
ENDBRANCH   7  12
ENDBRANCH   1   7
BRANCH   4  22
ATOM     22  C   LIG    1        5.313  16.940  29.421  0.00  0.00    +0.054 C 
BRANCH  22  23
ATOM     23  C   LIG    1        4.736  17.668  28.191  0.00  0.00    +0.121 C 
BRANCH  23  24
ATOM     24  N   LIG    1        5.423  18.948  28.081  0.00  0.00    -0.237 N 
ATOM     25  C   LIG    1        5.551  19.748  29.200  0.00  0.00    +0.232 C 
ATOM     26  O   LIG    1        4.711  19.776  30.099  0.00  0.00    -0.274 OA
ATOM     27  C   LIG    1        6.912  20.447  29.313  0.00  0.00    +0.067 C 
ATOM     28  C   LIG    1        7.832  19.410  29.996  0.00  0.00    +0.025 C 
ATOM     29  C   LIG    1        6.770  21.679  30.226  0.00  0.00    +0.025 C 
ATOM     30  C   LIG    1        7.497  20.816  27.955  0.00  0.00    -0.021 A 
ATOM     31  C   LIG    1        8.687  21.552  27.843  0.00  0.00    +0.009 A 
ATOM     32  C   LIG    1        9.245  21.839  26.592  0.00  0.00    +0.046 A 
ATOM     33  C   LIG    1        8.619  21.410  25.425  0.00  0.00    +0.121 A 
ATOM     34  C   LIG    1        7.439  20.678  25.519  0.00  0.00    +0.059 A 
ATOM     35  C   LIG    1        6.893  20.364  26.771  0.00  0.00    +0.045 A 
ATOM     36  C   LIG    1        5.775  19.397  26.821  0.00  0.00    +0.253 C 
ATOM     37  O   LIG    1        5.266  18.981  25.786  0.00  0.00    -0.270 OA
BRANCH  33  38
ATOM     38  O   LIG    1        9.066  21.608  24.149  0.00  0.00    -0.495 OA
ATOM     39  C   LIG    1       10.406  21.223  23.870  0.00  0.00    +0.277 C 
ENDBRANCH  33  38
ENDBRANCH  23  24
ENDBRANCH  22  23
ENDBRANCH   4  22
TORSDOF 7
ENDMDL
MODEL 4
REMARK VINA RESULT:      -0.8      3.059      8.781
REMARK  Name = 
REMARK                            x       y       z     vdW  Elec       q    Type
REMARK                         _______ _______ _______ _____ _____    ______ ____
ROOT
ATOM      1  C   LIG    1        7.265  20.725  28.727  0.00  0.00    +0.109 A 
ATOM      2  C   LIG    1        8.130  19.838  29.370  0.00  0.00    +0.029 A 
ATOM      3  C   LIG    1        7.649  19.042  30.406  0.00  0.00    +0.005 A 
ATOM      4  C   LIG    1        6.311  19.136  30.802  0.00  0.00    -0.046 A 
ATOM      5  C   LIG    1        5.452  20.028  30.131  0.00  0.00    +0.005 A 
ATOM      6  C   LIG    1        5.923  20.821  29.091  0.00  0.00    +0.029 A 
ENDROOT
BRANCH   1   7
ATOM      7  S   LIG    1        7.902  21.832  27.506  0.00  0.00    +0.076 S 
ATOM      8  O   LIG    1        6.845  22.732  27.101  0.00  0.00    -0.150 OA
ATOM      9  O   LIG    1        9.181  22.331  27.957  0.00  0.00    -0.150 OA
BRANCH   7  12
ATOM     10  O   LIG    1        7.825  19.051  24.938  0.00  0.00    -0.251 OA
ATOM     11  C   LIG    1        7.329  19.793  25.767  0.00  0.00    +0.319 C 
ATOM     12  N   LIG    1        8.163  20.760  26.287  0.00  0.00    -0.169 N 
ATOM     13  H   LIG    1        9.105  20.717  25.910  0.00  0.00    +0.178 HD
ATOM     14  N   LIG    1        6.046  19.762  26.210  0.00  0.00    -0.295 N 
ATOM     15  H   LIG    1        5.790  20.456  26.898  0.00  0.00    +0.151 HD
BRANCH  14  16
ATOM     16  C   LIG    1        4.978  18.852  25.804  0.00  0.00    +0.074 C 
ATOM     17  C   LIG    1        3.567  19.415  25.978  0.00  0.00    +0.022 C 
ATOM     18  C   LIG    1        3.024  19.320  27.398  0.00  0.00    +0.002 C 
ATOM     19  C   LIG    1        3.225  17.946  28.040  0.00  0.00    +0.000 C 
ATOM     20  C   LIG    1        4.584  17.290  27.803  0.00  0.00    +0.002 C 
ATOM     21  C   LIG    1        5.100  17.439  26.377  0.00  0.00    +0.022 C 
ENDBRANCH  14  16
ENDBRANCH   7  12
ENDBRANCH   1   7
BRANCH   4  22
ATOM     22  C   LIG    1        5.724  18.351  31.942  0.00  0.00    +0.054 C 
BRANCH  22  23
ATOM     23  C   LIG    1        4.598  17.337  31.656  0.00  0.00    +0.121 C 
BRANCH  23  24
ATOM     24  N   LIG    1        3.389  17.840  32.294  0.00  0.00    -0.237 N 
ATOM     25  C   LIG    1        2.171  17.675  31.663  0.00  0.00    +0.232 C 
ATOM     26  O   LIG    1        2.050  17.664  30.439  0.00  0.00    -0.274 OA
ATOM     27  C   LIG    1        1.021  17.318  32.615  0.00  0.00    +0.067 C 
ATOM     28  C   LIG    1        1.103  15.783  32.774  0.00  0.00    +0.025 C 
ATOM     29  C   LIG    1       -0.316  17.688  31.947  0.00  0.00    +0.025 C 
ATOM     30  C   LIG    1        1.169  17.972  33.984  0.00  0.00    -0.021 A 
ATOM     31  C   LIG    1        0.171  17.854  34.965  0.00  0.00    +0.009 A 
ATOM     32  C   LIG    1        0.339  18.412  36.237  0.00  0.00    +0.046 A 
ATOM     33  C   LIG    1        1.501  19.111  36.554  0.00  0.00    +0.121 A 
ATOM     34  C   LIG    1        2.499  19.236  35.592  0.00  0.00    +0.059 A 
ATOM     35  C   LIG    1        2.346  18.654  34.326  0.00  0.00    +0.045 A 
ATOM     36  C   LIG    1        3.522  18.619  33.429  0.00  0.00    +0.253 C 
ATOM     37  O   LIG    1        4.560  19.191  33.741  0.00  0.00    -0.270 OA
BRANCH  33  38
ATOM     38  O   LIG    1        1.795  19.686  37.758  0.00  0.00    -0.495 OA
ATOM     39  C   LIG    1        2.676  20.801  37.740  0.00  0.00    +0.277 C 
ENDBRANCH  33  38
ENDBRANCH  23  24
ENDBRANCH  22  23
ENDBRANCH   4  22
TORSDOF 7
ENDMDL
MODEL 5
REMARK VINA RESULT:       0.1      2.139      7.372
REMARK  Name = 
REMARK                            x       y       z     vdW  Elec       q    Type
REMARK                         _______ _______ _______ _____ _____    ______ ____
ROOT
ATOM      1  C   LIG    1        2.351  19.795  29.545  0.00  0.00    +0.109 A 
ATOM      2  C   LIG    1        1.599  18.621  29.609  0.00  0.00    +0.029 A 
ATOM      3  C   LIG    1        0.806  18.376  30.727  0.00  0.00    +0.005 A 
ATOM      4  C   LIG    1        0.768  19.296  31.779  0.00  0.00    -0.046 A 
ATOM      5  C   LIG    1        1.524  20.480  31.688  0.00  0.00    +0.005 A 
ATOM      6  C   LIG    1        2.313  20.737  30.573  0.00  0.00    +0.029 A 
ENDROOT
BRANCH   1   7
ATOM      7  S   LIG    1        3.461  20.047  28.195  0.00  0.00    +0.076 S 
ATOM      8  O   LIG    1        4.113  18.793  27.891  0.00  0.00    -0.150 OA
ATOM      9  O   LIG    1        2.778  20.805  27.171  0.00  0.00    -0.150 OA
BRANCH   7  12
ATOM     10  O   LIG    1        6.503  21.872  29.519  0.00  0.00    -0.251 OA
ATOM     11  C   LIG    1        5.916  21.133  28.748  0.00  0.00    +0.319 C 
ATOM     12  N   LIG    1        4.552  21.032  28.930  0.00  0.00    -0.169 N 
ATOM     13  H   LIG    1        4.213  21.591  29.708  0.00  0.00    +0.178 HD
ATOM     14  N   LIG    1        6.471  20.420  27.734  0.00  0.00    -0.295 N 
ATOM     15  H   LIG    1        5.840  19.860  27.180  0.00  0.00    +0.151 HD
BRANCH  14  16
ATOM     16  C   LIG    1        7.874  20.373  27.334  0.00  0.00    +0.074 C 
ATOM     17  C   LIG    1        8.689  21.603  27.737  0.00  0.00    +0.022 C 
ATOM     18  C   LIG    1        8.527  22.796  26.804  0.00  0.00    +0.002 C 
ATOM     19  C   LIG    1        8.644  22.436  25.322  0.00  0.00    +0.000 C 
ATOM     20  C   LIG    1        7.937  21.153  24.889  0.00  0.00    +0.002 C 
ATOM     21  C   LIG    1        8.101  19.998  25.869  0.00  0.00    +0.022 C 
ENDBRANCH  14  16
ENDBRANCH   7  12
ENDBRANCH   1   7
BRANCH   4  22
ATOM     22  C   LIG    1       -0.021  19.085  33.041  0.00  0.00    +0.054 C 
BRANCH  22  23
ATOM     23  C   LIG    1        0.631  18.333  34.218  0.00  0.00    +0.121 C 
BRANCH  23  24
ATOM     24  N   LIG    1        1.707  17.518  33.671  0.00  0.00    -0.237 N 
ATOM     25  C   LIG    1        1.539  16.150  33.575  0.00  0.00    +0.232 C 
ATOM     26  O   LIG    1        0.860  15.504  34.373  0.00  0.00    -0.274 OA
ATOM     27  C   LIG    1        2.113  15.541  32.289  0.00  0.00    +0.067 C 
ATOM     28  C   LIG    1        0.993  15.713  31.238  0.00  0.00    +0.025 C 
ATOM     29  C   LIG    1        2.370  14.040  32.515  0.00  0.00    +0.025 C 
ATOM     30  C   LIG    1        3.366  16.262  31.807  0.00  0.00    -0.021 A 
ATOM     31  C   LIG    1        4.102  15.799  30.705  0.00  0.00    +0.009 A 
ATOM     32  C   LIG    1        5.220  16.498  30.236  0.00  0.00    +0.046 A 
ATOM     33  C   LIG    1        5.636  17.667  30.866  0.00  0.00    +0.121 A 
ATOM     34  C   LIG    1        4.917  18.140  31.961  0.00  0.00    +0.059 A 
ATOM     35  C   LIG    1        3.780  17.457  32.414  0.00  0.00    +0.045 A 
ATOM     36  C   LIG    1        2.927  18.120  33.424  0.00  0.00    +0.253 C 
ATOM     37  O   LIG    1        3.276  19.180  33.934  0.00  0.00    -0.270 OA
BRANCH  33  38
ATOM     38  O   LIG    1        6.696  18.449  30.500  0.00  0.00    -0.495 OA
ATOM     39  C   LIG    1        7.140  19.413  31.446  0.00  0.00    +0.277 C 
ENDBRANCH  33  38
ENDBRANCH  23  24
ENDBRANCH  22  23
ENDBRANCH   4  22
TORSDOF 7
ENDMDL
MODEL 6
REMARK VINA RESULT:       0.3      2.883      8.950
REMARK  Name = 
REMARK                            x       y       z     vdW  Elec       q    Type
REMARK                         _______ _______ _______ _____ _____    ______ ____
ROOT
ATOM      1  C   LIG    1        6.876  20.551  26.205  0.00  0.00    +0.109 A 
ATOM      2  C   LIG    1        6.198  21.501  26.970  0.00  0.00    +0.029 A 
ATOM      3  C   LIG    1        5.042  21.132  27.653  0.00  0.00    +0.005 A 
ATOM      4  C   LIG    1        4.562  19.821  27.567  0.00  0.00    -0.046 A 
ATOM      5  C   LIG    1        5.269  18.875  26.800  0.00  0.00    +0.005 A 
ATOM      6  C   LIG    1        6.428  19.233  26.120  0.00  0.00    +0.029 A 
ENDROOT
BRANCH   1   7
ATOM      7  S   LIG    1        8.263  21.046  25.228  0.00  0.00    +0.076 S 
ATOM      8  O   LIG    1        9.106  19.893  25.002  0.00  0.00    -0.150 OA
ATOM      9  O   LIG    1        7.788  21.857  24.130  0.00  0.00    -0.150 OA
BRANCH   7  12
ATOM     10  O   LIG    1        9.629  22.860  28.258  0.00  0.00    -0.251 OA
ATOM     11  C   LIG    1        9.115  21.917  27.683  0.00  0.00    +0.319 C 
ATOM     12  N   LIG    1        9.012  22.029  26.313  0.00  0.00    -0.169 N 
ATOM     13  H   LIG    1        9.376  22.908  25.958  0.00  0.00    +0.178 HD
ATOM     14  N   LIG    1        8.650  20.779  28.260  0.00  0.00    -0.295 N 
ATOM     15  H   LIG    1        8.257  20.087  27.637  0.00  0.00    +0.151 HD
BRANCH  14  16
ATOM     16  C   LIG    1        8.661  20.420  29.675  0.00  0.00    +0.074 C 
ATOM     17  C   LIG    1        8.190  18.996  29.971  0.00  0.00    +0.022 C 
ATOM     18  C   LIG    1        6.676  18.831  30.004  0.00  0.00    +0.002 C 
ATOM     19  C   LIG    1        5.959  19.902  30.827  0.00  0.00    +0.000 C 
ATOM     20  C   LIG    1        6.468  21.332  30.649  0.00  0.00    +0.002 C 
ATOM     21  C   LIG    1        7.986  21.443  30.590  0.00  0.00    +0.022 C 
ENDBRANCH  14  16
ENDBRANCH   7  12
ENDBRANCH   1   7
BRANCH   4  22
ATOM     22  C   LIG    1        3.297  19.353  28.231  0.00  0.00    +0.054 C 
BRANCH  22  23
ATOM     23  C   LIG    1        2.812  20.065  29.509  0.00  0.00    +0.121 C 
BRANCH  23  24
ATOM     24  N   LIG    1        2.441  19.033  30.467  0.00  0.00    -0.237 N 
ATOM     25  C   LIG    1        2.689  17.708  30.167  0.00  0.00    +0.232 C 
ATOM     26  O   LIG    1        2.667  17.269  29.018  0.00  0.00    -0.274 OA
ATOM     27  C   LIG    1        3.179  16.880  31.363  0.00  0.00    +0.067 C 
ATOM     28  C   LIG    1        4.705  17.117  31.408  0.00  0.00    +0.025 C 
ATOM     29  C   LIG    1        2.904  15.390  31.088  0.00  0.00    +0.025 C 
ATOM     30  C   LIG    1        2.564  17.334  32.681  0.00  0.00    -0.021 A 
ATOM     31  C   LIG    1        2.803  16.642  33.880  0.00  0.00    +0.009 A 
ATOM     32  C   LIG    1        2.278  17.098  35.095  0.00  0.00    +0.046 A 
ATOM     33  C   LIG    1        1.492  18.245  35.138  0.00  0.00    +0.121 A 
ATOM     34  C   LIG    1        1.245  18.942  33.958  0.00  0.00    +0.059 A 
ATOM     35  C   LIG    1        1.794  18.505  32.745  0.00  0.00    +0.045 A 
ATOM     36  C   LIG    1        1.694  19.401  31.572  0.00  0.00    +0.253 C 
ATOM     37  O   LIG    1        1.043  20.439  31.636  0.00  0.00    -0.270 OA
BRANCH  33  38
ATOM     38  O   LIG    1        0.936  18.803  36.255  0.00  0.00    -0.495 OA
ATOM     39  C   LIG    1        1.780  19.624  37.051  0.00  0.00    +0.277 C 
ENDBRANCH  33  38
ENDBRANCH  23  24
ENDBRANCH  22  23
ENDBRANCH   4  22
TORSDOF 7
ENDMDL
MODEL 7
REMARK VINA RESULT:       0.7      2.709      8.077
REMARK  Name = 
REMARK                            x       y       z     vdW  Elec       q    Type
REMARK                         _______ _______ _______ _____ _____    ______ ____
ROOT
ATOM      1  C   LIG    1        6.330  20.143  28.278  0.00  0.00    +0.109 A 
ATOM      2  C   LIG    1        5.321  20.809  28.975  0.00  0.00    +0.029 A 
ATOM      3  C   LIG    1        5.097  20.503  30.315  0.00  0.00    +0.005 A 
ATOM      4  C   LIG    1        5.875  19.533  30.955  0.00  0.00    -0.046 A 
ATOM      5  C   LIG    1        6.897  18.883  30.236  0.00  0.00    +0.005 A 
ATOM      6  C   LIG    1        7.131  19.187  28.900  0.00  0.00    +0.029 A 
ENDROOT
BRANCH   1   7
ATOM      7  S   LIG    1        6.527  20.428  26.546  0.00  0.00    +0.076 S 
ATOM      8  O   LIG    1        7.586  19.575  26.053  0.00  0.00    -0.150 OA
ATOM      9  O   LIG    1        5.220  20.436  25.928  0.00  0.00    -0.150 OA
BRANCH   7  12
ATOM     10  O   LIG    1        8.508  23.654  26.488  0.00  0.00    -0.251 OA
ATOM     11  C   LIG    1        8.319  22.477  26.234  0.00  0.00    +0.319 C 
ATOM     12  N   LIG    1        7.088  21.973  26.594  0.00  0.00    -0.169 N 
ATOM     13  H   LIG    1        6.492  22.662  27.043  0.00  0.00    +0.178 HD
ATOM     14  N   LIG    1        9.195  21.634  25.629  0.00  0.00    -0.295 N 
ATOM     15  H   LIG    1        8.879  20.685  25.484  0.00  0.00    +0.151 HD
BRANCH  14  16
ATOM     16  C   LIG    1       10.540  21.931  25.146  0.00  0.00    +0.074 C 
ATOM     17  C   LIG    1       10.700  23.325  24.537  0.00  0.00    +0.022 C 
ATOM     18  C   LIG    1       10.223  23.437  23.095  0.00  0.00    +0.002 C 
ATOM     19  C   LIG    1       10.725  22.308  22.194  0.00  0.00    +0.000 C 
ATOM     20  C   LIG    1       10.688  20.906  22.797  0.00  0.00    +0.002 C 
ATOM     21  C   LIG    1       11.143  20.848  24.250  0.00  0.00    +0.022 C 
ENDBRANCH  14  16
ENDBRANCH   7  12
ENDBRANCH   1   7
BRANCH   4  22
ATOM     22  C   LIG    1        5.668  19.109  32.382  0.00  0.00    +0.054 C 
BRANCH  22  23
ATOM     23  C   LIG    1        4.651  17.993  32.694  0.00  0.00    +0.121 C 
BRANCH  23  24
ATOM     24  N   LIG    1        3.843  17.795  31.498  0.00  0.00    -0.237 N 
ATOM     25  C   LIG    1        2.507  18.148  31.515  0.00  0.00    +0.232 C 
ATOM     26  O   LIG    1        1.814  18.085  32.530  0.00  0.00    -0.274 OA
ATOM     27  C   LIG    1        2.020  18.803  30.215  0.00  0.00    +0.067 C 
ATOM     28  C   LIG    1        2.379  20.298  30.368  0.00  0.00    +0.025 C 
ATOM     29  C   LIG    1        0.491  18.655  30.121  0.00  0.00    +0.025 C 
ATOM     30  C   LIG    1        2.718  18.245  28.981  0.00  0.00    -0.021 A 
ATOM     31  C   LIG    1        2.344  18.638  27.686  0.00  0.00    +0.009 A 
ATOM     32  C   LIG    1        3.027  18.162  26.560  0.00  0.00    +0.046 A 
ATOM     33  C   LIG    1        4.088  17.273  26.702  0.00  0.00    +0.121 A 
ATOM     34  C   LIG    1        4.471  16.874  27.980  0.00  0.00    +0.059 A 
ATOM     35  C   LIG    1        3.808  17.372  29.110  0.00  0.00    +0.045 A 
ATOM     36  C   LIG    1        4.398  17.099  30.439  0.00  0.00    +0.253 C 
ATOM     37  O   LIG    1        5.368  16.357  30.549  0.00  0.00    -0.270 OA
BRANCH  33  38
ATOM     38  O   LIG    1        4.844  16.749  25.691  0.00  0.00    -0.495 OA
ATOM     39  C   LIG    1        4.151  16.047  24.668  0.00  0.00    +0.277 C 
ENDBRANCH  33  38
ENDBRANCH  23  24
ENDBRANCH  22  23
ENDBRANCH   4  22
TORSDOF 7
ENDMDL
