MODEL 1
REMARK VINA RESULT:     -10.8      0.000      0.000
REMARK  Name = 
REMARK                            x       y       z     vdW  Elec       q    Type
REMARK                         _______ _______ _______ _____ _____    ______ ____
ROOT
ATOM      1  C   LIG    1       16.268 -15.665  18.338  0.00  0.00    +0.109 A 
ATOM      2  C   LIG    1       17.263 -14.687  18.301  0.00  0.00    +0.029 A 
ATOM      3  C   LIG    1       18.601 -15.070  18.304  0.00  0.00    +0.005 A 
ATOM      4  C   LIG    1       18.945 -16.425  18.349  0.00  0.00    -0.046 A 
ATOM      5  C   LIG    1       17.926 -17.396  18.372  0.00  0.00    +0.005 A 
ATOM      6  C   LIG    1       16.587 -17.022  18.362  0.00  0.00    +0.029 A 
ENDROOT
BRANCH   1   7
ATOM      7  S   LIG    1       14.574 -15.182  18.472  0.00  0.00    +0.076 S 
ATOM      8  O   LIG    1       13.918 -15.438  17.209  0.00  0.00    -0.150 OA
ATOM      9  O   LIG    1       14.044 -15.700  19.713  0.00  0.00    -0.150 OA
BRANCH   7  12
ATOM     10  O   LIG    1       14.262 -11.417  18.712  0.00  0.00    -0.251 OA
ATOM     11  C   LIG    1       13.831 -12.556  18.722  0.00  0.00    +0.319 C 
ATOM     12  N   LIG    1       14.774 -13.558  18.630  0.00  0.00    -0.169 N 
ATOM     13  H   LIG    1       15.723 -13.204  18.553  0.00  0.00    +0.178 HD
ATOM     14  N   LIG    1       12.528 -12.924  18.825  0.00  0.00    -0.295 N 
ATOM     15  H   LIG    1       12.339 -13.916  18.826  0.00  0.00    +0.151 HD
BRANCH  14  16
ATOM     16  C   LIG    1       11.359 -12.059  18.949  0.00  0.00    +0.074 C 
ATOM     17  C   LIG    1       11.249 -11.331  20.290  0.00  0.00    +0.022 C 
ATOM     18  C   LIG    1       10.667 -12.177  21.415  0.00  0.00    +0.002 C 
ATOM     19  C   LIG    1        9.400 -12.937  21.019  0.00  0.00    +0.000 C 
ATOM     20  C   LIG    1        9.418 -13.591  19.639  0.00  0.00    +0.002 C 
ATOM     21  C   LIG    1       10.038 -12.722  18.553  0.00  0.00    +0.022 C 
ENDBRANCH  14  16
ENDBRANCH   7  12
ENDBRANCH   1   7
BRANCH   4  22
ATOM     22  C   LIG    1       20.363 -16.922  18.406  0.00  0.00    +0.054 C 
BRANCH  22  23
ATOM     23  C   LIG    1       21.352 -16.498  17.302  0.00  0.00    +0.121 C 
BRANCH  23  24
ATOM     24  N   LIG    1       22.690 -16.542  17.877  0.00  0.00    -0.237 N 
ATOM     25  C   LIG    1       23.330 -17.759  18.012  0.00  0.00    +0.232 C 
ATOM     26  O   LIG    1       22.726 -18.811  18.222  0.00  0.00    -0.274 OA
ATOM     27  C   LIG    1       24.830 -17.713  17.690  0.00  0.00    +0.067 C 
ATOM     28  C   LIG    1       24.909 -17.884  16.156  0.00  0.00    +0.025 C 
ATOM     29  C   LIG    1       25.527 -18.904  18.371  0.00  0.00    +0.025 C 
ATOM     30  C   LIG    1       25.472 -16.386  18.078  0.00  0.00    -0.021 A 
ATOM     31  C   LIG    1       26.855 -16.177  17.960  0.00  0.00    +0.009 A 
ATOM     32  C   LIG    1       27.429 -14.938  18.267  0.00  0.00    +0.046 A 
ATOM     33  C   LIG    1       26.636 -13.885  18.713  0.00  0.00    +0.121 A 
ATOM     34  C   LIG    1       25.262 -14.076  18.835  0.00  0.00    +0.059 A 
ATOM     35  C   LIG    1       24.682 -15.306  18.500  0.00  0.00    +0.045 A 
ATOM     36  C   LIG    1       23.206 -15.383  18.428  0.00  0.00    +0.253 C 
ATOM     37  O   LIG    1       22.516 -14.429  18.771  0.00  0.00    -0.270 OA
BRANCH  33  38
ATOM     38  O   LIG    1       27.066 -12.627  19.028  0.00  0.00    -0.495 OA
ATOM     39  C   LIG    1       28.465 -12.456  19.220  0.00  0.00    +0.277 C 
ENDBRANCH  33  38
ENDBRANCH  23  24
ENDBRANCH  22  23
ENDBRANCH   4  22
TORSDOF 7
ENDMDL
MODEL 2
REMARK VINA RESULT:     -10.5      1.718      2.482
REMARK  Name = 
REMARK                            x       y       z     vdW  Elec       q    Type
REMARK                         _______ _______ _______ _____ _____    ______ ____
ROOT
ATOM      1  C   LIG    1       17.361 -16.277  18.765  0.00  0.00    +0.109 A 
ATOM      2  C   LIG    1       18.495 -17.088  18.820  0.00  0.00    +0.029 A 
ATOM      3  C   LIG    1       19.722 -16.580  18.400  0.00  0.00    +0.005 A 
ATOM      4  C   LIG    1       19.814 -15.268  17.923  0.00  0.00    -0.046 A 
ATOM      5  C   LIG    1       18.660 -14.463  17.890  0.00  0.00    +0.005 A 
ATOM      6  C   LIG    1       17.433 -14.960  18.313  0.00  0.00    +0.029 A 
ENDROOT
BRANCH   1   7
ATOM      7  S   LIG    1       15.781 -16.959  19.167  0.00  0.00    +0.076 S 
ATOM      8  O   LIG    1       15.814 -18.382  18.916  0.00  0.00    -0.150 OA
ATOM      9  O   LIG    1       15.363 -16.431  20.446  0.00  0.00    -0.150 OA
BRANCH   7  12
ATOM     10  O   LIG    1       13.101 -15.510  16.920  0.00  0.00    -0.251 OA
ATOM     11  C   LIG    1       13.539 -15.927  17.978  0.00  0.00    +0.319 C 
ATOM     12  N   LIG    1       14.880 -16.247  17.991  0.00  0.00    -0.169 N 
ATOM     13  H   LIG    1       15.332 -16.100  17.093  0.00  0.00    +0.178 HD
ATOM     14  N   LIG    1       12.839 -16.092  19.129  0.00  0.00    -0.295 N 
ATOM     15  H   LIG    1       13.356 -16.443  19.924  0.00  0.00    +0.151 HD
BRANCH  14  16
ATOM     16  C   LIG    1       11.427 -15.812  19.370  0.00  0.00    +0.074 C 
ATOM     17  C   LIG    1       10.465 -16.579  18.461  0.00  0.00    +0.022 C 
ATOM     18  C   LIG    1       10.288 -15.966  17.077  0.00  0.00    +0.002 C 
ATOM     19  C   LIG    1       10.044 -14.457  17.102  0.00  0.00    +0.000 C 
ATOM     20  C   LIG    1       10.905 -13.657  18.076  0.00  0.00    +0.002 C 
ATOM     21  C   LIG    1       11.080 -14.323  19.435  0.00  0.00    +0.022 C 
ENDBRANCH  14  16
ENDBRANCH   7  12
ENDBRANCH   1   7
BRANCH   4  22
ATOM     22  C   LIG    1       21.087 -14.659  17.405  0.00  0.00    +0.054 C 
BRANCH  22  23
ATOM     23  C   LIG    1       22.046 -15.524  16.563  0.00  0.00    +0.121 C 
BRANCH  23  24
ATOM     24  N   LIG    1       23.179 -15.868  17.410  0.00  0.00    -0.237 N 
ATOM     25  C   LIG    1       23.557 -17.191  17.533  0.00  0.00    +0.232 C 
ATOM     26  O   LIG    1       22.755 -18.123  17.473  0.00  0.00    -0.274 OA
ATOM     27  C   LIG    1       25.077 -17.405  17.560  0.00  0.00    +0.067 C 
ATOM     28  C   LIG    1       25.492 -17.464  16.073  0.00  0.00    +0.025 C 
ATOM     29  C   LIG    1       25.382 -18.758  18.227  0.00  0.00    +0.025 C 
ATOM     30  C   LIG    1       25.817 -16.260  18.241  0.00  0.00    -0.021 A 
ATOM     31  C   LIG    1       27.203 -16.309  18.459  0.00  0.00    +0.009 A 
ATOM     32  C   LIG    1       27.883 -15.231  19.036  0.00  0.00    +0.046 A 
ATOM     33  C   LIG    1       27.193 -14.085  19.421  0.00  0.00    +0.121 A 
ATOM     34  C   LIG    1       25.818 -14.021  19.211  0.00  0.00    +0.059 A 
ATOM     35  C   LIG    1       25.139 -15.088  18.607  0.00  0.00    +0.045 A 
ATOM     36  C   LIG    1       23.732 -14.877  18.200  0.00  0.00    +0.253 C 
ATOM     37  O   LIG    1       23.148 -13.840  18.496  0.00  0.00    -0.270 OA
BRANCH  33  38
ATOM     38  O   LIG    1       27.737 -12.962  19.977  0.00  0.00    -0.495 OA
ATOM     39  C   LIG    1       28.845 -12.382  19.299  0.00  0.00    +0.277 C 
ENDBRANCH  33  38
ENDBRANCH  23  24
ENDBRANCH  22  23
ENDBRANCH   4  22
TORSDOF 7
ENDMDL
MODEL 3
REMARK VINA RESULT:     -10.3      2.152     12.108
REMARK  Name = 
REMARK                            x       y       z     vdW  Elec       q    Type
REMARK                         _______ _______ _______ _____ _____    ______ ____
ROOT
ATOM      1  C   LIG    1       19.295 -15.813  18.229  0.00  0.00    +0.109 A 
ATOM      2  C   LIG    1       18.519 -14.681  17.977  0.00  0.00    +0.029 A 
ATOM      3  C   LIG    1       17.130 -14.778  18.023  0.00  0.00    +0.005 A 
ATOM      4  C   LIG    1       16.520 -16.002  18.314  0.00  0.00    -0.046 A 
ATOM      5  C   LIG    1       17.323 -17.129  18.578  0.00  0.00    +0.005 A 
ATOM      6  C   LIG    1       18.709 -17.039  18.541  0.00  0.00    +0.029 A 
ENDROOT
BRANCH   1   7
ATOM      7  S   LIG    1       21.049 -15.727  18.038  0.00  0.00    +0.076 S 
ATOM      8  O   LIG    1       21.348 -15.236  16.712  0.00  0.00    -0.150 OA
ATOM      9  O   LIG    1       21.611 -15.102  19.215  0.00  0.00    -0.150 OA
BRANCH   7  12
ATOM     10  O   LIG    1       22.598 -19.179  18.174  0.00  0.00    -0.251 OA
ATOM     11  C   LIG    1       22.601 -17.968  18.315  0.00  0.00    +0.319 C 
ATOM     12  N   LIG    1       21.399 -17.332  18.087  0.00  0.00    -0.169 N 
ATOM     13  H   LIG    1       20.658 -17.971  17.813  0.00  0.00    +0.178 HD
ATOM     14  N   LIG    1       23.660 -17.203  18.682  0.00  0.00    -0.295 N 
ATOM     15  H   LIG    1       23.492 -16.210  18.762  0.00  0.00    +0.151 HD
BRANCH  14  16
ATOM     16  C   LIG    1       25.019 -17.639  18.992  0.00  0.00    +0.074 C 
ATOM     17  C   LIG    1       25.794 -16.693  19.911  0.00  0.00    +0.022 C 
ATOM     18  C   LIG    1       26.406 -15.493  19.202  0.00  0.00    +0.002 C 
ATOM     19  C   LIG    1       27.153 -15.855  17.917  0.00  0.00    +0.000 C 
ATOM     20  C   LIG    1       26.471 -16.882  17.015  0.00  0.00    +0.002 C 
ATOM     21  C   LIG    1       25.845 -18.047  17.771  0.00  0.00    +0.022 C 
ENDBRANCH  14  16
ENDBRANCH   7  12
ENDBRANCH   1   7
BRANCH   4  22
ATOM     22  C   LIG    1       15.031 -16.205  18.334  0.00  0.00    +0.054 C 
BRANCH  22  23
ATOM     23  C   LIG    1       14.213 -15.653  19.519  0.00  0.00    +0.121 C 
BRANCH  23  24
ATOM     24  N   LIG    1       13.335 -14.616  18.995  0.00  0.00    -0.237 N 
ATOM     25  C   LIG    1       12.296 -14.967  18.155  0.00  0.00    +0.232 C 
ATOM     26  O   LIG    1       12.357 -15.922  17.382  0.00  0.00    -0.274 OA
ATOM     27  C   LIG    1       11.000 -14.184  18.406  0.00  0.00    +0.067 C 
ATOM     28  C   LIG    1       10.290 -14.951  19.544  0.00  0.00    +0.025 C 
ATOM     29  C   LIG    1       10.129 -14.234  17.138  0.00  0.00    +0.025 C 
ATOM     30  C   LIG    1       11.260 -12.751  18.856  0.00  0.00    -0.021 A 
ATOM     31  C   LIG    1       10.209 -11.838  19.041  0.00  0.00    +0.009 A 
ATOM     32  C   LIG    1       10.452 -10.540  19.507  0.00  0.00    +0.046 A 
ATOM     33  C   LIG    1       11.750 -10.122  19.785  0.00  0.00    +0.121 A 
ATOM     34  C   LIG    1       12.803 -11.015  19.607  0.00  0.00    +0.059 A 
ATOM     35  C   LIG    1       12.559 -12.324  19.169  0.00  0.00    +0.045 A 
ATOM     36  C   LIG    1       13.676 -13.294  19.218  0.00  0.00    +0.253 C 
ATOM     37  O   LIG    1       14.806 -12.926  19.518  0.00  0.00    -0.270 OA
BRANCH  33  38
ATOM     38  O   LIG    1       12.119  -8.894  20.259  0.00  0.00    -0.495 OA
ATOM     39  C   LIG    1       12.762  -8.861  21.527  0.00  0.00    +0.277 C 
ENDBRANCH  33  38
ENDBRANCH  23  24
ENDBRANCH  22  23
ENDBRANCH   4  22
TORSDOF 7
ENDMDL
MODEL 4
REMARK VINA RESULT:     -10.1      2.659     12.227
REMARK  Name = 
REMARK                            x       y       z     vdW  Elec       q    Type
REMARK                         _______ _______ _______ _____ _____    ______ ____
ROOT
ATOM      1  C   LIG    1       22.101 -15.582  18.244  0.00  0.00    +0.109 A 
ATOM      2  C   LIG    1       21.264 -16.054  19.257  0.00  0.00    +0.029 A 
ATOM      3  C   LIG    1       19.898 -15.789  19.195  0.00  0.00    +0.005 A 
ATOM      4  C   LIG    1       19.372 -15.052  18.130  0.00  0.00    -0.046 A 
ATOM      5  C   LIG    1       20.232 -14.598  17.112  0.00  0.00    +0.005 A 
ATOM      6  C   LIG    1       21.596 -14.863  17.162  0.00  0.00    +0.029 A 
ENDROOT
BRANCH   1   7
ATOM      7  S   LIG    1       23.849 -15.797  18.387  0.00  0.00    +0.076 S 
ATOM      8  O   LIG    1       24.142 -16.362  19.686  0.00  0.00    -0.150 OA
ATOM      9  O   LIG    1       24.339 -16.410  17.173  0.00  0.00    -0.150 OA
BRANCH   7  12
ATOM     10  O   LIG    1       25.612 -12.453  18.591  0.00  0.00    -0.251 OA
ATOM     11  C   LIG    1       25.569 -13.666  18.488  0.00  0.00    +0.319 C 
ATOM     12  N   LIG    1       24.309 -14.219  18.395  0.00  0.00    -0.169 N 
ATOM     13  H   LIG    1       23.568 -13.526  18.437  0.00  0.00    +0.178 HD
ATOM     14  N   LIG    1       26.633 -14.510  18.446  0.00  0.00    -0.295 N 
ATOM     15  H   LIG    1       26.424 -15.493  18.350  0.00  0.00    +0.151 HD
BRANCH  14  16
ATOM     16  C   LIG    1       28.051 -14.169  18.510  0.00  0.00    +0.074 C 
ATOM     17  C   LIG    1       28.976 -15.358  18.777  0.00  0.00    +0.022 C 
ATOM     18  C   LIG    1       29.070 -15.761  20.243  0.00  0.00    +0.002 C 
ATOM     19  C   LIG    1       29.290 -14.582  21.191  0.00  0.00    +0.000 C 
ATOM     20  C   LIG    1       28.468 -13.328  20.899  0.00  0.00    +0.002 C 
ATOM     21  C   LIG    1       28.375 -12.982  19.418  0.00  0.00    +0.022 C 
ENDBRANCH  14  16
ENDBRANCH   7  12
ENDBRANCH   1   7
BRANCH   4  22
ATOM     22  C   LIG    1       17.920 -14.680  18.013  0.00  0.00    +0.054 C 
BRANCH  22  23
ATOM     23  C   LIG    1       16.957 -15.043  19.161  0.00  0.00    +0.121 C 
BRANCH  23  24
ATOM     24  N   LIG    1       15.636 -14.555  18.790  0.00  0.00    -0.237 N 
ATOM     25  C   LIG    1       14.856 -15.297  17.924  0.00  0.00    +0.232 C 
ATOM     26  O   LIG    1       15.333 -15.996  17.030  0.00  0.00    -0.274 OA
ATOM     27  C   LIG    1       13.367 -15.323  18.293  0.00  0.00    +0.067 C 
ATOM     28  C   LIG    1       13.237 -16.463  19.328  0.00  0.00    +0.025 C 
ATOM     29  C   LIG    1       12.545 -15.676  17.041  0.00  0.00    +0.025 C 
ATOM     30  C   LIG    1       12.897 -14.018  18.926  0.00  0.00    -0.021 A 
ATOM     31  C   LIG    1       11.547 -13.800  19.243  0.00  0.00    +0.009 A 
ATOM     32  C   LIG    1       11.134 -12.621  19.874  0.00  0.00    +0.046 A 
ATOM     33  C   LIG    1       12.057 -11.628  20.189  0.00  0.00    +0.121 A 
ATOM     34  C   LIG    1       13.400 -11.829  19.882  0.00  0.00    +0.059 A 
ATOM     35  C   LIG    1       13.820 -13.021  19.276  0.00  0.00    +0.045 A 
ATOM     36  C   LIG    1       15.274 -13.278  19.182  0.00  0.00    +0.253 C 
ATOM     37  O   LIG    1       16.081 -12.417  19.515  0.00  0.00    -0.270 OA
BRANCH  33  38
ATOM     38  O   LIG    1       11.788 -10.444  20.817  0.00  0.00    -0.495 OA
ATOM     39  C   LIG    1       12.639  -9.347  20.512  0.00  0.00    +0.277 C 
ENDBRANCH  33  38
ENDBRANCH  23  24
ENDBRANCH  22  23
ENDBRANCH   4  22
TORSDOF 7
ENDMDL
MODEL 5
REMARK VINA RESULT:     -10.0      2.324     11.684
REMARK  Name = 
REMARK                            x       y       z     vdW  Elec       q    Type
REMARK                         _______ _______ _______ _____ _____    ______ ____
ROOT
ATOM      1  C   LIG    1       20.900 -15.813  17.839  0.00  0.00    +0.109 A 
ATOM      2  C   LIG    1       19.935 -14.836  17.591  0.00  0.00    +0.029 A 
ATOM      3  C   LIG    1       18.624 -15.047  18.008  0.00  0.00    +0.005 A 
ATOM      4  C   LIG    1       18.276 -16.231  18.666  0.00  0.00    -0.046 A 
ATOM      5  C   LIG    1       19.269 -17.198  18.918  0.00  0.00    +0.005 A 
ATOM      6  C   LIG    1       20.581 -16.993  18.511  0.00  0.00    +0.029 A 
ENDROOT
BRANCH   1   7
ATOM      7  S   LIG    1       22.532 -15.611  17.193  0.00  0.00    +0.076 S 
ATOM      8  O   LIG    1       22.527 -15.988  15.797  0.00  0.00    -0.150 OA
ATOM      9  O   LIG    1       23.044 -14.330  17.623  0.00  0.00    -0.150 OA
BRANCH   7  12
ATOM     10  O   LIG    1       24.798 -17.749  19.344  0.00  0.00    -0.251 OA
ATOM     11  C   LIG    1       24.336 -16.693  18.949  0.00  0.00    +0.319 C 
ATOM     12  N   LIG    1       23.301 -16.790  18.043  0.00  0.00    -0.169 N 
ATOM     13  H   LIG    1       23.063 -17.750  17.812  0.00  0.00    +0.178 HD
ATOM     14  N   LIG    1       24.735 -15.450  19.321  0.00  0.00    -0.295 N 
ATOM     15  H   LIG    1       24.241 -14.675  18.903  0.00  0.00    +0.151 HD
BRANCH  14  16
ATOM     16  C   LIG    1       25.788 -15.091  20.267  0.00  0.00    +0.074 C 
ATOM     17  C   LIG    1       25.934 -13.589  20.512  0.00  0.00    +0.022 C 
ATOM     18  C   LIG    1       26.729 -12.853  19.441  0.00  0.00    +0.002 C 
ATOM     19  C   LIG    1       28.039 -13.547  19.066  0.00  0.00    +0.000 C 
ATOM     20  C   LIG    1       27.971 -15.066  18.916  0.00  0.00    +0.002 C 
ATOM     21  C   LIG    1       27.138 -15.754  19.991  0.00  0.00    +0.022 C 
ENDBRANCH  14  16
ENDBRANCH   7  12
ENDBRANCH   1   7
BRANCH   4  22
ATOM     22  C   LIG    1       16.876 -16.559  19.104  0.00  0.00    +0.054 C 
BRANCH  22  23
ATOM     23  C   LIG    1       16.132 -15.582  20.036  0.00  0.00    +0.121 C 
BRANCH  23  24
ATOM     24  N   LIG    1       15.126 -14.899  19.235  0.00  0.00    -0.237 N 
ATOM     25  C   LIG    1       14.372 -15.622  18.331  0.00  0.00    +0.232 C 
ATOM     26  O   LIG    1       14.807 -16.610  17.741  0.00  0.00    -0.274 OA
ATOM     27  C   LIG    1       12.897 -15.202  18.273  0.00  0.00    +0.067 C 
ATOM     28  C   LIG    1       12.217 -15.992  19.414  0.00  0.00    +0.025 C 
ATOM     29  C   LIG    1       12.302 -15.645  16.924  0.00  0.00    +0.025 C 
ATOM     30  C   LIG    1       12.703 -13.709  18.513  0.00  0.00    -0.021 A 
ATOM     31  C   LIG    1       11.440 -13.106  18.401  0.00  0.00    +0.009 A 
ATOM     32  C   LIG    1       11.262 -11.746  18.677  0.00  0.00    +0.046 A 
ATOM     33  C   LIG    1       12.343 -10.955  19.056  0.00  0.00    +0.121 A 
ATOM     34  C   LIG    1       13.602 -11.538  19.171  0.00  0.00    +0.059 A 
ATOM     35  C   LIG    1       13.778 -12.907  18.924  0.00  0.00    +0.045 A 
ATOM     36  C   LIG    1       15.077 -13.517  19.283  0.00  0.00    +0.253 C 
ATOM     37  O   LIG    1       16.007 -12.818  19.669  0.00  0.00    -0.270 OA
BRANCH  33  38
ATOM     38  O   LIG    1       12.301  -9.625  19.368  0.00  0.00    -0.495 OA
ATOM     39  C   LIG    1       12.680  -8.713  18.345  0.00  0.00    +0.277 C 
ENDBRANCH  33  38
ENDBRANCH  23  24
ENDBRANCH  22  23
ENDBRANCH   4  22
TORSDOF 7
ENDMDL
MODEL 6
REMARK VINA RESULT:     -10.0      2.155     12.076
REMARK  Name = 
REMARK                            x       y       z     vdW  Elec       q    Type
REMARK                         _______ _______ _______ _____ _____    ______ ____
ROOT
ATOM      1  C   LIG    1       19.283 -15.764  18.344  0.00  0.00    +0.109 A 
ATOM      2  C   LIG    1       18.725 -17.009  18.638  0.00  0.00    +0.029 A 
ATOM      3  C   LIG    1       17.342 -17.165  18.601  0.00  0.00    +0.005 A 
ATOM      4  C   LIG    1       16.519 -16.081  18.277  0.00  0.00    -0.046 A 
ATOM      5  C   LIG    1       17.105 -14.838  17.971  0.00  0.00    +0.005 A 
ATOM      6  C   LIG    1       18.485 -14.675  17.998  0.00  0.00    +0.029 A 
ENDROOT
BRANCH   1   7
ATOM      7  S   LIG    1       21.025 -15.526  18.522  0.00  0.00    +0.076 S 
ATOM      8  O   LIG    1       21.339 -14.150  18.209  0.00  0.00    -0.150 OA
ATOM      9  O   LIG    1       21.447 -16.127  19.767  0.00  0.00    -0.150 OA
BRANCH   7  12
ATOM     10  O   LIG    1       22.909 -17.321  15.773  0.00  0.00    -0.251 OA
ATOM     11  C   LIG    1       22.822 -16.645  16.783  0.00  0.00    +0.319 C 
ATOM     12  N   LIG    1       21.549 -16.471  17.284  0.00  0.00    -0.169 N 
ATOM     13  H   LIG    1       20.836 -16.931  16.726  0.00  0.00    +0.178 HD
ATOM     14  N   LIG    1       23.849 -16.065  17.455  0.00  0.00    -0.295 N 
ATOM     15  H   LIG    1       23.607 -15.541  18.284  0.00  0.00    +0.151 HD
BRANCH  14  16
ATOM     16  C   LIG    1       25.273 -16.117  17.136  0.00  0.00    +0.074 C 
ATOM     17  C   LIG    1       25.956 -17.436  17.499  0.00  0.00    +0.022 C 
ATOM     18  C   LIG    1       26.344 -17.557  18.967  0.00  0.00    +0.002 C 
ATOM     19  C   LIG    1       27.056 -16.321  19.518  0.00  0.00    +0.000 C 
ATOM     20  C   LIG    1       26.476 -14.972  19.093  0.00  0.00    +0.002 C 
ATOM     21  C   LIG    1       26.074 -14.909  17.626  0.00  0.00    +0.022 C 
ENDBRANCH  14  16
ENDBRANCH   7  12
ENDBRANCH   1   7
BRANCH   4  22
ATOM     22  C   LIG    1       15.018 -16.151  18.263  0.00  0.00    +0.054 C 
BRANCH  22  23
ATOM     23  C   LIG    1       14.229 -15.611  19.472  0.00  0.00    +0.121 C 
BRANCH  23  24
ATOM     24  N   LIG    1       13.369 -14.540  18.987  0.00  0.00    -0.237 N 
ATOM     25  C   LIG    1       12.291 -14.850  18.179  0.00  0.00    +0.232 C 
ATOM     26  O   LIG    1       12.295 -15.800  17.397  0.00  0.00    -0.274 OA
ATOM     27  C   LIG    1       11.031 -14.027  18.480  0.00  0.00    +0.067 C 
ATOM     28  C   LIG    1       10.334 -14.781  19.634  0.00  0.00    +0.025 C 
ATOM     29  C   LIG    1       10.117 -14.037  17.241  0.00  0.00    +0.025 C 
ATOM     30  C   LIG    1       11.353 -12.607  18.932  0.00  0.00    -0.021 A 
ATOM     31  C   LIG    1       10.340 -11.662  19.159  0.00  0.00    +0.009 A 
ATOM     32  C   LIG    1       10.641 -10.378  19.627  0.00  0.00    +0.046 A 
ATOM     33  C   LIG    1       11.960 -10.004  19.865  0.00  0.00    +0.121 A 
ATOM     34  C   LIG    1       12.976 -10.930  19.645  0.00  0.00    +0.059 A 
ATOM     35  C   LIG    1       12.675 -12.226  19.204  0.00  0.00    +0.045 A 
ATOM     36  C   LIG    1       13.760 -13.232  19.208  0.00  0.00    +0.253 C 
ATOM     37  O   LIG    1       14.912 -12.905  19.474  0.00  0.00    -0.270 OA
BRANCH  33  38
ATOM     38  O   LIG    1       12.385  -8.794  20.335  0.00  0.00    -0.495 OA
ATOM     39  C   LIG    1       12.719  -8.722  21.715  0.00  0.00    +0.277 C 
ENDBRANCH  33  38
ENDBRANCH  23  24
ENDBRANCH  22  23
ENDBRANCH   4  22
TORSDOF 7
ENDMDL
MODEL 7
REMARK VINA RESULT:      -9.8      2.724     11.958
REMARK  Name = 
REMARK                            x       y       z     vdW  Elec       q    Type
REMARK                         _______ _______ _______ _____ _____    ______ ____
ROOT
ATOM      1  C   LIG    1       21.767 -16.231  17.290  0.00  0.00    +0.109 A 
ATOM      2  C   LIG    1       21.361 -14.957  16.892  0.00  0.00    +0.029 A 
ATOM      3  C   LIG    1       20.087 -14.507  17.228  0.00  0.00    +0.005 A 
ATOM      4  C   LIG    1       19.219 -15.329  17.954  0.00  0.00    -0.046 A 
ATOM      5  C   LIG    1       19.654 -16.607  18.357  0.00  0.00    +0.005 A 
ATOM      6  C   LIG    1       20.926 -17.061  18.032  0.00  0.00    +0.029 A 
ENDROOT
BRANCH   1   7
ATOM      7  S   LIG    1       23.328 -16.858  16.751  0.00  0.00    +0.076 S 
ATOM      8  O   LIG    1       23.097 -17.957  15.841  0.00  0.00    -0.150 OA
ATOM      9  O   LIG    1       24.170 -15.742  16.382  0.00  0.00    -0.150 OA
BRANCH   7  12
ATOM     10  O   LIG    1       24.985 -17.600  20.073  0.00  0.00    -0.251 OA
ATOM     11  C   LIG    1       24.614 -16.870  19.171  0.00  0.00    +0.319 C 
ATOM     12  N   LIG    1       23.873 -17.471  18.175  0.00  0.00    -0.169 N 
ATOM     13  H   LIG    1       23.742 -18.467  18.324  0.00  0.00    +0.178 HD
ATOM     14  N   LIG    1       24.851 -15.538  19.063  0.00  0.00    -0.295 N 
ATOM     15  H   LIG    1       24.464 -15.075  18.253  0.00  0.00    +0.151 HD
BRANCH  14  16
ATOM     16  C   LIG    1       25.588 -14.680  19.986  0.00  0.00    +0.074 C 
ATOM     17  C   LIG    1       25.400 -13.181  19.746  0.00  0.00    +0.022 C 
ATOM     18  C   LIG    1       26.262 -12.613  18.626  0.00  0.00    +0.002 C 
ATOM     19  C   LIG    1       27.727 -13.048  18.699  0.00  0.00    +0.000 C 
ATOM     20  C   LIG    1       27.971 -14.515  19.046  0.00  0.00    +0.002 C 
ATOM     21  C   LIG    1       27.064 -15.048  20.148  0.00  0.00    +0.022 C 
ENDBRANCH  14  16
ENDBRANCH   7  12
ENDBRANCH   1   7
BRANCH   4  22
ATOM     22  C   LIG    1       17.812 -14.941  18.313  0.00  0.00    +0.054 C 
BRANCH  22  23
ATOM     23  C   LIG    1       17.003 -15.845  19.264  0.00  0.00    +0.121 C 
BRANCH  23  24
ATOM     24  N   LIG    1       15.685 -15.244  19.418  0.00  0.00    -0.237 N 
ATOM     25  C   LIG    1       15.578 -13.875  19.572  0.00  0.00    +0.232 C 
ATOM     26  O   LIG    1       16.438 -13.198  20.133  0.00  0.00    -0.274 OA
ATOM     27  C   LIG    1       14.393 -13.255  18.820  0.00  0.00    +0.067 C 
ATOM     28  C   LIG    1       14.918 -13.015  17.387  0.00  0.00    +0.025 C 
ATOM     29  C   LIG    1       14.040 -11.903  19.465  0.00  0.00    +0.025 C 
ATOM     30  C   LIG    1       13.186 -14.184  18.761  0.00  0.00    -0.021 A 
ATOM     31  C   LIG    1       11.965 -13.767  18.205  0.00  0.00    +0.009 A 
ATOM     32  C   LIG    1       10.879 -14.644  18.105  0.00  0.00    +0.046 A 
ATOM     33  C   LIG    1       10.983 -15.952  18.571  0.00  0.00    +0.121 A 
ATOM     34  C   LIG    1       12.186 -16.381  19.124  0.00  0.00    +0.059 A 
ATOM     35  C   LIG    1       13.285 -15.513  19.198  0.00  0.00    +0.045 A 
ATOM     36  C   LIG    1       14.597 -16.082  19.579  0.00  0.00    +0.253 C 
ATOM     37  O   LIG    1       14.688 -17.252  19.935  0.00  0.00    -0.270 OA
BRANCH  33  38
ATOM     38  O   LIG    1       10.008 -16.908  18.518  0.00  0.00    -0.495 OA
ATOM     39  C   LIG    1        9.643 -17.523  19.747  0.00  0.00    +0.277 C 
ENDBRANCH  33  38
ENDBRANCH  23  24
ENDBRANCH  22  23
ENDBRANCH   4  22
TORSDOF 7
ENDMDL
MODEL 8
REMARK VINA RESULT:      -9.6      2.185     12.110
REMARK  Name = 
REMARK                            x       y       z     vdW  Elec       q    Type
REMARK                         _______ _______ _______ _____ _____    ______ ____
ROOT
ATOM      1  C   LIG    1       19.159 -16.471  18.727  0.00  0.00    +0.109 A 
ATOM      2  C   LIG    1       18.404 -17.634  18.887  0.00  0.00    +0.029 A 
ATOM      3  C   LIG    1       17.016 -17.568  18.793  0.00  0.00    +0.005 A 
ATOM      4  C   LIG    1       16.385 -16.344  18.546  0.00  0.00    -0.046 A 
ATOM      5  C   LIG    1       17.167 -15.186  18.375  0.00  0.00    +0.005 A 
ATOM      6  C   LIG    1       18.553 -15.244  18.460  0.00  0.00    +0.029 A 
ENDROOT
BRANCH   1   7
ATOM      7  S   LIG    1       20.907 -16.524  18.981  0.00  0.00    +0.076 S 
ATOM      8  O   LIG    1       21.189 -16.135  20.344  0.00  0.00    -0.150 OA
ATOM      9  O   LIG    1       21.415 -17.761  18.432  0.00  0.00    -0.150 OA
BRANCH   7  12
ATOM     10  O   LIG    1       22.590 -13.681  17.132  0.00  0.00    -0.251 OA
ATOM     11  C   LIG    1       22.569 -14.649  17.872  0.00  0.00    +0.319 C 
ATOM     12  N   LIG    1       21.355 -15.293  17.988  0.00  0.00    -0.169 N 
ATOM     13  H   LIG    1       20.620 -14.858  17.438  0.00  0.00    +0.178 HD
ATOM     14  N   LIG    1       23.618 -15.149  18.573  0.00  0.00    -0.295 N 
ATOM     15  H   LIG    1       23.434 -15.967  19.137  0.00  0.00    +0.151 HD
BRANCH  14  16
ATOM     16  C   LIG    1       24.993 -14.659  18.603  0.00  0.00    +0.074 C 
ATOM     17  C   LIG    1       25.855 -15.118  17.426  0.00  0.00    +0.022 C 
ATOM     18  C   LIG    1       26.418 -16.525  17.573  0.00  0.00    +0.002 C 
ATOM     19  C   LIG    1       27.048 -16.794  18.940  0.00  0.00    +0.000 C 
ATOM     20  C   LIG    1       26.278 -16.258  20.146  0.00  0.00    +0.002 C 
ATOM     21  C   LIG    1       25.707 -14.861  19.941  0.00  0.00    +0.022 C 
ENDBRANCH  14  16
ENDBRANCH   7  12
ENDBRANCH   1   7
BRANCH   4  22
ATOM     22  C   LIG    1       14.892 -16.178  18.480  0.00  0.00    +0.054 C 
BRANCH  22  23
ATOM     23  C   LIG    1       14.271 -15.441  17.276  0.00  0.00    +0.121 C 
BRANCH  23  24
ATOM     24  N   LIG    1       13.056 -14.791  17.745  0.00  0.00    -0.237 N 
ATOM     25  C   LIG    1       11.829 -15.364  17.470  0.00  0.00    +0.232 C 
ATOM     26  O   LIG    1       11.613 -16.017  16.449  0.00  0.00    -0.274 OA
ATOM     27  C   LIG    1       10.827 -15.279  18.629  0.00  0.00    +0.067 C 
ATOM     28  C   LIG    1       11.153 -16.496  19.523  0.00  0.00    +0.025 C 
ATOM     29  C   LIG    1        9.400 -15.426  18.070  0.00  0.00    +0.025 C 
ATOM     30  C   LIG    1       10.984 -14.001  19.445  0.00  0.00    -0.021 A 
ATOM     31  C   LIG    1       10.098 -13.683  20.487  0.00  0.00    +0.009 A 
ATOM     32  C   LIG    1       10.282 -12.535  21.267  0.00  0.00    +0.046 A 
ATOM     33  C   LIG    1       11.346 -11.674  21.016  0.00  0.00    +0.121 A 
ATOM     34  C   LIG    1       12.233 -11.976  19.986  0.00  0.00    +0.059 A 
ATOM     35  C   LIG    1       12.068 -13.139  19.222  0.00  0.00    +0.045 A 
ATOM     36  C   LIG    1       13.160 -13.529  18.302  0.00  0.00    +0.253 C 
ATOM     37  O   LIG    1       14.121 -12.788  18.129  0.00  0.00    -0.270 OA
BRANCH  33  38
ATOM     38  O   LIG    1       11.646 -10.536  21.710  0.00  0.00    -0.495 OA
ATOM     39  C   LIG    1       10.555  -9.699  22.074  0.00  0.00    +0.277 C 
ENDBRANCH  33  38
ENDBRANCH  23  24
ENDBRANCH  22  23
ENDBRANCH   4  22
TORSDOF 7
ENDMDL
MODEL 9
REMARK VINA RESULT:      -9.3      3.077     12.270
REMARK  Name = 
REMARK                            x       y       z     vdW  Elec       q    Type
REMARK                         _______ _______ _______ _____ _____    ______ ____
ROOT
ATOM      1  C   LIG    1       22.638 -16.442  18.240  0.00  0.00    +0.109 A 
ATOM      2  C   LIG    1       21.964 -17.574  18.700  0.00  0.00    +0.029 A 
ATOM      3  C   LIG    1       20.576 -17.630  18.606  0.00  0.00    +0.005 A 
ATOM      4  C   LIG    1       19.863 -16.557  18.061  0.00  0.00    -0.046 A 
ATOM      5  C   LIG    1       20.565 -15.430  17.590  0.00  0.00    +0.005 A 
ATOM      6  C   LIG    1       21.950 -15.369  17.673  0.00  0.00    +0.029 A 
ENDROOT
BRANCH   1   7
ATOM      7  S   LIG    1       24.383 -16.308  18.480  0.00  0.00    +0.076 S 
ATOM      8  O   LIG    1       24.704 -16.768  19.813  0.00  0.00    -0.150 OA
ATOM      9  O   LIG    1       25.051 -16.849  17.318  0.00  0.00    -0.150 OA
BRANCH   7  12
ATOM     10  O   LIG    1       25.452 -12.680  18.650  0.00  0.00    -0.251 OA
ATOM     11  C   LIG    1       25.650 -13.881  18.596  0.00  0.00    +0.319 C 
ATOM     12  N   LIG    1       24.530 -14.671  18.449  0.00  0.00    -0.169 N 
ATOM     13  H   LIG    1       23.668 -14.135  18.416  0.00  0.00    +0.178 HD
ATOM     14  N   LIG    1       26.856 -14.502  18.655  0.00  0.00    -0.295 N 
ATOM     15  H   LIG    1       26.848 -15.510  18.588  0.00  0.00    +0.151 HD
BRANCH  14  16
ATOM     16  C   LIG    1       28.175 -13.891  18.792  0.00  0.00    +0.074 C 
ATOM     17  C   LIG    1       29.334 -14.887  18.832  0.00  0.00    +0.022 C 
ATOM     18  C   LIG    1       29.560 -15.531  20.194  0.00  0.00    +0.002 C 
ATOM     19  C   LIG    1       29.564 -14.531  21.352  0.00  0.00    +0.000 C 
ATOM     20  C   LIG    1       28.490 -13.446  21.300  0.00  0.00    +0.002 C 
ATOM     21  C   LIG    1       28.278 -12.855  19.912  0.00  0.00    +0.022 C 
ENDBRANCH  14  16
ENDBRANCH   7  12
ENDBRANCH   1   7
BRANCH   4  22
ATOM     22  C   LIG    1       18.363 -16.515  17.969  0.00  0.00    +0.054 C 
BRANCH  22  23
ATOM     23  C   LIG    1       17.525 -17.245  19.037  0.00  0.00    +0.121 C 
BRANCH  23  24
ATOM     24  N   LIG    1       16.385 -16.394  19.351  0.00  0.00    -0.237 N 
ATOM     25  C   LIG    1       16.583 -15.040  19.545  0.00  0.00    +0.232 C 
ATOM     26  O   LIG    1       17.620 -14.579  20.020  0.00  0.00    -0.274 OA
ATOM     27  C   LIG    1       15.481 -14.158  18.943  0.00  0.00    +0.067 C 
ATOM     28  C   LIG    1       15.891 -13.967  17.466  0.00  0.00    +0.025 C 
ATOM     29  C   LIG    1       15.488 -12.792  19.653  0.00  0.00    +0.025 C 
ATOM     30  C   LIG    1       14.107 -14.816  19.000  0.00  0.00    -0.021 A 
ATOM     31  C   LIG    1       12.949 -14.133  18.594  0.00  0.00    +0.009 A 
ATOM     32  C   LIG    1       11.699 -14.764  18.598  0.00  0.00    +0.046 A 
ATOM     33  C   LIG    1       11.576 -16.084  19.021  0.00  0.00    +0.121 A 
ATOM     34  C   LIG    1       12.715 -16.775  19.426  0.00  0.00    +0.059 A 
ATOM     35  C   LIG    1       13.972 -16.155  19.396  0.00  0.00    +0.045 A 
ATOM     36  C   LIG    1       15.169 -16.997  19.614  0.00  0.00    +0.253 C 
ATOM     37  O   LIG    1       15.051 -18.175  19.933  0.00  0.00    -0.270 OA
BRANCH  33  38
ATOM     38  O   LIG    1       10.423 -16.817  19.057  0.00  0.00    -0.495 OA
ATOM     39  C   LIG    1        9.400 -16.451  18.140  0.00  0.00    +0.277 C 
ENDBRANCH  33  38
ENDBRANCH  23  24
ENDBRANCH  22  23
ENDBRANCH   4  22
TORSDOF 7
ENDMDL
