MODEL 1
REMARK VINA RESULT:      -9.2      0.000      0.000
REMARK  Name = 
REMARK                            x       y       z     vdW  Elec       q    Type
REMARK                         _______ _______ _______ _____ _____    ______ ____
ROOT
ATOM      1  C   LIG    1        7.661   5.403  -6.222  0.00  0.00    +0.109 A 
ATOM      2  C   LIG    1        6.478   5.139  -5.531  0.00  0.00    +0.029 A 
ATOM      3  C   LIG    1        5.404   6.017  -5.650  0.00  0.00    +0.005 A 
ATOM      4  C   LIG    1        5.514   7.158  -6.452  0.00  0.00    -0.046 A 
ATOM      5  C   LIG    1        6.713   7.398  -7.151  0.00  0.00    +0.005 A 
ATOM      6  C   LIG    1        7.787   6.523  -7.043  0.00  0.00    +0.029 A 
ENDROOT
BRANCH   1   7
ATOM      7  S   LIG    1        9.070   4.367  -5.967  0.00  0.00    +0.076 S 
ATOM      8  O   LIG    1        9.011   3.267  -6.904  0.00  0.00    -0.150 OA
ATOM      9  O   LIG    1       10.245   5.203  -5.864  0.00  0.00    -0.150 OA
BRANCH   7  12
ATOM     10  O   LIG    1        8.839   2.560  -2.649  0.00  0.00    -0.251 OA
ATOM     11  C   LIG    1        9.401   2.907  -3.672  0.00  0.00    +0.319 C 
ATOM     12  N   LIG    1        8.708   3.793  -4.470  0.00  0.00    -0.169 N 
ATOM     13  H   LIG    1        7.795   4.034  -4.096  0.00  0.00    +0.178 HD
ATOM     14  N   LIG    1       10.634   2.516  -4.087  0.00  0.00    -0.295 N 
ATOM     15  H   LIG    1       10.959   2.905  -4.960  0.00  0.00    +0.151 HD
BRANCH  14  16
ATOM     16  C   LIG    1       11.560   1.609  -3.416  0.00  0.00    +0.074 C 
ATOM     17  C   LIG    1       12.407   2.262  -2.323  0.00  0.00    +0.022 C 
ATOM     18  C   LIG    1       13.622   3.020  -2.842  0.00  0.00    +0.002 C 
ATOM     19  C   LIG    1       14.439   2.239  -3.872  0.00  0.00    +0.000 C 
ATOM     20  C   LIG    1       13.634   1.477  -4.923  0.00  0.00    +0.002 C 
ATOM     21  C   LIG    1       12.411   0.761  -4.364  0.00  0.00    +0.022 C 
ENDBRANCH  14  16
ENDBRANCH   7  12
ENDBRANCH   1   7
BRANCH   4  22
ATOM     22  C   LIG    1        4.423   8.182  -6.595  0.00  0.00    +0.054 C 
BRANCH  22  23
ATOM     23  C   LIG    1        3.049   7.912  -5.948  0.00  0.00    +0.121 C 
BRANCH  23  24
ATOM     24  N   LIG    1        3.088   8.465  -4.602  0.00  0.00    -0.237 N 
ATOM     25  C   LIG    1        2.995   7.614  -3.516  0.00  0.00    +0.232 C 
ATOM     26  O   LIG    1        2.351   6.566  -3.544  0.00  0.00    -0.274 OA
ATOM     27  C   LIG    1        3.916   7.993  -2.348  0.00  0.00    +0.067 C 
ATOM     28  C   LIG    1        5.276   7.346  -2.692  0.00  0.00    +0.025 C 
ATOM     29  C   LIG    1        3.367   7.367  -1.053  0.00  0.00    +0.025 C 
ATOM     30  C   LIG    1        4.099   9.500  -2.212  0.00  0.00    -0.021 A 
ATOM     31  C   LIG    1        4.822  10.058  -1.146  0.00  0.00    +0.009 A 
ATOM     32  C   LIG    1        5.032  11.439  -1.059  0.00  0.00    +0.046 A 
ATOM     33  C   LIG    1        4.513  12.295  -2.027  0.00  0.00    +0.121 A 
ATOM     34  C   LIG    1        3.794  11.757  -3.091  0.00  0.00    +0.059 A 
ATOM     35  C   LIG    1        3.608  10.372  -3.196  0.00  0.00    +0.045 A 
ATOM     36  C   LIG    1        3.041   9.839  -4.455  0.00  0.00    +0.253 C 
ATOM     37  O   LIG    1        2.637  10.601  -5.326  0.00  0.00    -0.270 OA
BRANCH  33  38
ATOM     38  O   LIG    1        4.660  13.653  -2.067  0.00  0.00    -0.495 OA
ATOM     39  C   LIG    1        5.243  14.270  -0.927  0.00  0.00    +0.277 C 
ENDBRANCH  33  38
ENDBRANCH  23  24
ENDBRANCH  22  23
ENDBRANCH   4  22
TORSDOF 7
ENDMDL
MODEL 2
REMARK VINA RESULT:      -9.0      4.763      6.486
REMARK  Name = 
REMARK                            x       y       z     vdW  Elec       q    Type
REMARK                         _______ _______ _______ _____ _____    ______ ____
ROOT
ATOM      1  C   LIG    1        8.470  10.625  -7.615  0.00  0.00    +0.109 A 
ATOM      2  C   LIG    1        7.455   9.686  -7.426  0.00  0.00    +0.029 A 
ATOM      3  C   LIG    1        6.527   9.876  -6.405  0.00  0.00    +0.005 A 
ATOM      4  C   LIG    1        6.616  10.997  -5.573  0.00  0.00    -0.046 A 
ATOM      5  C   LIG    1        7.640  11.939  -5.791  0.00  0.00    +0.005 A 
ATOM      6  C   LIG    1        8.566  11.760  -6.811  0.00  0.00    +0.029 A 
ENDROOT
BRANCH   1   7
ATOM      7  S   LIG    1        9.727  10.320  -8.818  0.00  0.00    +0.076 S 
ATOM      8  O   LIG    1        9.111  10.244 -10.124  0.00  0.00    -0.150 OA
ATOM      9  O   LIG    1       10.837  11.210  -8.562  0.00  0.00    -0.150 OA
BRANCH   7  12
ATOM     10  O   LIG    1       10.524   6.632  -8.503  0.00  0.00    -0.251 OA
ATOM     11  C   LIG    1       10.303   7.658  -9.122  0.00  0.00    +0.319 C 
ATOM     12  N   LIG    1       10.164   8.801  -8.364  0.00  0.00    -0.169 N 
ATOM     13  H   LIG    1       10.256   8.631  -7.367  0.00  0.00    +0.178 HD
ATOM     14  N   LIG    1       10.192   7.777 -10.470  0.00  0.00    -0.295 N 
ATOM     15  H   LIG    1       10.014   8.705 -10.827  0.00  0.00    +0.151 HD
BRANCH  14  16
ATOM     16  C   LIG    1       10.314   6.727 -11.477  0.00  0.00    +0.074 C 
ATOM     17  C   LIG    1       11.733   6.187 -11.661  0.00  0.00    +0.022 C 
ATOM     18  C   LIG    1       12.623   7.052 -12.544  0.00  0.00    +0.002 C 
ATOM     19  C   LIG    1       11.955   7.488 -13.848  0.00  0.00    +0.000 C 
ATOM     20  C   LIG    1       10.498   7.933 -13.735  0.00  0.00    +0.002 C 
ATOM     21  C   LIG    1        9.655   7.058 -12.817  0.00  0.00    +0.022 C 
ENDBRANCH  14  16
ENDBRANCH   7  12
ENDBRANCH   1   7
BRANCH   4  22
ATOM     22  C   LIG    1        5.687  11.252  -4.419  0.00  0.00    +0.054 C 
BRANCH  22  23
ATOM     23  C   LIG    1        4.174  11.378  -4.686  0.00  0.00    +0.121 C 
BRANCH  23  24
ATOM     24  N   LIG    1        3.572  10.085  -4.391  0.00  0.00    -0.237 N 
ATOM     25  C   LIG    1        3.148   9.281  -5.432  0.00  0.00    +0.232 C 
ATOM     26  O   LIG    1        2.719   9.735  -6.493  0.00  0.00    -0.274 OA
ATOM     27  C   LIG    1        3.436   7.788  -5.223  0.00  0.00    +0.067 C 
ATOM     28  C   LIG    1        4.888   7.595  -5.715  0.00  0.00    +0.025 C 
ATOM     29  C   LIG    1        2.486   6.965  -6.111  0.00  0.00    +0.025 C 
ATOM     30  C   LIG    1        3.344   7.373  -3.760  0.00  0.00    -0.021 A 
ATOM     31  C   LIG    1        3.474   6.031  -3.368  0.00  0.00    +0.009 A 
ATOM     32  C   LIG    1        3.443   5.666  -2.017  0.00  0.00    +0.046 A 
ATOM     33  C   LIG    1        3.268   6.630  -1.029  0.00  0.00    +0.121 A 
ATOM     34  C   LIG    1        3.138   7.966  -1.401  0.00  0.00    +0.059 A 
ATOM     35  C   LIG    1        3.198   8.337  -2.751  0.00  0.00    +0.045 A 
ATOM     36  C   LIG    1        3.287   9.779  -3.073  0.00  0.00    +0.253 C 
ATOM     37  O   LIG    1        3.187  10.621  -2.187  0.00  0.00    -0.270 OA
BRANCH  33  38
ATOM     38  O   LIG    1        3.236   6.409   0.319  0.00  0.00    -0.495 OA
ATOM     39  C   LIG    1        2.246   7.109   1.062  0.00  0.00    +0.277 C 
ENDBRANCH  33  38
ENDBRANCH  23  24
ENDBRANCH  22  23
ENDBRANCH   4  22
TORSDOF 7
ENDMDL
MODEL 3
REMARK VINA RESULT:      -8.8      4.341      6.261
REMARK  Name = 
REMARK                            x       y       z     vdW  Elec       q    Type
REMARK                         _______ _______ _______ _____ _____    ______ ____
ROOT
ATOM      1  C   LIG    1        8.054   8.378  -7.762  0.00  0.00    +0.109 A 
ATOM      2  C   LIG    1        7.059   9.179  -7.200  0.00  0.00    +0.029 A 
ATOM      3  C   LIG    1        5.981   8.580  -6.554  0.00  0.00    +0.005 A 
ATOM      4  C   LIG    1        5.894   7.186  -6.474  0.00  0.00    -0.046 A 
ATOM      5  C   LIG    1        6.916   6.397  -7.036  0.00  0.00    +0.005 A 
ATOM      6  C   LIG    1        7.999   6.987  -7.677  0.00  0.00    +0.029 A 
ENDROOT
BRANCH   1   7
ATOM      7  S   LIG    1        9.351   9.127  -8.700  0.00  0.00    +0.076 S 
ATOM      8  O   LIG    1        8.761   9.912  -9.761  0.00  0.00    -0.150 OA
ATOM      9  O   LIG    1       10.310   9.702  -7.783  0.00  0.00    -0.150 OA
BRANCH   7  12
ATOM     10  O   LIG    1       10.631   6.327 -10.903  0.00  0.00    -0.251 OA
ATOM     11  C   LIG    1       10.232   7.457 -10.686  0.00  0.00    +0.319 C 
ATOM     12  N   LIG    1       10.012   7.776  -9.363  0.00  0.00    -0.169 N 
ATOM     13  H   LIG    1       10.206   7.004  -8.731  0.00  0.00    +0.178 HD
ATOM     14  N   LIG    1        9.997   8.420 -11.614  0.00  0.00    -0.295 N 
ATOM     15  H   LIG    1        9.674   9.312 -11.266  0.00  0.00    +0.151 HD
BRANCH  14  16
ATOM     16  C   LIG    1       10.168   8.333 -13.061  0.00  0.00    +0.074 C 
ATOM     17  C   LIG    1       11.623   8.255 -13.524  0.00  0.00    +0.022 C 
ATOM     18  C   LIG    1       12.334   9.601 -13.583  0.00  0.00    +0.002 C 
ATOM     19  C   LIG    1       11.522  10.694 -14.279  0.00  0.00    +0.000 C 
ATOM     20  C   LIG    1       10.035  10.743 -13.934  0.00  0.00    +0.002 C 
ATOM     21  C   LIG    1        9.375   9.373 -13.855  0.00  0.00    +0.022 C 
ENDBRANCH  14  16
ENDBRANCH   7  12
ENDBRANCH   1   7
BRANCH   4  22
ATOM     22  C   LIG    1        4.741   6.460  -5.839  0.00  0.00    +0.054 C 
BRANCH  22  23
ATOM     23  C   LIG    1        3.347   7.118  -5.841  0.00  0.00    +0.121 C 
BRANCH  23  24
ATOM     24  N   LIG    1        3.192   7.812  -4.570  0.00  0.00    -0.237 N 
ATOM     25  C   LIG    1        2.935   7.082  -3.425  0.00  0.00    +0.232 C 
ATOM     26  O   LIG    1        2.292   6.033  -3.434  0.00  0.00    -0.274 OA
ATOM     27  C   LIG    1        3.678   7.590  -2.182  0.00  0.00    +0.067 C 
ATOM     28  C   LIG    1        5.068   6.919  -2.252  0.00  0.00    +0.025 C 
ATOM     29  C   LIG    1        2.941   7.102  -0.922  0.00  0.00    +0.025 C 
ATOM     30  C   LIG    1        3.853   9.105  -2.183  0.00  0.00    -0.021 A 
ATOM     31  C   LIG    1        4.417   9.779  -1.088  0.00  0.00    +0.009 A 
ATOM     32  C   LIG    1        4.624  11.163  -1.119  0.00  0.00    +0.046 A 
ATOM     33  C   LIG    1        4.260  11.905  -2.239  0.00  0.00    +0.121 A 
ATOM     34  C   LIG    1        3.699  11.252  -3.332  0.00  0.00    +0.059 A 
ATOM     35  C   LIG    1        3.518   9.862  -3.315  0.00  0.00    +0.045 A 
ATOM     36  C   LIG    1        3.137   9.194  -4.579  0.00  0.00    +0.253 C 
ATOM     37  O   LIG    1        2.871   9.855  -5.577  0.00  0.00    -0.270 OA
BRANCH  33  38
ATOM     38  O   LIG    1        4.422  13.253  -2.402  0.00  0.00    -0.495 OA
ATOM     39  C   LIG    1        4.724  14.009  -1.237  0.00  0.00    +0.277 C 
ENDBRANCH  33  38
ENDBRANCH  23  24
ENDBRANCH  22  23
ENDBRANCH   4  22
TORSDOF 7
ENDMDL
MODEL 4
REMARK VINA RESULT:      -8.3      5.251      7.342
REMARK  Name = 
REMARK                            x       y       z     vdW  Elec       q    Type
REMARK                         _______ _______ _______ _____ _____    ______ ____
ROOT
ATOM      1  C   LIG    1        8.457  10.617  -7.495  0.00  0.00    +0.109 A 
ATOM      2  C   LIG    1        7.736   9.423  -7.539  0.00  0.00    +0.029 A 
ATOM      3  C   LIG    1        6.535   9.321  -6.842  0.00  0.00    +0.005 A 
ATOM      4  C   LIG    1        6.059  10.406  -6.099  0.00  0.00    -0.046 A 
ATOM      5  C   LIG    1        6.796  11.606  -6.079  0.00  0.00    +0.005 A 
ATOM      6  C   LIG    1        7.992  11.718  -6.777  0.00  0.00    +0.029 A 
ENDROOT
BRANCH   1   7
ATOM      7  S   LIG    1       10.045  10.706  -8.264  0.00  0.00    +0.076 S 
ATOM      8  O   LIG    1        9.926  11.472  -9.485  0.00  0.00    -0.150 OA
ATOM      9  O   LIG    1       11.026  11.043  -7.258  0.00  0.00    -0.150 OA
BRANCH   7  12
ATOM     10  O   LIG    1       10.184   7.283  -9.876  0.00  0.00    -0.251 OA
ATOM     11  C   LIG    1       10.105   8.499  -9.887  0.00  0.00    +0.319 C 
ATOM     12  N   LIG    1       10.234   9.123  -8.664  0.00  0.00    -0.169 N 
ATOM     13  H   LIG    1       10.369   8.470  -7.898  0.00  0.00    +0.178 HD
ATOM     14  N   LIG    1        9.915   9.283 -10.979  0.00  0.00    -0.295 N 
ATOM     15  H   LIG    1        9.880  10.280 -10.817  0.00  0.00    +0.151 HD
BRANCH  14  16
ATOM     16  C   LIG    1        9.767   8.865 -12.370  0.00  0.00    +0.074 C 
ATOM     17  C   LIG    1       11.058   8.367 -13.022  0.00  0.00    +0.022 C 
ATOM     18  C   LIG    1       11.978   9.476 -13.517  0.00  0.00    +0.002 C 
ATOM     19  C   LIG    1       11.256  10.558 -14.322  0.00  0.00    +0.000 C 
ATOM     20  C   LIG    1        9.906  11.012 -13.770  0.00  0.00    +0.002 C 
ATOM     21  C   LIG    1        9.035   9.872 -13.258  0.00  0.00    +0.022 C 
ENDBRANCH  14  16
ENDBRANCH   7  12
ENDBRANCH   1   7
BRANCH   4  22
ATOM     22  C   LIG    1        4.800  10.364  -5.278  0.00  0.00    +0.054 C 
BRANCH  22  23
ATOM     23  C   LIG    1        4.028   9.035  -5.154  0.00  0.00    +0.121 C 
BRANCH  23  24
ATOM     24  N   LIG    1        3.987   8.687  -3.741  0.00  0.00    -0.237 N 
ATOM     25  C   LIG    1        4.769   9.392  -2.845  0.00  0.00    +0.232 C 
ATOM     26  O   LIG    1        5.860   9.874  -3.148  0.00  0.00    -0.274 OA
ATOM     27  C   LIG    1        4.075   9.683  -1.508  0.00  0.00    +0.067 C 
ATOM     28  C   LIG    1        3.263  10.973  -1.757  0.00  0.00    +0.025 C 
ATOM     29  C   LIG    1        5.145   9.955  -0.436  0.00  0.00    +0.025 C 
ATOM     30  C   LIG    1        3.125   8.567  -1.086  0.00  0.00    -0.021 A 
ATOM     31  C   LIG    1        2.469   8.592   0.155  0.00  0.00    +0.009 A 
ATOM     32  C   LIG    1        1.557   7.592   0.511  0.00  0.00    +0.046 A 
ATOM     33  C   LIG    1        1.290   6.538  -0.359  0.00  0.00    +0.121 A 
ATOM     34  C   LIG    1        1.932   6.500  -1.593  0.00  0.00    +0.059 A 
ATOM     35  C   LIG    1        2.824   7.515  -1.964  0.00  0.00    +0.045 A 
ATOM     36  C   LIG    1        3.298   7.548  -3.365  0.00  0.00    +0.253 C 
ATOM     37  O   LIG    1        3.012   6.642  -4.140  0.00  0.00    -0.270 OA
BRANCH  33  38
ATOM     38  O   LIG    1        0.414   5.513  -0.140  0.00  0.00    -0.495 OA
ATOM     39  C   LIG    1       -0.632   5.349  -1.089  0.00  0.00    +0.277 C 
ENDBRANCH  33  38
ENDBRANCH  23  24
ENDBRANCH  22  23
ENDBRANCH   4  22
TORSDOF 7
ENDMDL
MODEL 5
REMARK VINA RESULT:      -8.2      1.839      3.789
REMARK  Name = 
REMARK                            x       y       z     vdW  Elec       q    Type
REMARK                         _______ _______ _______ _____ _____    ______ ____
ROOT
ATOM      1  C   LIG    1        7.696   6.316  -6.962  0.00  0.00    +0.109 A 
ATOM      2  C   LIG    1        6.782   5.435  -6.382  0.00  0.00    +0.029 A 
ATOM      3  C   LIG    1        5.476   5.858  -6.147  0.00  0.00    +0.005 A 
ATOM      4  C   LIG    1        5.087   7.158  -6.486  0.00  0.00    -0.046 A 
ATOM      5  C   LIG    1        6.022   8.026  -7.082  0.00  0.00    +0.005 A 
ATOM      6  C   LIG    1        7.325   7.609  -7.326  0.00  0.00    +0.029 A 
ENDROOT
BRANCH   1   7
ATOM      7  S   LIG    1        9.386   5.829  -7.135  0.00  0.00    +0.076 S 
ATOM      8  O   LIG    1        9.998   6.639  -8.165  0.00  0.00    -0.150 OA
ATOM      9  O   LIG    1        9.972   5.721  -5.818  0.00  0.00    -0.150 OA
BRANCH   7  12
ATOM     10  O   LIG    1        9.310   2.121  -7.894  0.00  0.00    -0.251 OA
ATOM     11  C   LIG    1        9.474   3.091  -7.175  0.00  0.00    +0.319 C 
ATOM     12  N   LIG    1        9.165   4.314  -7.732  0.00  0.00    -0.169 N 
ATOM     13  H   LIG    1        8.845   4.243  -8.693  0.00  0.00    +0.178 HD
ATOM     14  N   LIG    1        9.918   3.076  -5.892  0.00  0.00    -0.295 N 
ATOM     15  H   LIG    1        9.991   3.972  -5.430  0.00  0.00    +0.151 HD
BRANCH  14  16
ATOM     16  C   LIG    1       10.291   1.918  -5.085  0.00  0.00    +0.074 C 
ATOM     17  C   LIG    1        9.372   1.656  -3.891  0.00  0.00    +0.022 C 
ATOM     18  C   LIG    1        9.664   2.522  -2.673  0.00  0.00    +0.002 C 
ATOM     19  C   LIG    1       11.147   2.586  -2.307  0.00  0.00    +0.000 C 
ATOM     20  C   LIG    1       12.117   2.738  -3.478  0.00  0.00    +0.002 C 
ATOM     21  C   LIG    1       11.767   1.877  -4.684  0.00  0.00    +0.022 C 
ENDBRANCH  14  16
ENDBRANCH   7  12
ENDBRANCH   1   7
BRANCH   4  22
ATOM     22  C   LIG    1        3.714   7.710  -6.221  0.00  0.00    +0.054 C 
BRANCH  22  23
ATOM     23  C   LIG    1        3.574   9.049  -5.470  0.00  0.00    +0.121 C 
BRANCH  23  24
ATOM     24  N   LIG    1        3.737   8.770  -4.050  0.00  0.00    -0.237 N 
ATOM     25  C   LIG    1        4.616   9.532  -3.305  0.00  0.00    +0.232 C 
ATOM     26  O   LIG    1        5.643  10.019  -3.778  0.00  0.00    -0.274 OA
ATOM     27  C   LIG    1        4.106   9.875  -1.899  0.00  0.00    +0.067 C 
ATOM     28  C   LIG    1        3.235  11.136  -2.092  0.00  0.00    +0.025 C 
ATOM     29  C   LIG    1        5.307  10.219  -1.000  0.00  0.00    +0.025 C 
ATOM     30  C   LIG    1        3.252   8.764  -1.299  0.00  0.00    -0.021 A 
ATOM     31  C   LIG    1        2.773   8.837   0.019  0.00  0.00    +0.009 A 
ATOM     32  C   LIG    1        1.943   7.839   0.543  0.00  0.00    +0.046 A 
ATOM     33  C   LIG    1        1.586   6.739  -0.232  0.00  0.00    +0.121 A 
ATOM     34  C   LIG    1        2.053   6.652  -1.540  0.00  0.00    +0.059 A 
ATOM     35  C   LIG    1        2.860   7.665  -2.077  0.00  0.00    +0.045 A 
ATOM     36  C   LIG    1        3.135   7.638  -3.531  0.00  0.00    +0.253 C 
ATOM     37  O   LIG    1        2.767   6.690  -4.216  0.00  0.00    -0.270 OA
BRANCH  33  38
ATOM     38  O   LIG    1        0.774   5.709   0.153  0.00  0.00    -0.495 OA
ATOM     39  C   LIG    1       -0.398   5.492  -0.622  0.00  0.00    +0.277 C 
ENDBRANCH  33  38
ENDBRANCH  23  24
ENDBRANCH  22  23
ENDBRANCH   4  22
TORSDOF 7
ENDMDL
MODEL 6
REMARK VINA RESULT:      -8.2      3.388      4.604
REMARK  Name = 
REMARK                            x       y       z     vdW  Elec       q    Type
REMARK                         _______ _______ _______ _____ _____    ______ ____
ROOT
ATOM      1  C   LIG    1        7.741   6.383  -7.026  0.00  0.00    +0.109 A 
ATOM      2  C   LIG    1        6.710   5.660  -6.424  0.00  0.00    +0.029 A 
ATOM      3  C   LIG    1        5.474   6.268  -6.221  0.00  0.00    +0.005 A 
ATOM      4  C   LIG    1        5.270   7.595  -6.611  0.00  0.00    -0.046 A 
ATOM      5  C   LIG    1        6.320   8.303  -7.228  0.00  0.00    +0.005 A 
ATOM      6  C   LIG    1        7.555   7.701  -7.441  0.00  0.00    +0.029 A 
ENDROOT
BRANCH   1   7
ATOM      7  S   LIG    1        9.348   5.663  -7.162  0.00  0.00    +0.076 S 
ATOM      8  O   LIG    1       10.223   6.603  -7.826  0.00  0.00    -0.150 OA
ATOM      9  O   LIG    1        9.702   5.079  -5.887  0.00  0.00    -0.150 OA
BRANCH   7  12
ATOM     10  O   LIG    1        8.856   3.348 -10.117  0.00  0.00    -0.251 OA
ATOM     11  C   LIG    1        9.350   4.300  -9.539  0.00  0.00    +0.319 C 
ATOM     12  N   LIG    1        9.004   4.446  -8.213  0.00  0.00    -0.169 N 
ATOM     13  H   LIG    1        8.360   3.731  -7.889  0.00  0.00    +0.178 HD
ATOM     14  N   LIG    1       10.205   5.210 -10.073  0.00  0.00    -0.295 N 
ATOM     15  H   LIG    1       10.531   5.938  -9.453  0.00  0.00    +0.151 HD
BRANCH  14  16
ATOM     16  C   LIG    1       10.727   5.260 -11.435  0.00  0.00    +0.074 C 
ATOM     17  C   LIG    1       12.049   6.017 -11.579  0.00  0.00    +0.022 C 
ATOM     18  C   LIG    1       11.899   7.531 -11.646  0.00  0.00    +0.002 C 
ATOM     19  C   LIG    1       10.812   7.998 -12.614  0.00  0.00    +0.000 C 
ATOM     20  C   LIG    1        9.507   7.203 -12.587  0.00  0.00    +0.002 C 
ATOM     21  C   LIG    1        9.706   5.696 -12.487  0.00  0.00    +0.022 C 
ENDBRANCH  14  16
ENDBRANCH   7  12
ENDBRANCH   1   7
BRANCH   4  22
ATOM     22  C   LIG    1        3.985   8.341  -6.383  0.00  0.00    +0.054 C 
BRANCH  22  23
ATOM     23  C   LIG    1        2.899   7.710  -5.489  0.00  0.00    +0.121 C 
BRANCH  23  24
ATOM     24  N   LIG    1        3.021   8.310  -4.168  0.00  0.00    -0.237 N 
ATOM     25  C   LIG    1        2.961   7.503  -3.048  0.00  0.00    +0.232 C 
ATOM     26  O   LIG    1        2.287   6.475  -3.003  0.00  0.00    -0.274 OA
ATOM     27  C   LIG    1        3.950   7.897  -1.942  0.00  0.00    +0.067 C 
ATOM     28  C   LIG    1        5.272   7.198  -2.329  0.00  0.00    +0.025 C 
ATOM     29  C   LIG    1        3.451   7.335  -0.599  0.00  0.00    +0.025 C 
ATOM     30  C   LIG    1        4.182   9.402  -1.873  0.00  0.00    -0.021 A 
ATOM     31  C   LIG    1        4.973   9.977  -0.866  0.00  0.00    +0.009 A 
ATOM     32  C   LIG    1        5.225  11.354  -0.842  0.00  0.00    +0.046 A 
ATOM     33  C   LIG    1        4.681  12.188  -1.815  0.00  0.00    +0.121 A 
ATOM     34  C   LIG    1        3.895  11.633  -2.820  0.00  0.00    +0.059 A 
ATOM     35  C   LIG    1        3.665  10.251  -2.863  0.00  0.00    +0.045 A 
ATOM     36  C   LIG    1        3.020   9.690  -4.071  0.00  0.00    +0.253 C 
ATOM     37  O   LIG    1        2.593  10.431  -4.950  0.00  0.00    -0.270 OA
BRANCH  33  38
ATOM     38  O   LIG    1        4.863  13.539  -1.914  0.00  0.00    -0.495 OA
ATOM     39  C   LIG    1        5.264  14.222  -0.733  0.00  0.00    +0.277 C 
ENDBRANCH  33  38
ENDBRANCH  23  24
ENDBRANCH  22  23
ENDBRANCH   4  22
TORSDOF 7
ENDMDL
MODEL 7
REMARK VINA RESULT:      -8.1      1.332      3.117
REMARK  Name = 
REMARK                            x       y       z     vdW  Elec       q    Type
REMARK                         _______ _______ _______ _____ _____    ______ ____
ROOT
ATOM      1  C   LIG    1        7.808   5.379  -6.332  0.00  0.00    +0.109 A 
ATOM      2  C   LIG    1        6.597   5.211  -5.661  0.00  0.00    +0.029 A 
ATOM      3  C   LIG    1        5.595   6.168  -5.804  0.00  0.00    +0.005 A 
ATOM      4  C   LIG    1        5.806   7.291  -6.611  0.00  0.00    -0.046 A 
ATOM      5  C   LIG    1        7.031   7.434  -7.290  0.00  0.00    +0.005 A 
ATOM      6  C   LIG    1        8.033   6.480  -7.157  0.00  0.00    +0.029 A 
ENDROOT
BRANCH   1   7
ATOM      7  S   LIG    1        9.129   4.241  -6.046  0.00  0.00    +0.076 S 
ATOM      8  O   LIG    1        8.999   3.138  -6.972  0.00  0.00    -0.150 OA
ATOM      9  O   LIG    1       10.363   4.985  -5.933  0.00  0.00    -0.150 OA
BRANCH   7  12
ATOM     10  O   LIG    1        8.762   2.545  -2.681  0.00  0.00    -0.251 OA
ATOM     11  C   LIG    1        9.369   2.867  -3.687  0.00  0.00    +0.319 C 
ATOM     12  N   LIG    1        8.703   3.712  -4.549  0.00  0.00    -0.169 N 
ATOM     13  H   LIG    1        7.769   3.950  -4.229  0.00  0.00    +0.178 HD
ATOM     14  N   LIG    1       10.627   2.484  -4.026  0.00  0.00    -0.295 N 
ATOM     15  H   LIG    1       10.989   2.848  -4.896  0.00  0.00    +0.151 HD
BRANCH  14  16
ATOM     16  C   LIG    1       11.533   1.617  -3.279  0.00  0.00    +0.074 C 
ATOM     17  C   LIG    1       12.380   2.339  -2.230  0.00  0.00    +0.022 C 
ATOM     18  C   LIG    1       13.611   3.038  -2.791  0.00  0.00    +0.002 C 
ATOM     19  C   LIG    1       14.425   2.170  -3.751  0.00  0.00    +0.000 C 
ATOM     20  C   LIG    1       13.619   1.342  -4.750  0.00  0.00    +0.002 C 
ATOM     21  C   LIG    1       12.381   0.688  -4.151  0.00  0.00    +0.022 C 
ENDBRANCH  14  16
ENDBRANCH   7  12
ENDBRANCH   1   7
BRANCH   4  22
ATOM     22  C   LIG    1        4.798   8.394  -6.780  0.00  0.00    +0.054 C 
BRANCH  22  23
ATOM     23  C   LIG    1        3.437   8.285  -6.064  0.00  0.00    +0.121 C 
BRANCH  23  24
ATOM     24  N   LIG    1        3.684   8.435  -4.637  0.00  0.00    -0.237 N 
ATOM     25  C   LIG    1        4.498   9.460  -4.193  0.00  0.00    +0.232 C 
ATOM     26  O   LIG    1        5.444   9.892  -4.851  0.00  0.00    -0.274 OA
ATOM     27  C   LIG    1        4.005  10.133  -2.905  0.00  0.00    +0.067 C 
ATOM     28  C   LIG    1        2.990  11.196  -3.380  0.00  0.00    +0.025 C 
ATOM     29  C   LIG    1        5.192  10.834  -2.220  0.00  0.00    +0.025 C 
ATOM     30  C   LIG    1        3.306   9.158  -1.965  0.00  0.00    -0.021 A 
ATOM     31  C   LIG    1        2.871   9.553  -0.689  0.00  0.00    +0.009 A 
ATOM     32  C   LIG    1        2.181   8.666   0.146  0.00  0.00    +0.046 A 
ATOM     33  C   LIG    1        1.923   7.363  -0.269  0.00  0.00    +0.121 A 
ATOM     34  C   LIG    1        2.348   6.956  -1.531  0.00  0.00    +0.059 A 
ATOM     35  C   LIG    1        3.013   7.851  -2.380  0.00  0.00    +0.045 A 
ATOM     36  C   LIG    1        3.235   7.442  -3.785  0.00  0.00    +0.253 C 
ATOM     37  O   LIG    1        2.952   6.308  -4.155  0.00  0.00    -0.270 OA
BRANCH  33  38
ATOM     38  O   LIG    1        1.248   6.408   0.440  0.00  0.00    -0.495 OA
ATOM     39  C   LIG    1        0.257   5.669  -0.261  0.00  0.00    +0.277 C 
ENDBRANCH  33  38
ENDBRANCH  23  24
ENDBRANCH  22  23
ENDBRANCH   4  22
TORSDOF 7
ENDMDL
MODEL 8
REMARK VINA RESULT:      -7.5      7.002      9.046
REMARK  Name = 
REMARK                            x       y       z     vdW  Elec       q    Type
REMARK                         _______ _______ _______ _____ _____    ______ ____
ROOT
ATOM      1  C   LIG    1       10.016  13.065  -6.762  0.00  0.00    +0.109 A 
ATOM      2  C   LIG    1        9.943  12.428  -5.522  0.00  0.00    +0.029 A 
ATOM      3  C   LIG    1        8.850  11.614  -5.234  0.00  0.00    +0.005 A 
ATOM      4  C   LIG    1        7.833  11.442  -6.177  0.00  0.00    -0.046 A 
ATOM      5  C   LIG    1        7.933  12.084  -7.427  0.00  0.00    +0.005 A 
ATOM      6  C   LIG    1        9.023  12.892  -7.725  0.00  0.00    +0.029 A 
ENDROOT
BRANCH   1   7
ATOM      7  S   LIG    1       11.328  14.205  -7.080  0.00  0.00    +0.076 S 
ATOM      8  O   LIG    1       12.533  13.457  -7.361  0.00  0.00    -0.150 OA
ATOM      9  O   LIG    1       10.846  15.221  -7.989  0.00  0.00    -0.150 OA
BRANCH   7  12
ATOM     10  O   LIG    1       12.380  15.911  -3.868  0.00  0.00    -0.251 OA
ATOM     11  C   LIG    1       12.476  15.649  -5.055  0.00  0.00    +0.319 C 
ATOM     12  N   LIG    1       11.469  14.871  -5.584  0.00  0.00    -0.169 N 
ATOM     13  H   LIG    1       10.771  14.603  -4.896  0.00  0.00    +0.178 HD
ATOM     14  N   LIG    1       13.464  16.058  -5.892  0.00  0.00    -0.295 N 
ATOM     15  H   LIG    1       13.391  15.759  -6.854  0.00  0.00    +0.151 HD
BRANCH  14  16
ATOM     16  C   LIG    1       14.620  16.893  -5.577  0.00  0.00    +0.074 C 
ATOM     17  C   LIG    1       15.267  17.562  -6.790  0.00  0.00    +0.022 C 
ATOM     18  C   LIG    1       16.211  16.659  -7.574  0.00  0.00    +0.002 C 
ATOM     19  C   LIG    1       17.197  15.890  -6.694  0.00  0.00    +0.000 C 
ATOM     20  C   LIG    1       16.621  15.294  -5.410  0.00  0.00    +0.002 C 
ATOM     21  C   LIG    1       15.659  16.220  -4.678  0.00  0.00    +0.022 C 
ENDBRANCH  14  16
ENDBRANCH   7  12
ENDBRANCH   1   7
BRANCH   4  22
ATOM     22  C   LIG    1        6.597  10.622  -5.928  0.00  0.00    +0.054 C 
BRANCH  22  23
ATOM     23  C   LIG    1        5.578  11.101  -4.874  0.00  0.00    +0.121 C 
BRANCH  23  24
ATOM     24  N   LIG    1        4.680   9.987  -4.602  0.00  0.00    -0.237 N 
ATOM     25  C   LIG    1        4.103   9.307  -5.657  0.00  0.00    +0.232 C 
ATOM     26  O   LIG    1        3.818   9.850  -6.724  0.00  0.00    -0.274 OA
ATOM     27  C   LIG    1        4.024   7.788  -5.451  0.00  0.00    +0.067 C 
ATOM     28  C   LIG    1        5.400   7.257  -5.911  0.00  0.00    +0.025 C 
ATOM     29  C   LIG    1        2.927   7.214  -6.364  0.00  0.00    +0.025 C 
ATOM     30  C   LIG    1        3.803   7.406  -3.992  0.00  0.00    -0.021 A 
ATOM     31  C   LIG    1        3.601   6.071  -3.606  0.00  0.00    +0.009 A 
ATOM     32  C   LIG    1        3.453   5.722  -2.259  0.00  0.00    +0.046 A 
ATOM     33  C   LIG    1        3.488   6.700  -1.269  0.00  0.00    +0.121 A 
ATOM     34  C   LIG    1        3.687   8.028  -1.636  0.00  0.00    +0.059 A 
ATOM     35  C   LIG    1        3.865   8.376  -2.982  0.00  0.00    +0.045 A 
ATOM     36  C   LIG    1        4.300   9.756  -3.292  0.00  0.00    +0.253 C 
ATOM     37  O   LIG    1        4.382  10.598  -2.404  0.00  0.00    -0.270 OA
BRANCH  33  38
ATOM     38  O   LIG    1        3.374   6.492   0.077  0.00  0.00    -0.495 OA
ATOM     39  C   LIG    1        2.219   7.023   0.713  0.00  0.00    +0.277 C 
ENDBRANCH  33  38
ENDBRANCH  23  24
ENDBRANCH  22  23
ENDBRANCH   4  22
TORSDOF 7
ENDMDL
MODEL 9
REMARK VINA RESULT:      -7.3      8.004     12.015
REMARK  Name = 
REMARK                            x       y       z     vdW  Elec       q    Type
REMARK                         _______ _______ _______ _____ _____    ______ ____
ROOT
ATOM      1  C   LIG    1       12.002  14.694  -6.454  0.00  0.00    +0.109 A 
ATOM      2  C   LIG    1       10.947  13.871  -6.058  0.00  0.00    +0.029 A 
ATOM      3  C   LIG    1       10.693  12.696  -6.761  0.00  0.00    +0.005 A 
ATOM      4  C   LIG    1       11.485  12.348  -7.859  0.00  0.00    -0.046 A 
ATOM      5  C   LIG    1       12.553  13.186  -8.234  0.00  0.00    +0.005 A 
ATOM      6  C   LIG    1       12.818  14.357  -7.534  0.00  0.00    +0.029 A 
ENDROOT
BRANCH   1   7
ATOM      7  S   LIG    1       12.243  16.250  -5.653  0.00  0.00    +0.076 S 
ATOM      8  O   LIG    1       11.834  17.304  -6.554  0.00  0.00    -0.150 OA
ATOM      9  O   LIG    1       11.715  16.163  -4.310  0.00  0.00    -0.150 OA
BRANCH   7  12
ATOM     10  O   LIG    1       15.903  16.112  -4.693  0.00  0.00    -0.251 OA
ATOM     11  C   LIG    1       14.715  15.899  -4.523  0.00  0.00    +0.319 C 
ATOM     12  N   LIG    1       13.885  16.251  -5.567  0.00  0.00    -0.169 N 
ATOM     13  H   LIG    1       14.384  16.660  -6.351  0.00  0.00    +0.178 HD
ATOM     14  N   LIG    1       14.145  15.347  -3.422  0.00  0.00    -0.295 N 
ATOM     15  H   LIG    1       13.142  15.231  -3.444  0.00  0.00    +0.151 HD
BRANCH  14  16
ATOM     16  C   LIG    1       14.807  14.882  -2.207  0.00  0.00    +0.074 C 
ATOM     17  C   LIG    1       14.109  13.710  -1.514  0.00  0.00    +0.022 C 
ATOM     18  C   LIG    1       12.926  14.111  -0.643  0.00  0.00    +0.002 C 
ATOM     19  C   LIG    1       13.219  15.290   0.285  0.00  0.00    +0.000 C 
ATOM     20  C   LIG    1       14.012  16.443  -0.330  0.00  0.00    +0.002 C 
ATOM     21  C   LIG    1       15.165  15.993  -1.218  0.00  0.00    +0.022 C 
ENDBRANCH  14  16
ENDBRANCH   7  12
ENDBRANCH   1   7
BRANCH   4  22
ATOM     22  C   LIG    1       11.248  11.126  -8.701  0.00  0.00    +0.054 C 
BRANCH  22  23
ATOM     23  C   LIG    1        9.948  10.320  -8.507  0.00  0.00    +0.121 C 
BRANCH  23  24
ATOM     24  N   LIG    1        9.788   9.465  -9.675  0.00  0.00    -0.237 N 
ATOM     25  C   LIG    1        9.480  10.035 -10.895  0.00  0.00    +0.232 C 
ATOM     26  O   LIG    1        8.802  11.057 -11.002  0.00  0.00    -0.274 OA
ATOM     27  C   LIG    1       10.210   9.396 -12.084  0.00  0.00    +0.067 C 
ATOM     28  C   LIG    1       11.578  10.112 -12.138  0.00  0.00    +0.025 C 
ATOM     29  C   LIG    1        9.428   9.697 -13.375  0.00  0.00    +0.025 C 
ATOM     30  C   LIG    1       10.436   7.900 -11.897  0.00  0.00    -0.021 A 
ATOM     31  C   LIG    1       10.997   7.109 -12.913  0.00  0.00    +0.009 A 
ATOM     32  C   LIG    1       11.251   5.748 -12.712  0.00  0.00    +0.046 A 
ATOM     33  C   LIG    1       10.939   5.143 -11.498  0.00  0.00    +0.121 A 
ATOM     34  C   LIG    1       10.382   5.913 -10.481  0.00  0.00    +0.059 A 
ATOM     35  C   LIG    1       10.154   7.283 -10.669  0.00  0.00    +0.045 A 
ATOM     36  C   LIG    1        9.780   8.095  -9.489  0.00  0.00    +0.253 C 
ATOM     37  O   LIG    1        9.560   7.558  -8.409  0.00  0.00    -0.270 OA
BRANCH  33  38
ATOM     38  O   LIG    1       11.151   3.833 -11.170  0.00  0.00    -0.495 OA
ATOM     39  C   LIG    1       10.044   3.116 -10.639  0.00  0.00    +0.277 C 
ENDBRANCH  33  38
ENDBRANCH  23  24
ENDBRANCH  22  23
ENDBRANCH   4  22
TORSDOF 7
ENDMDL
