MODEL 1
REMARK VINA RESULT:       2.6      0.000      0.000
REMARK  Name = 
REMARK                            x       y       z     vdW  Elec       q    Type
REMARK                         _______ _______ _______ _____ _____    ______ ____
ROOT
ATOM      1  C   LIG    1        3.089  28.856   5.417  0.00  0.00    +0.109 A 
ATOM      2  C   LIG    1        4.384  28.344   5.326  0.00  0.00    +0.029 A 
ATOM      3  C   LIG    1        4.610  27.000   5.608  0.00  0.00    +0.005 A 
ATOM      4  C   LIG    1        3.549  26.171   5.984  0.00  0.00    -0.046 A 
ATOM      5  C   LIG    1        2.248  26.705   6.056  0.00  0.00    +0.005 A 
ATOM      6  C   LIG    1        2.012  28.044   5.770  0.00  0.00    +0.029 A 
ENDROOT
BRANCH   1   7
ATOM      7  S   LIG    1        2.818  30.588   5.195  0.00  0.00    +0.076 S 
ATOM      8  O   LIG    1        3.812  31.313   5.953  0.00  0.00    -0.150 OA
ATOM      9  O   LIG    1        2.611  30.845   3.787  0.00  0.00    -0.150 OA
BRANCH   7  12
ATOM     10  O   LIG    1       -0.335  31.680   6.984  0.00  0.00    -0.251 OA
ATOM     11  C   LIG    1        0.659  31.861   6.302  0.00  0.00    +0.319 C 
ATOM     12  N   LIG    1        1.373  30.730   5.966  0.00  0.00    -0.169 N 
ATOM     13  H   LIG    1        0.974  29.880   6.351  0.00  0.00    +0.178 HD
ATOM     14  N   LIG    1        1.113  33.054   5.841  0.00  0.00    -0.295 N 
ATOM     15  H   LIG    1        1.951  33.030   5.278  0.00  0.00    +0.151 HD
BRANCH  14  16
ATOM     16  C   LIG    1        0.528  34.376   6.045  0.00  0.00    +0.074 C 
ATOM     17  C   LIG    1       -0.791  34.607   5.306  0.00  0.00    +0.022 C 
ATOM     18  C   LIG    1       -0.630  34.972   3.836  0.00  0.00    +0.002 C 
ATOM     19  C   LIG    1        0.416  36.059   3.585  0.00  0.00    +0.000 C 
ATOM     20  C   LIG    1        1.712  35.935   4.384  0.00  0.00    +0.002 C 
ATOM     21  C   LIG    1        1.504  35.537   5.839  0.00  0.00    +0.022 C 
ENDBRANCH  14  16
ENDBRANCH   7  12
ENDBRANCH   1   7
BRANCH   4  22
ATOM     22  C   LIG    1        3.714  24.723   6.352  0.00  0.00    +0.054 C 
BRANCH  22  23
ATOM     23  C   LIG    1        4.951  24.291   7.165  0.00  0.00    +0.121 C 
BRANCH  23  24
ATOM     24  N   LIG    1        4.538  23.199   8.036  0.00  0.00    -0.237 N 
ATOM     25  C   LIG    1        4.143  21.998   7.478  0.00  0.00    +0.232 C 
ATOM     26  O   LIG    1        3.584  21.924   6.385  0.00  0.00    -0.274 OA
ATOM     27  C   LIG    1        4.630  20.763   8.248  0.00  0.00    +0.067 C 
ATOM     28  C   LIG    1        6.054  20.501   7.711  0.00  0.00    +0.025 C 
ATOM     29  C   LIG    1        3.727  19.566   7.900  0.00  0.00    +0.025 C 
ATOM     30  C   LIG    1        4.698  21.000   9.753  0.00  0.00    -0.021 A 
ATOM     31  C   LIG    1        5.023  19.966  10.644  0.00  0.00    +0.009 A 
ATOM     32  C   LIG    1        5.137  20.205  12.019  0.00  0.00    +0.046 A 
ATOM     33  C   LIG    1        4.916  21.479  12.534  0.00  0.00    +0.121 A 
ATOM     34  C   LIG    1        4.594  22.515  11.663  0.00  0.00    +0.059 A 
ATOM     35  C   LIG    1        4.507  22.285  10.283  0.00  0.00    +0.045 A 
ATOM     36  C   LIG    1        4.391  23.457   9.387  0.00  0.00    +0.253 C 
ATOM     37  O   LIG    1        4.252  24.583   9.852  0.00  0.00    -0.270 OA
BRANCH  33  38
ATOM     38  O   LIG    1        5.012  21.847  13.847  0.00  0.00    -0.495 OA
ATOM     39  C   LIG    1        4.260  22.984  14.251  0.00  0.00    +0.277 C 
ENDBRANCH  33  38
ENDBRANCH  23  24
ENDBRANCH  22  23
ENDBRANCH   4  22
TORSDOF 7
ENDMDL
MODEL 2
REMARK VINA RESULT:       2.7      5.832      7.680
REMARK  Name = 
REMARK                            x       y       z     vdW  Elec       q    Type
REMARK                         _______ _______ _______ _____ _____    ______ ____
ROOT
ATOM      1  C   LIG    1       -0.938  34.741   4.578  0.00  0.00    +0.109 A 
ATOM      2  C   LIG    1       -1.047  33.549   3.861  0.00  0.00    +0.029 A 
ATOM      3  C   LIG    1       -1.098  32.338   4.547  0.00  0.00    +0.005 A 
ATOM      4  C   LIG    1       -1.035  32.318   5.944  0.00  0.00    -0.046 A 
ATOM      5  C   LIG    1       -0.938  33.533   6.649  0.00  0.00    +0.005 A 
ATOM      6  C   LIG    1       -0.893  34.746   5.972  0.00  0.00    +0.029 A 
ENDROOT
BRANCH   1   7
ATOM      7  S   LIG    1       -0.735  36.266   3.710  0.00  0.00    +0.076 S 
ATOM      8  O   LIG    1       -0.401  35.975   2.333  0.00  0.00    -0.150 OA
ATOM      9  O   LIG    1       -1.838  37.138   4.047  0.00  0.00    -0.150 OA
BRANCH   7  12
ATOM     10  O   LIG    1        2.578  36.790   5.465  0.00  0.00    -0.251 OA
ATOM     11  C   LIG    1        1.778  36.159   4.797  0.00  0.00    +0.319 C 
ATOM     12  N   LIG    1        0.616  36.822   4.463  0.00  0.00    -0.169 N 
ATOM     13  H   LIG    1        0.576  37.766   4.837  0.00  0.00    +0.178 HD
ATOM     14  N   LIG    1        1.928  34.885   4.351  0.00  0.00    -0.295 N 
ATOM     15  H   LIG    1        1.170  34.509   3.799  0.00  0.00    +0.151 HD
BRANCH  14  16
ATOM     16  C   LIG    1        3.063  33.990   4.556  0.00  0.00    +0.074 C 
ATOM     17  C   LIG    1        3.775  33.565   3.272  0.00  0.00    +0.022 C 
ATOM     18  C   LIG    1        3.092  32.427   2.523  0.00  0.00    +0.002 C 
ATOM     19  C   LIG    1        2.688  31.258   3.422  0.00  0.00    +0.000 C 
ATOM     20  C   LIG    1        2.071  31.632   4.768  0.00  0.00    +0.002 C 
ATOM     21  C   LIG    1        2.767  32.794   5.464  0.00  0.00    +0.022 C 
ENDBRANCH  14  16
ENDBRANCH   7  12
ENDBRANCH   1   7
BRANCH   4  22
ATOM     22  C   LIG    1       -1.033  31.054   6.758  0.00  0.00    +0.054 C 
BRANCH  22  23
ATOM     23  C   LIG    1        0.111  30.808   7.762  0.00  0.00    +0.121 C 
BRANCH  23  24
ATOM     24  N   LIG    1        0.927  29.725   7.233  0.00  0.00    -0.237 N 
ATOM     25  C   LIG    1        0.319  28.554   6.824  0.00  0.00    +0.232 C 
ATOM     26  O   LIG    1       -0.705  28.117   7.348  0.00  0.00    -0.274 OA
ATOM     27  C   LIG    1        0.920  27.953   5.546  0.00  0.00    +0.067 C 
ATOM     28  C   LIG    1        0.201  28.685   4.391  0.00  0.00    +0.025 C 
ATOM     29  C   LIG    1        0.578  26.453   5.487  0.00  0.00    +0.025 C 
ATOM     30  C   LIG    1        2.420  28.194   5.434  0.00  0.00    -0.021 A 
ATOM     31  C   LIG    1        3.178  27.639   4.390  0.00  0.00    +0.009 A 
ATOM     32  C   LIG    1        4.545  27.911   4.265  0.00  0.00    +0.046 A 
ATOM     33  C   LIG    1        5.189  28.732   5.187  0.00  0.00    +0.121 A 
ATOM     34  C   LIG    1        4.452  29.290   6.227  0.00  0.00    +0.059 A 
ATOM     35  C   LIG    1        3.077  29.043   6.338  0.00  0.00    +0.045 A 
ATOM     36  C   LIG    1        2.303  29.839   7.317  0.00  0.00    +0.253 C 
ATOM     37  O   LIG    1        2.875  30.602   8.089  0.00  0.00    -0.270 OA
BRANCH  33  38
ATOM     38  O   LIG    1        6.508  29.088   5.168  0.00  0.00    -0.495 OA
ATOM     39  C   LIG    1        6.807  30.426   4.793  0.00  0.00    +0.277 C 
ENDBRANCH  33  38
ENDBRANCH  23  24
ENDBRANCH  22  23
ENDBRANCH   4  22
TORSDOF 7
ENDMDL
MODEL 3
REMARK VINA RESULT:       3.0      5.032     11.098
REMARK  Name = 
REMARK                            x       y       z     vdW  Elec       q    Type
REMARK                         _______ _______ _______ _____ _____    ______ ____
ROOT
ATOM      1  C   LIG    1       -0.771  31.489   6.632  0.00  0.00    +0.109 A 
ATOM      2  C   LIG    1       -0.323  32.675   7.217  0.00  0.00    +0.029 A 
ATOM      3  C   LIG    1       -0.860  33.890   6.799  0.00  0.00    +0.005 A 
ATOM      4  C   LIG    1       -1.836  33.921   5.797  0.00  0.00    -0.046 A 
ATOM      5  C   LIG    1       -2.282  32.711   5.230  0.00  0.00    +0.005 A 
ATOM      6  C   LIG    1       -1.757  31.494   5.646  0.00  0.00    +0.029 A 
ENDROOT
BRANCH   1   7
ATOM      7  S   LIG    1        0.003  29.960   7.060  0.00  0.00    +0.076 S 
ATOM      8  O   LIG    1       -0.631  29.437   8.250  0.00  0.00    -0.150 OA
ATOM      9  O   LIG    1        0.133  29.158   5.864  0.00  0.00    -0.150 OA
BRANCH   7  12
ATOM     10  O   LIG    1        3.663  30.527   7.844  0.00  0.00    -0.251 OA
ATOM     11  C   LIG    1        2.729  29.929   7.340  0.00  0.00    +0.319 C 
ATOM     12  N   LIG    1        1.491  30.523   7.473  0.00  0.00    -0.169 N 
ATOM     13  H   LIG    1        1.523  31.393   7.995  0.00  0.00    +0.178 HD
ATOM     14  N   LIG    1        2.796  28.755   6.662  0.00  0.00    -0.295 N 
ATOM     15  H   LIG    1        1.925  28.395   6.298  0.00  0.00    +0.151 HD
BRANCH  14  16
ATOM     16  C   LIG    1        3.979  27.949   6.377  0.00  0.00    +0.074 C 
ATOM     17  C   LIG    1        5.015  28.637   5.487  0.00  0.00    +0.022 C 
ATOM     18  C   LIG    1        4.696  28.584   3.998  0.00  0.00    +0.002 C 
ATOM     19  C   LIG    1        4.286  27.195   3.508  0.00  0.00    +0.000 C 
ATOM     20  C   LIG    1        3.336  26.419   4.419  0.00  0.00    +0.002 C 
ATOM     21  C   LIG    1        3.676  26.528   5.900  0.00  0.00    +0.022 C 
ENDBRANCH  14  16
ENDBRANCH   7  12
ENDBRANCH   1   7
BRANCH   4  22
ATOM     22  C   LIG    1       -2.430  35.190   5.254  0.00  0.00    +0.054 C 
BRANCH  22  23
ATOM     23  C   LIG    1       -1.898  35.761   3.925  0.00  0.00    +0.121 C 
BRANCH  23  24
ATOM     24  N   LIG    1       -0.507  35.347   3.800  0.00  0.00    -0.237 N 
ATOM     25  C   LIG    1        0.497  36.276   3.992  0.00  0.00    +0.232 C 
ATOM     26  O   LIG    1        0.366  37.467   3.710  0.00  0.00    -0.274 OA
ATOM     27  C   LIG    1        1.711  35.733   4.757  0.00  0.00    +0.067 C 
ATOM     28  C   LIG    1        1.337  35.886   6.249  0.00  0.00    +0.025 C 
ATOM     29  C   LIG    1        2.935  36.614   4.448  0.00  0.00    +0.025 C 
ATOM     30  C   LIG    1        1.983  34.264   4.458  0.00  0.00    -0.021 A 
ATOM     31  C   LIG    1        3.108  33.604   4.979  0.00  0.00    +0.009 A 
ATOM     32  C   LIG    1        3.320  32.241   4.744  0.00  0.00    +0.046 A 
ATOM     33  C   LIG    1        2.422  31.509   3.973  0.00  0.00    +0.121 A 
ATOM     34  C   LIG    1        1.301  32.149   3.449  0.00  0.00    +0.059 A 
ATOM     35  C   LIG    1        1.071  33.507   3.707  0.00  0.00    +0.045 A 
ATOM     36  C   LIG    1       -0.240  34.076   3.325  0.00  0.00    +0.253 C 
ATOM     37  O   LIG    1       -1.049  33.405   2.693  0.00  0.00    -0.270 OA
BRANCH  33  38
ATOM     38  O   LIG    1        2.504  30.176   3.683  0.00  0.00    -0.495 OA
ATOM     39  C   LIG    1        1.284  29.504   3.398  0.00  0.00    +0.277 C 
ENDBRANCH  33  38
ENDBRANCH  23  24
ENDBRANCH  22  23
ENDBRANCH   4  22
TORSDOF 7
ENDMDL
MODEL 4
REMARK VINA RESULT:       3.3      5.582     11.181
REMARK  Name = 
REMARK                            x       y       z     vdW  Elec       q    Type
REMARK                         _______ _______ _______ _____ _____    ______ ____
ROOT
ATOM      1  C   LIG    1        3.723  28.447   4.813  0.00  0.00    +0.109 A 
ATOM      2  C   LIG    1        4.890  28.986   5.357  0.00  0.00    +0.029 A 
ATOM      3  C   LIG    1        5.130  30.353   5.244  0.00  0.00    +0.005 A 
ATOM      4  C   LIG    1        4.212  31.177   4.585  0.00  0.00    -0.046 A 
ATOM      5  C   LIG    1        3.035  30.613   4.055  0.00  0.00    +0.005 A 
ATOM      6  C   LIG    1        2.784  29.251   4.170  0.00  0.00    +0.029 A 
ENDROOT
BRANCH   1   7
ATOM      7  S   LIG    1        3.479  26.697   4.834  0.00  0.00    +0.076 S 
ATOM      8  O   LIG    1        3.808  26.168   3.529  0.00  0.00    -0.150 OA
ATOM      9  O   LIG    1        4.081  26.162   6.034  0.00  0.00    -0.150 OA
BRANCH   7  12
ATOM     10  O   LIG    1       -0.145  27.074   5.859  0.00  0.00    -0.251 OA
ATOM     11  C   LIG    1        1.031  27.392   5.848  0.00  0.00    +0.319 C 
ATOM     12  N   LIG    1        1.846  26.660   5.011  0.00  0.00    -0.169 N 
ATOM     13  H   LIG    1        1.348  25.928   4.513  0.00  0.00    +0.178 HD
ATOM     14  N   LIG    1        1.601  28.394   6.566  0.00  0.00    -0.295 N 
ATOM     15  H   LIG    1        2.593  28.533   6.435  0.00  0.00    +0.151 HD
BRANCH  14  16
ATOM     16  C   LIG    1        0.953  29.311   7.498  0.00  0.00    +0.074 C 
ATOM     17  C   LIG    1       -0.443  29.768   7.071  0.00  0.00    +0.022 C 
ATOM     18  C   LIG    1       -0.447  30.900   6.051  0.00  0.00    +0.002 C 
ATOM     19  C   LIG    1        0.497  32.049   6.407  0.00  0.00    +0.000 C 
ATOM     20  C   LIG    1        1.869  31.644   6.945  0.00  0.00    +0.002 C 
ATOM     21  C   LIG    1        1.826  30.489   7.936  0.00  0.00    +0.022 C 
ENDBRANCH  14  16
ENDBRANCH   7  12
ENDBRANCH   1   7
BRANCH   4  22
ATOM     22  C   LIG    1        4.418  32.651   4.375  0.00  0.00    +0.054 C 
BRANCH  22  23
ATOM     23  C   LIG    1        3.602  33.377   3.287  0.00  0.00    +0.121 C 
BRANCH  23  24
ATOM     24  N   LIG    1        2.381  33.865   3.913  0.00  0.00    -0.237 N 
ATOM     25  C   LIG    1        2.451  34.479   5.149  0.00  0.00    +0.232 C 
ATOM     26  O   LIG    1        3.290  34.176   5.997  0.00  0.00    -0.274 OA
ATOM     27  C   LIG    1        1.522  35.692   5.295  0.00  0.00    +0.067 C 
ATOM     28  C   LIG    1        2.322  36.875   4.704  0.00  0.00    +0.025 C 
ATOM     29  C   LIG    1        1.265  35.950   6.791  0.00  0.00    +0.025 C 
ATOM     30  C   LIG    1        0.221  35.530   4.518  0.00  0.00    -0.021 A 
ATOM     31  C   LIG    1       -0.807  36.483   4.602  0.00  0.00    +0.009 A 
ATOM     32  C   LIG    1       -1.976  36.354   3.843  0.00  0.00    +0.046 A 
ATOM     33  C   LIG    1       -2.150  35.264   2.995  0.00  0.00    +0.121 A 
ATOM     34  C   LIG    1       -1.140  34.311   2.901  0.00  0.00    +0.059 A 
ATOM     35  C   LIG    1        0.044  34.453   3.637  0.00  0.00    +0.045 A 
ATOM     36  C   LIG    1        1.170  33.543   3.329  0.00  0.00    +0.253 C 
ATOM     37  O   LIG    1        1.023  32.618   2.537  0.00  0.00    -0.270 OA
BRANCH  33  38
ATOM     38  O   LIG    1       -3.231  35.030   2.191  0.00  0.00    -0.495 OA
ATOM     39  C   LIG    1       -4.126  36.115   1.987  0.00  0.00    +0.277 C 
ENDBRANCH  33  38
ENDBRANCH  23  24
ENDBRANCH  22  23
ENDBRANCH   4  22
TORSDOF 7
ENDMDL
MODEL 5
REMARK VINA RESULT:       4.1      0.819      1.305
REMARK  Name = 
REMARK                            x       y       z     vdW  Elec       q    Type
REMARK                         _______ _______ _______ _____ _____    ______ ____
ROOT
ATOM      1  C   LIG    1        3.243  28.918   5.423  0.00  0.00    +0.109 A 
ATOM      2  C   LIG    1        4.504  28.326   5.340  0.00  0.00    +0.029 A 
ATOM      3  C   LIG    1        4.651  26.979   5.661  0.00  0.00    +0.005 A 
ATOM      4  C   LIG    1        3.543  26.227   6.066  0.00  0.00    -0.046 A 
ATOM      5  C   LIG    1        2.278  26.842   6.130  0.00  0.00    +0.005 A 
ATOM      6  C   LIG    1        2.121  28.184   5.805  0.00  0.00    +0.029 A 
ENDROOT
BRANCH   1   7
ATOM      7  S   LIG    1        3.076  30.656   5.150  0.00  0.00    +0.076 S 
ATOM      8  O   LIG    1        3.520  31.355   6.335  0.00  0.00    -0.150 OA
ATOM      9  O   LIG    1        3.613  30.972   3.846  0.00  0.00    -0.150 OA
BRANCH   7  12
ATOM     10  O   LIG    1       -0.561  31.605   4.702  0.00  0.00    -0.251 OA
ATOM     11  C   LIG    1        0.635  31.722   4.506  0.00  0.00    +0.319 C 
ATOM     12  N   LIG    1        1.437  30.755   5.075  0.00  0.00    -0.169 N 
ATOM     13  H   LIG    1        0.912  30.065   5.603  0.00  0.00    +0.178 HD
ATOM     14  N   LIG    1        1.241  32.697   3.780  0.00  0.00    -0.295 N 
ATOM     15  H   LIG    1        2.247  32.645   3.708  0.00  0.00    +0.151 HD
BRANCH  14  16
ATOM     16  C   LIG    1        0.615  33.811   3.075  0.00  0.00    +0.074 C 
ATOM     17  C   LIG    1        1.460  35.084   3.025  0.00  0.00    +0.022 C 
ATOM     18  C   LIG    1        1.395  35.930   4.290  0.00  0.00    +0.002 C 
ATOM     19  C   LIG    1       -0.027  36.153   4.807  0.00  0.00    +0.000 C 
ATOM     20  C   LIG    1       -0.947  34.934   4.775  0.00  0.00    +0.002 C 
ATOM     21  C   LIG    1       -0.824  34.102   3.505  0.00  0.00    +0.022 C 
ENDBRANCH  14  16
ENDBRANCH   7  12
ENDBRANCH   1   7
BRANCH   4  22
ATOM     22  C   LIG    1        3.624  24.784   6.477  0.00  0.00    +0.054 C 
BRANCH  22  23
ATOM     23  C   LIG    1        4.896  24.272   7.182  0.00  0.00    +0.121 C 
BRANCH  23  24
ATOM     24  N   LIG    1        4.501  23.164   8.040  0.00  0.00    -0.237 N 
ATOM     25  C   LIG    1        4.119  21.966   7.468  0.00  0.00    +0.232 C 
ATOM     26  O   LIG    1        3.556  21.898   6.375  0.00  0.00    -0.274 OA
ATOM     27  C   LIG    1        4.625  20.727   8.219  0.00  0.00    +0.067 C 
ATOM     28  C   LIG    1        6.051  20.490   7.673  0.00  0.00    +0.025 C 
ATOM     29  C   LIG    1        3.736  19.523   7.859  0.00  0.00    +0.025 C 
ATOM     30  C   LIG    1        4.697  20.945   9.726  0.00  0.00    -0.021 A 
ATOM     31  C   LIG    1        5.038  19.903  10.603  0.00  0.00    +0.009 A 
ATOM     32  C   LIG    1        5.155  20.125  11.980  0.00  0.00    +0.046 A 
ATOM     33  C   LIG    1        4.919  21.389  12.513  0.00  0.00    +0.121 A 
ATOM     34  C   LIG    1        4.580  22.433  11.657  0.00  0.00    +0.059 A 
ATOM     35  C   LIG    1        4.491  22.220  10.274  0.00  0.00    +0.045 A 
ATOM     36  C   LIG    1        4.356  23.402   9.395  0.00  0.00    +0.253 C 
ATOM     37  O   LIG    1        4.204  24.520   9.875  0.00  0.00    -0.270 OA
BRANCH  33  38
ATOM     38  O   LIG    1        5.016  21.741  13.830  0.00  0.00    -0.495 OA
ATOM     39  C   LIG    1        4.382  22.953  14.219  0.00  0.00    +0.277 C 
ENDBRANCH  33  38
ENDBRANCH  23  24
ENDBRANCH  22  23
ENDBRANCH   4  22
TORSDOF 7
ENDMDL
MODEL 6
REMARK VINA RESULT:       5.2      2.217     11.864
REMARK  Name = 
REMARK                            x       y       z     vdW  Elec       q    Type
REMARK                         _______ _______ _______ _____ _____    ______ ____
ROOT
ATOM      1  C   LIG    1        3.802  25.774   5.984  0.00  0.00    +0.109 A 
ATOM      2  C   LIG    1        4.000  26.079   4.637  0.00  0.00    +0.029 A 
ATOM      3  C   LIG    1        3.286  27.125   4.059  0.00  0.00    +0.005 A 
ATOM      4  C   LIG    1        2.372  27.860   4.822  0.00  0.00    -0.046 A 
ATOM      5  C   LIG    1        2.198  27.543   6.183  0.00  0.00    +0.005 A 
ATOM      6  C   LIG    1        2.912  26.505   6.769  0.00  0.00    +0.029 A 
ENDROOT
BRANCH   1   7
ATOM      7  S   LIG    1        4.603  24.364   6.685  0.00  0.00    +0.076 S 
ATOM      8  O   LIG    1        4.051  23.170   6.083  0.00  0.00    -0.150 OA
ATOM      9  O   LIG    1        6.028  24.605   6.704  0.00  0.00    -0.150 OA
BRANCH   7  12
ATOM     10  O   LIG    1        3.254  23.842  10.184  0.00  0.00    -0.251 OA
ATOM     11  C   LIG    1        3.790  23.485   9.150  0.00  0.00    +0.319 C 
ATOM     12  N   LIG    1        4.037  24.476   8.224  0.00  0.00    -0.169 N 
ATOM     13  H   LIG    1        3.721  25.392   8.529  0.00  0.00    +0.178 HD
ATOM     14  N   LIG    1        4.171  22.220   8.836  0.00  0.00    -0.295 N 
ATOM     15  H   LIG    1        4.612  22.093   7.936  0.00  0.00    +0.151 HD
BRANCH  14  16
ATOM     16  C   LIG    1        4.034  21.014   9.647  0.00  0.00    +0.074 C 
ATOM     17  C   LIG    1        2.657  20.833  10.286  0.00  0.00    +0.022 C 
ATOM     18  C   LIG    1        2.446  21.640  11.561  0.00  0.00    +0.002 C 
ATOM     19  C   LIG    1        3.605  21.535  12.552  0.00  0.00    +0.000 C 
ATOM     20  C   LIG    1        5.007  21.599  11.950  0.00  0.00    +0.002 C 
ATOM     21  C   LIG    1        5.161  20.803  10.660  0.00  0.00    +0.022 C 
ENDBRANCH  14  16
ENDBRANCH   7  12
ENDBRANCH   1   7
BRANCH   4  22
ATOM     22  C   LIG    1        1.526  28.970   4.265  0.00  0.00    +0.054 C 
BRANCH  22  23
ATOM     23  C   LIG    1        0.467  29.633   5.168  0.00  0.00    +0.121 C 
BRANCH  23  24
ATOM     24  N   LIG    1        0.895  31.005   5.404  0.00  0.00    -0.237 N 
ATOM     25  C   LIG    1        2.188  31.249   5.827  0.00  0.00    +0.232 C 
ATOM     26  O   LIG    1        2.816  30.465   6.537  0.00  0.00    -0.274 OA
ATOM     27  C   LIG    1        2.831  32.484   5.182  0.00  0.00    +0.067 C 
ATOM     28  C   LIG    1        3.407  31.974   3.842  0.00  0.00    +0.025 C 
ATOM     29  C   LIG    1        3.984  32.974   6.076  0.00  0.00    +0.025 C 
ATOM     30  C   LIG    1        1.822  33.592   4.904  0.00  0.00    -0.021 A 
ATOM     31  C   LIG    1        2.225  34.844   4.410  0.00  0.00    +0.009 A 
ATOM     32  C   LIG    1        1.286  35.836   4.105  0.00  0.00    +0.046 A 
ATOM     33  C   LIG    1       -0.073  35.607   4.301  0.00  0.00    +0.121 A 
ATOM     34  C   LIG    1       -0.487  34.371   4.790  0.00  0.00    +0.059 A 
ATOM     35  C   LIG    1        0.448  33.365   5.068  0.00  0.00    +0.045 A 
ATOM     36  C   LIG    1       -0.058  32.006   5.362  0.00  0.00    +0.253 C 
ATOM     37  O   LIG    1       -1.262  31.802   5.478  0.00  0.00    -0.270 OA
BRANCH  33  38
ATOM     38  O   LIG    1       -1.087  36.482   4.029  0.00  0.00    -0.495 OA
ATOM     39  C   LIG    1       -2.406  35.950   4.011  0.00  0.00    +0.277 C 
ENDBRANCH  33  38
ENDBRANCH  23  24
ENDBRANCH  22  23
ENDBRANCH   4  22
TORSDOF 7
ENDMDL
MODEL 7
REMARK VINA RESULT:       5.2      5.053     10.618
REMARK  Name = 
REMARK                            x       y       z     vdW  Elec       q    Type
REMARK                         _______ _______ _______ _____ _____    ______ ____
ROOT
ATOM      1  C   LIG    1        3.468  33.307   4.888  0.00  0.00    +0.109 A 
ATOM      2  C   LIG    1        3.221  34.004   3.704  0.00  0.00    +0.029 A 
ATOM      3  C   LIG    1        2.490  35.188   3.747  0.00  0.00    +0.005 A 
ATOM      4  C   LIG    1        2.003  35.671   4.966  0.00  0.00    -0.046 A 
ATOM      5  C   LIG    1        2.275  34.959   6.150  0.00  0.00    +0.005 A 
ATOM      6  C   LIG    1        3.010  33.780   6.117  0.00  0.00    +0.029 A 
ENDROOT
BRANCH   1   7
ATOM      7  S   LIG    1        4.276  31.737   4.823  0.00  0.00    +0.076 S 
ATOM      8  O   LIG    1        3.532  30.870   3.935  0.00  0.00    -0.150 OA
ATOM      9  O   LIG    1        5.694  31.955   4.646  0.00  0.00    -0.150 OA
BRANCH   7  12
ATOM     10  O   LIG    1        3.366  29.962   8.041  0.00  0.00    -0.251 OA
ATOM     11  C   LIG    1        3.591  30.018   6.845  0.00  0.00    +0.319 C 
ATOM     12  N   LIG    1        4.015  31.241   6.368  0.00  0.00    -0.169 N 
ATOM     13  H   LIG    1        4.073  31.951   7.092  0.00  0.00    +0.178 HD
ATOM     14  N   LIG    1        3.475  29.000   5.954  0.00  0.00    -0.295 N 
ATOM     15  H   LIG    1        3.710  29.212   4.995  0.00  0.00    +0.151 HD
BRANCH  14  16
ATOM     16  C   LIG    1        3.065  27.623   6.214  0.00  0.00    +0.074 C 
ATOM     17  C   LIG    1        3.996  26.563   5.624  0.00  0.00    +0.022 C 
ATOM     18  C   LIG    1        3.772  26.286   4.143  0.00  0.00    +0.002 C 
ATOM     19  C   LIG    1        2.301  26.092   3.771  0.00  0.00    +0.000 C 
ATOM     20  C   LIG    1        1.315  27.059   4.423  0.00  0.00    +0.002 C 
ATOM     21  C   LIG    1        1.598  27.331   5.894  0.00  0.00    +0.022 C 
ENDBRANCH  14  16
ENDBRANCH   7  12
ENDBRANCH   1   7
BRANCH   4  22
ATOM     22  C   LIG    1        1.164  36.912   5.093  0.00  0.00    +0.054 C 
BRANCH  22  23
ATOM     23  C   LIG    1       -0.350  36.774   5.346  0.00  0.00    +0.121 C 
BRANCH  23  24
ATOM     24  N   LIG    1       -0.723  35.407   5.010  0.00  0.00    -0.237 N 
ATOM     25  C   LIG    1       -1.286  35.141   3.777  0.00  0.00    +0.232 C 
ATOM     26  O   LIG    1       -1.996  35.951   3.180  0.00  0.00    -0.274 OA
ATOM     27  C   LIG    1       -0.797  33.835   3.136  0.00  0.00    +0.067 C 
ATOM     28  C   LIG    1        0.514  34.218   2.413  0.00  0.00    +0.025 C 
ATOM     29  C   LIG    1       -1.832  33.366   2.098  0.00  0.00    +0.025 C 
ATOM     30  C   LIG    1       -0.501  32.752   4.168  0.00  0.00    -0.021 A 
ATOM     31  C   LIG    1       -0.140  31.451   3.783  0.00  0.00    +0.009 A 
ATOM     32  C   LIG    1        0.183  30.479   4.736  0.00  0.00    +0.046 A 
ATOM     33  C   LIG    1        0.138  30.779   6.094  0.00  0.00    +0.121 A 
ATOM     34  C   LIG    1       -0.219  32.065   6.492  0.00  0.00    +0.059 A 
ATOM     35  C   LIG    1       -0.514  33.049   5.539  0.00  0.00    +0.045 A 
ATOM     36  C   LIG    1       -0.660  34.446   6.003  0.00  0.00    +0.253 C 
ATOM     37  O   LIG    1       -0.643  34.709   7.201  0.00  0.00    -0.270 OA
BRANCH  33  38
ATOM     38  O   LIG    1        0.444  29.930   7.120  0.00  0.00    -0.495 OA
ATOM     39  C   LIG    1       -0.633  29.508   7.947  0.00  0.00    +0.277 C 
ENDBRANCH  33  38
ENDBRANCH  23  24
ENDBRANCH  22  23
ENDBRANCH   4  22
TORSDOF 7
ENDMDL
