MODEL 1
REMARK VINA RESULT:      -9.8      0.000      0.000
REMARK  Name = 
REMARK                            x       y       z     vdW  Elec       q    Type
REMARK                         _______ _______ _______ _____ _____    ______ ____
ROOT
ATOM      1  C   LIG    1      -49.652   7.285 -46.515  0.00  0.00    +0.109 A 
ATOM      2  C   LIG    1      -49.197   6.546 -45.423  0.00  0.00    +0.029 A 
ATOM      3  C   LIG    1      -47.845   6.573 -45.093  0.00  0.00    +0.005 A 
ATOM      4  C   LIG    1      -46.949   7.330 -45.854  0.00  0.00    -0.046 A 
ATOM      5  C   LIG    1      -47.432   8.080 -46.945  0.00  0.00    +0.005 A 
ATOM      6  C   LIG    1      -48.781   8.064 -47.277  0.00  0.00    +0.029 A 
ENDROOT
BRANCH   1   7
ATOM      7  S   LIG    1      -51.339   7.147 -47.020  0.00  0.00    +0.076 S 
ATOM      8  O   LIG    1      -51.781   5.789 -46.795  0.00  0.00    -0.150 OA
ATOM      9  O   LIG    1      -52.074   8.273 -46.488  0.00  0.00    -0.150 OA
BRANCH   7  12
ATOM     10  O   LIG    1      -51.665   7.839 -50.728  0.00  0.00    -0.251 OA
ATOM     11  C   LIG    1      -52.019   7.906 -49.564  0.00  0.00    +0.319 C 
ATOM     12  N   LIG    1      -51.150   7.368 -48.638  0.00  0.00    -0.169 N 
ATOM     13  H   LIG    1      -50.318   6.968 -49.060  0.00  0.00    +0.178 HD
ATOM     14  N   LIG    1      -53.167   8.464 -49.102  0.00  0.00    -0.295 N 
ATOM     15  H   LIG    1      -53.306   8.445 -48.102  0.00  0.00    +0.151 HD
BRANCH  14  16
ATOM     16  C   LIG    1      -54.227   9.106 -49.874  0.00  0.00    +0.074 C 
ATOM     17  C   LIG    1      -53.795  10.375 -50.610  0.00  0.00    +0.022 C 
ATOM     18  C   LIG    1      -53.759  11.623 -49.738  0.00  0.00    +0.002 C 
ATOM     19  C   LIG    1      -55.008  11.805 -48.875  0.00  0.00    +0.000 C 
ATOM     20  C   LIG    1      -55.546  10.542 -48.204  0.00  0.00    +0.002 C 
ATOM     21  C   LIG    1      -55.533   9.313 -49.104  0.00  0.00    +0.022 C 
ENDBRANCH  14  16
ENDBRANCH   7  12
ENDBRANCH   1   7
BRANCH   4  22
ATOM     22  C   LIG    1      -45.469   7.374 -45.597  0.00  0.00    +0.054 C 
BRANCH  22  23
ATOM     23  C   LIG    1      -44.954   7.259 -44.148  0.00  0.00    +0.121 C 
BRANCH  23  24
ATOM     24  N   LIG    1      -45.302   8.497 -43.464  0.00  0.00    -0.237 N 
ATOM     25  C   LIG    1      -44.606   9.654 -43.759  0.00  0.00    +0.232 C 
ATOM     26  O   LIG    1      -43.421   9.652 -44.091  0.00  0.00    -0.274 OA
ATOM     27  C   LIG    1      -45.485  10.910 -43.821  0.00  0.00    +0.067 C 
ATOM     28  C   LIG    1      -46.048  10.926 -45.260  0.00  0.00    +0.025 C 
ATOM     29  C   LIG    1      -44.601  12.152 -43.608  0.00  0.00    +0.025 C 
ATOM     30  C   LIG    1      -46.643  10.865 -42.832  0.00  0.00    -0.021 A 
ATOM     31  C   LIG    1      -47.505  11.960 -42.659  0.00  0.00    +0.009 A 
ATOM     32  C   LIG    1      -48.598  11.889 -41.788  0.00  0.00    +0.046 A 
ATOM     33  C   LIG    1      -48.847  10.729 -41.060  0.00  0.00    +0.121 A 
ATOM     34  C   LIG    1      -48.002   9.635 -41.220  0.00  0.00    +0.059 A 
ATOM     35  C   LIG    1      -46.923   9.693 -42.113  0.00  0.00    +0.045 A 
ATOM     36  C   LIG    1      -46.201   8.437 -42.415  0.00  0.00    +0.253 C 
ATOM     37  O   LIG    1      -46.466   7.406 -41.806  0.00  0.00    -0.270 OA
BRANCH  33  38
ATOM     38  O   LIG    1      -49.884  10.526 -40.194  0.00  0.00    -0.495 OA
ATOM     39  C   LIG    1      -50.487  11.684 -39.631  0.00  0.00    +0.277 C 
ENDBRANCH  33  38
ENDBRANCH  23  24
ENDBRANCH  22  23
ENDBRANCH   4  22
TORSDOF 7
ENDMDL
MODEL 2
REMARK VINA RESULT:      -9.4      5.689     10.199
REMARK  Name = 
REMARK                            x       y       z     vdW  Elec       q    Type
REMARK                         _______ _______ _______ _____ _____    ______ ____
ROOT
ATOM      1  C   LIG    1      -41.540  15.891 -44.986  0.00  0.00    +0.109 A 
ATOM      2  C   LIG    1      -41.356  15.161 -43.811  0.00  0.00    +0.029 A 
ATOM      3  C   LIG    1      -42.220  14.109 -43.515  0.00  0.00    +0.005 A 
ATOM      4  C   LIG    1      -43.265  13.791 -44.388  0.00  0.00    -0.046 A 
ATOM      5  C   LIG    1      -43.424  14.532 -45.575  0.00  0.00    +0.005 A 
ATOM      6  C   LIG    1      -42.563  15.579 -45.881  0.00  0.00    +0.029 A 
ENDROOT
BRANCH   1   7
ATOM      7  S   LIG    1      -40.534  17.310 -45.298  0.00  0.00    +0.076 S 
ATOM      8  O   LIG    1      -40.755  17.744 -46.659  0.00  0.00    -0.150 OA
ATOM      9  O   LIG    1      -40.669  18.224 -44.187  0.00  0.00    -0.150 OA
BRANCH   7  12
ATOM     10  O   LIG    1      -37.482  15.072 -45.421  0.00  0.00    -0.251 OA
ATOM     11  C   LIG    1      -38.608  15.411 -45.741  0.00  0.00    +0.319 C 
ATOM     12  N   LIG    1      -39.051  16.606 -45.214  0.00  0.00    -0.169 N 
ATOM     13  H   LIG    1      -38.368  17.049 -44.606  0.00  0.00    +0.178 HD
ATOM     14  N   LIG    1      -39.450  14.735 -46.565  0.00  0.00    -0.295 N 
ATOM     15  H   LIG    1      -40.351  15.159 -46.735  0.00  0.00    +0.151 HD
BRANCH  14  16
ATOM     16  C   LIG    1      -39.208  13.470 -47.252  0.00  0.00    +0.074 C 
ATOM     17  C   LIG    1      -40.218  13.144 -48.353  0.00  0.00    +0.022 C 
ATOM     18  C   LIG    1      -41.527  12.550 -47.847  0.00  0.00    +0.002 C 
ATOM     19  C   LIG    1      -41.336  11.422 -46.832  0.00  0.00    +0.000 C 
ATOM     20  C   LIG    1      -40.258  11.653 -45.773  0.00  0.00    +0.002 C 
ATOM     21  C   LIG    1      -38.981  12.278 -46.320  0.00  0.00    +0.022 C 
ENDBRANCH  14  16
ENDBRANCH   7  12
ENDBRANCH   1   7
BRANCH   4  22
ATOM     22  C   LIG    1      -44.270  12.706 -44.120  0.00  0.00    +0.054 C 
BRANCH  22  23
ATOM     23  C   LIG    1      -45.517  12.597 -45.021  0.00  0.00    +0.121 C 
BRANCH  23  24
ATOM     24  N   LIG    1      -46.349  11.529 -44.484  0.00  0.00    -0.237 N 
ATOM     25  C   LIG    1      -46.246  10.257 -45.015  0.00  0.00    +0.232 C 
ATOM     26  O   LIG    1      -45.969  10.048 -46.196  0.00  0.00    -0.274 OA
ATOM     27  C   LIG    1      -46.318   9.138 -43.968  0.00  0.00    +0.067 C 
ATOM     28  C   LIG    1      -44.872   8.995 -43.443  0.00  0.00    +0.025 C 
ATOM     29  C   LIG    1      -46.739   7.829 -44.660  0.00  0.00    +0.025 C 
ATOM     30  C   LIG    1      -47.240   9.483 -42.804  0.00  0.00    -0.021 A 
ATOM     31  C   LIG    1      -47.523   8.552 -41.791  0.00  0.00    +0.009 A 
ATOM     32  C   LIG    1      -48.327   8.895 -40.698  0.00  0.00    +0.046 A 
ATOM     33  C   LIG    1      -48.878  10.170 -40.600  0.00  0.00    +0.121 A 
ATOM     34  C   LIG    1      -48.607  11.104 -41.596  0.00  0.00    +0.059 A 
ATOM     35  C   LIG    1      -47.778  10.772 -42.676  0.00  0.00    +0.045 A 
ATOM     36  C   LIG    1      -47.339  11.861 -43.577  0.00  0.00    +0.253 C 
ATOM     37  O   LIG    1      -47.788  12.994 -43.447  0.00  0.00    -0.270 OA
BRANCH  33  38
ATOM     38  O   LIG    1      -49.662  10.635 -39.581  0.00  0.00    -0.495 OA
ATOM     39  C   LIG    1      -50.447  11.789 -39.851  0.00  0.00    +0.277 C 
ENDBRANCH  33  38
ENDBRANCH  23  24
ENDBRANCH  22  23
ENDBRANCH   4  22
TORSDOF 7
ENDMDL
MODEL 3
REMARK VINA RESULT:      -9.1      5.581     10.428
REMARK  Name = 
REMARK                            x       y       z     vdW  Elec       q    Type
REMARK                         _______ _______ _______ _____ _____    ______ ____
ROOT
ATOM      1  C   LIG    1      -42.628  13.726 -44.697  0.00  0.00    +0.109 A 
ATOM      2  C   LIG    1      -43.900  13.924 -45.237  0.00  0.00    +0.029 A 
ATOM      3  C   LIG    1      -44.650  12.825 -45.646  0.00  0.00    +0.005 A 
ATOM      4  C   LIG    1      -44.129  11.532 -45.522  0.00  0.00    -0.046 A 
ATOM      5  C   LIG    1      -42.849  11.354 -44.962  0.00  0.00    +0.005 A 
ATOM      6  C   LIG    1      -42.097  12.445 -44.545  0.00  0.00    +0.029 A 
ENDROOT
BRANCH   1   7
ATOM      7  S   LIG    1      -41.620  15.122 -44.304  0.00  0.00    +0.076 S 
ATOM      8  O   LIG    1      -42.019  16.232 -45.140  0.00  0.00    -0.150 OA
ATOM      9  O   LIG    1      -41.553  15.252 -42.865  0.00  0.00    -0.150 OA
BRANCH   7  12
ATOM     10  O   LIG    1      -38.210  14.553 -45.846  0.00  0.00    -0.251 OA
ATOM     11  C   LIG    1      -39.125  15.241 -45.431  0.00  0.00    +0.319 C 
ATOM     12  N   LIG    1      -40.171  14.563 -44.842  0.00  0.00    -0.169 N 
ATOM     13  H   LIG    1      -40.042  13.555 -44.843  0.00  0.00    +0.178 HD
ATOM     14  N   LIG    1      -39.203  16.596 -45.486  0.00  0.00    -0.295 N 
ATOM     15  H   LIG    1      -40.031  17.016 -45.087  0.00  0.00    +0.151 HD
BRANCH  14  16
ATOM     16  C   LIG    1      -38.227  17.529 -46.039  0.00  0.00    +0.074 C 
ATOM     17  C   LIG    1      -38.483  18.996 -45.688  0.00  0.00    +0.022 C 
ATOM     18  C   LIG    1      -39.533  19.674 -46.558  0.00  0.00    +0.002 C 
ATOM     19  C   LIG    1      -39.347  19.421 -48.054  0.00  0.00    +0.000 C 
ATOM     20  C   LIG    1      -38.980  17.992 -48.449  0.00  0.00    +0.002 C 
ATOM     21  C   LIG    1      -37.951  17.343 -47.532  0.00  0.00    +0.022 C 
ENDBRANCH  14  16
ENDBRANCH   7  12
ENDBRANCH   1   7
BRANCH   4  22
ATOM     22  C   LIG    1      -44.851  10.297 -45.984  0.00  0.00    +0.054 C 
BRANCH  22  23
ATOM     23  C   LIG    1      -46.388  10.322 -46.093  0.00  0.00    +0.121 C 
BRANCH  23  24
ATOM     24  N   LIG    1      -46.915   9.544 -44.980  0.00  0.00    -0.237 N 
ATOM     25  C   LIG    1      -46.828   8.166 -45.014  0.00  0.00    +0.232 C 
ATOM     26  O   LIG    1      -46.873   7.521 -46.061  0.00  0.00    -0.274 OA
ATOM     27  C   LIG    1      -46.481   7.530 -43.661  0.00  0.00    +0.067 C 
ATOM     28  C   LIG    1      -44.939   7.588 -43.582  0.00  0.00    +0.025 C 
ATOM     29  C   LIG    1      -46.935   6.059 -43.666  0.00  0.00    +0.025 C 
ATOM     30  C   LIG    1      -47.071   8.299 -42.484  0.00  0.00    -0.021 A 
ATOM     31  C   LIG    1      -46.955   7.827 -41.167  0.00  0.00    +0.009 A 
ATOM     32  C   LIG    1      -47.452   8.567 -40.087  0.00  0.00    +0.046 A 
ATOM     33  C   LIG    1      -48.087   9.787 -40.300  0.00  0.00    +0.121 A 
ATOM     34  C   LIG    1      -48.210  10.268 -41.600  0.00  0.00    +0.059 A 
ATOM     35  C   LIG    1      -47.688   9.544 -42.680  0.00  0.00    +0.045 A 
ATOM     36  C   LIG    1      -47.640  10.204 -44.004  0.00  0.00    +0.253 C 
ATOM     37  O   LIG    1      -48.154  11.305 -44.169  0.00  0.00    -0.270 OA
BRANCH  33  38
ATOM     38  O   LIG    1      -48.599  10.610 -39.337  0.00  0.00    -0.495 OA
ATOM     39  C   LIG    1      -49.918  11.099 -39.544  0.00  0.00    +0.277 C 
ENDBRANCH  33  38
ENDBRANCH  23  24
ENDBRANCH  22  23
ENDBRANCH   4  22
TORSDOF 7
ENDMDL
MODEL 4
REMARK VINA RESULT:      -9.0      4.471      8.230
REMARK  Name = 
REMARK                            x       y       z     vdW  Elec       q    Type
REMARK                         _______ _______ _______ _____ _____    ______ ____
ROOT
ATOM      1  C   LIG    1      -46.790   9.567 -45.828  0.00  0.00    +0.109 A 
ATOM      2  C   LIG    1      -47.390  10.795 -45.547  0.00  0.00    +0.029 A 
ATOM      3  C   LIG    1      -46.596  11.873 -45.165  0.00  0.00    +0.005 A 
ATOM      4  C   LIG    1      -45.210  11.724 -45.058  0.00  0.00    -0.046 A 
ATOM      5  C   LIG    1      -44.624  10.479 -45.359  0.00  0.00    +0.005 A 
ATOM      6  C   LIG    1      -45.408   9.399 -45.748  0.00  0.00    +0.029 A 
ENDROOT
BRANCH   1   7
ATOM      7  S   LIG    1      -47.803   8.162 -46.180  0.00  0.00    +0.076 S 
ATOM      8  O   LIG    1      -49.166   8.468 -45.805  0.00  0.00    -0.150 OA
ATOM      9  O   LIG    1      -47.479   7.680 -47.504  0.00  0.00    -0.150 OA
BRANCH   7  12
ATOM     10  O   LIG    1      -46.409   6.354 -43.160  0.00  0.00    -0.251 OA
ATOM     11  C   LIG    1      -47.002   7.260 -43.720  0.00  0.00    +0.319 C 
ATOM     12  N   LIG    1      -47.187   7.110 -45.078  0.00  0.00    -0.169 N 
ATOM     13  H   LIG    1      -46.785   6.250 -45.441  0.00  0.00    +0.178 HD
ATOM     14  N   LIG    1      -47.499   8.380 -43.135  0.00  0.00    -0.295 N 
ATOM     15  H   LIG    1      -47.974   9.032 -43.743  0.00  0.00    +0.151 HD
BRANCH  14  16
ATOM     16  C   LIG    1      -47.445   8.756 -41.726  0.00  0.00    +0.074 C 
ATOM     17  C   LIG    1      -48.621   9.613 -41.253  0.00  0.00    +0.022 C 
ATOM     18  C   LIG    1      -48.493  11.093 -41.590  0.00  0.00    +0.002 C 
ATOM     19  C   LIG    1      -47.123  11.683 -41.251  0.00  0.00    +0.000 C 
ATOM     20  C   LIG    1      -45.916  10.815 -41.604  0.00  0.00    +0.002 C 
ATOM     21  C   LIG    1      -46.103   9.339 -41.279  0.00  0.00    +0.022 C 
ENDBRANCH  14  16
ENDBRANCH   7  12
ENDBRANCH   1   7
BRANCH   4  22
ATOM     22  C   LIG    1      -44.287  12.820 -44.604  0.00  0.00    +0.054 C 
BRANCH  22  23
ATOM     23  C   LIG    1      -43.116  12.476 -43.663  0.00  0.00    +0.121 C 
BRANCH  23  24
ATOM     24  N   LIG    1      -41.904  13.020 -44.261  0.00  0.00    -0.237 N 
ATOM     25  C   LIG    1      -41.143  12.224 -45.095  0.00  0.00    +0.232 C 
ATOM     26  O   LIG    1      -41.055  11.004 -44.955  0.00  0.00    -0.274 OA
ATOM     27  C   LIG    1      -40.576  12.963 -46.314  0.00  0.00    +0.067 C 
ATOM     28  C   LIG    1      -41.707  12.917 -47.365  0.00  0.00    +0.025 C 
ATOM     29  C   LIG    1      -39.356  12.190 -46.847  0.00  0.00    +0.025 C 
ATOM     30  C   LIG    1      -40.234  14.417 -46.010  0.00  0.00    -0.021 A 
ATOM     31  C   LIG    1      -39.609  15.239 -46.963  0.00  0.00    +0.009 A 
ATOM     32  C   LIG    1      -39.349  16.587 -46.694  0.00  0.00    +0.046 A 
ATOM     33  C   LIG    1      -39.694  17.142 -45.465  0.00  0.00    +0.121 A 
ATOM     34  C   LIG    1      -40.314  16.341 -44.511  0.00  0.00    +0.059 A 
ATOM     35  C   LIG    1      -40.602  14.997 -44.788  0.00  0.00    +0.045 A 
ATOM     36  C   LIG    1      -41.462  14.260 -43.836  0.00  0.00    +0.253 C 
ATOM     37  O   LIG    1      -41.808  14.777 -42.779  0.00  0.00    -0.270 OA
BRANCH  33  38
ATOM     38  O   LIG    1      -39.511  18.442 -45.086  0.00  0.00    -0.495 OA
ATOM     39  C   LIG    1      -40.602  19.331 -45.291  0.00  0.00    +0.277 C 
ENDBRANCH  33  38
ENDBRANCH  23  24
ENDBRANCH  22  23
ENDBRANCH   4  22
TORSDOF 7
ENDMDL
MODEL 5
REMARK VINA RESULT:      -9.0      5.269     10.550
REMARK  Name = 
REMARK                            x       y       z     vdW  Elec       q    Type
REMARK                         _______ _______ _______ _____ _____    ______ ____
ROOT
ATOM      1  C   LIG    1      -41.547  15.936 -44.714  0.00  0.00    +0.109 A 
ATOM      2  C   LIG    1      -42.591  15.416 -45.479  0.00  0.00    +0.029 A 
ATOM      3  C   LIG    1      -43.273  14.288 -45.030  0.00  0.00    +0.005 A 
ATOM      4  C   LIG    1      -42.909  13.679 -43.824  0.00  0.00    -0.046 A 
ATOM      5  C   LIG    1      -41.861  14.229 -43.061  0.00  0.00    +0.005 A 
ATOM      6  C   LIG    1      -41.180  15.358 -43.499  0.00  0.00    +0.029 A 
ENDROOT
BRANCH   1   7
ATOM      7  S   LIG    1      -40.591  17.282 -45.344  0.00  0.00    +0.076 S 
ATOM      8  O   LIG    1      -40.924  17.475 -46.737  0.00  0.00    -0.150 OA
ATOM      9  O   LIG    1      -40.654  18.375 -44.399  0.00  0.00    -0.150 OA
BRANCH   7  12
ATOM     10  O   LIG    1      -37.507  15.087 -45.416  0.00  0.00    -0.251 OA
ATOM     11  C   LIG    1      -38.647  15.389 -45.724  0.00  0.00    +0.319 C 
ATOM     12  N   LIG    1      -39.095  16.607 -45.258  0.00  0.00    -0.169 N 
ATOM     13  H   LIG    1      -38.403  17.096 -44.697  0.00  0.00    +0.178 HD
ATOM     14  N   LIG    1      -39.499  14.652 -46.482  0.00  0.00    -0.295 N 
ATOM     15  H   LIG    1      -40.411  15.051 -46.652  0.00  0.00    +0.151 HD
BRANCH  14  16
ATOM     16  C   LIG    1      -39.255  13.351 -47.098  0.00  0.00    +0.074 C 
ATOM     17  C   LIG    1      -40.251  12.973 -48.196  0.00  0.00    +0.022 C 
ATOM     18  C   LIG    1      -41.570  12.413 -47.680  0.00  0.00    +0.002 C 
ATOM     19  C   LIG    1      -41.401  11.340 -46.603  0.00  0.00    +0.000 C 
ATOM     20  C   LIG    1      -40.338  11.620 -45.542  0.00  0.00    +0.002 C 
ATOM     21  C   LIG    1      -39.050  12.209 -46.101  0.00  0.00    +0.022 C 
ENDBRANCH  14  16
ENDBRANCH   7  12
ENDBRANCH   1   7
BRANCH   4  22
ATOM     22  C   LIG    1      -43.559  12.432 -43.293  0.00  0.00    +0.054 C 
BRANCH  22  23
ATOM     23  C   LIG    1      -45.096  12.373 -43.185  0.00  0.00    +0.121 C 
BRANCH  23  24
ATOM     24  N   LIG    1      -45.489  10.979 -43.335  0.00  0.00    -0.237 N 
ATOM     25  C   LIG    1      -45.658  10.197 -42.208  0.00  0.00    +0.232 C 
ATOM     26  O   LIG    1      -45.005  10.362 -41.178  0.00  0.00    -0.274 OA
ATOM     27  C   LIG    1      -46.854   9.238 -42.289  0.00  0.00    +0.067 C 
ATOM     28  C   LIG    1      -48.067  10.083 -41.839  0.00  0.00    +0.025 C 
ATOM     29  C   LIG    1      -46.641   8.084 -41.293  0.00  0.00    +0.025 C 
ATOM     30  C   LIG    1      -47.099   8.725 -43.703  0.00  0.00    -0.021 A 
ATOM     31  C   LIG    1      -48.082   7.760 -43.974  0.00  0.00    +0.009 A 
ATOM     32  C   LIG    1      -48.337   7.335 -45.283  0.00  0.00    +0.046 A 
ATOM     33  C   LIG    1      -47.607   7.854 -46.348  0.00  0.00    +0.121 A 
ATOM     34  C   LIG    1      -46.629   8.812 -46.096  0.00  0.00    +0.059 A 
ATOM     35  C   LIG    1      -46.391   9.261 -44.790  0.00  0.00    +0.045 A 
ATOM     36  C   LIG    1      -45.511  10.436 -44.607  0.00  0.00    +0.253 C 
ATOM     37  O   LIG    1      -44.915  10.921 -45.562  0.00  0.00    -0.270 OA
BRANCH  33  38
ATOM     38  O   LIG    1      -47.768   7.538 -47.668  0.00  0.00    -0.495 OA
ATOM     39  C   LIG    1      -47.879   8.623 -48.580  0.00  0.00    +0.277 C 
ENDBRANCH  33  38
ENDBRANCH  23  24
ENDBRANCH  22  23
ENDBRANCH   4  22
TORSDOF 7
ENDMDL
MODEL 6
REMARK VINA RESULT:      -8.9      5.630     10.682
REMARK  Name = 
REMARK                            x       y       z     vdW  Elec       q    Type
REMARK                         _______ _______ _______ _____ _____    ______ ____
ROOT
ATOM      1  C   LIG    1      -41.342  16.002 -44.728  0.00  0.00    +0.109 A 
ATOM      2  C   LIG    1      -42.281  15.378 -45.551  0.00  0.00    +0.029 A 
ATOM      3  C   LIG    1      -42.874  14.189 -45.136  0.00  0.00    +0.005 A 
ATOM      4  C   LIG    1      -42.526  13.622 -43.905  0.00  0.00    -0.046 A 
ATOM      5  C   LIG    1      -41.586  14.275 -43.085  0.00  0.00    +0.005 A 
ATOM      6  C   LIG    1      -40.995  15.466 -43.489  0.00  0.00    +0.029 A 
ENDROOT
BRANCH   1   7
ATOM      7  S   LIG    1      -40.488  17.435 -45.310  0.00  0.00    +0.076 S 
ATOM      8  O   LIG    1      -40.808  17.630 -46.707  0.00  0.00    -0.150 OA
ATOM      9  O   LIG    1      -40.660  18.498 -44.345  0.00  0.00    -0.150 OA
BRANCH   7  12
ATOM     10  O   LIG    1      -37.230  15.509 -45.377  0.00  0.00    -0.251 OA
ATOM     11  C   LIG    1      -38.381  15.729 -45.708  0.00  0.00    +0.319 C 
ATOM     12  N   LIG    1      -38.944  16.884 -45.205  0.00  0.00    -0.169 N 
ATOM     13  H   LIG    1      -38.312  17.402 -44.602  0.00  0.00    +0.178 HD
ATOM     14  N   LIG    1      -39.146  14.959 -46.524  0.00  0.00    -0.295 N 
ATOM     15  H   LIG    1      -40.083  15.289 -46.707  0.00  0.00    +0.151 HD
BRANCH  14  16
ATOM     16  C   LIG    1      -38.775  13.712 -47.187  0.00  0.00    +0.074 C 
ATOM     17  C   LIG    1      -39.698  13.309 -48.339  0.00  0.00    +0.022 C 
ATOM     18  C   LIG    1      -40.985  12.622 -47.900  0.00  0.00    +0.002 C 
ATOM     19  C   LIG    1      -40.768  11.516 -46.867  0.00  0.00    +0.000 C 
ATOM     20  C   LIG    1      -39.769  11.829 -45.753  0.00  0.00    +0.002 C 
ATOM     21  C   LIG    1      -38.513  12.544 -46.235  0.00  0.00    +0.022 C 
ENDBRANCH  14  16
ENDBRANCH   7  12
ENDBRANCH   1   7
BRANCH   4  22
ATOM     22  C   LIG    1      -43.080  12.317 -43.405  0.00  0.00    +0.054 C 
BRANCH  22  23
ATOM     23  C   LIG    1      -44.463  12.300 -42.723  0.00  0.00    +0.121 C 
BRANCH  23  24
ATOM     24  N   LIG    1      -45.347  11.497 -43.556  0.00  0.00    -0.237 N 
ATOM     25  C   LIG    1      -45.803  12.011 -44.755  0.00  0.00    +0.232 C 
ATOM     26  O   LIG    1      -46.003  13.212 -44.932  0.00  0.00    -0.274 OA
ATOM     27  C   LIG    1      -45.853  10.984 -45.894  0.00  0.00    +0.067 C 
ATOM     28  C   LIG    1      -44.425  10.978 -46.483  0.00  0.00    +0.025 C 
ATOM     29  C   LIG    1      -46.843  11.472 -46.967  0.00  0.00    +0.025 C 
ATOM     30  C   LIG    1      -46.198   9.582 -45.404  0.00  0.00    -0.021 A 
ATOM     31  C   LIG    1      -46.393   8.519 -46.300  0.00  0.00    +0.009 A 
ATOM     32  C   LIG    1      -46.655   7.224 -45.839  0.00  0.00    +0.046 A 
ATOM     33  C   LIG    1      -46.742   6.965 -44.474  0.00  0.00    +0.121 A 
ATOM     34  C   LIG    1      -46.551   8.008 -43.573  0.00  0.00    +0.059 A 
ATOM     35  C   LIG    1      -46.260   9.300 -44.032  0.00  0.00    +0.045 A 
ATOM     36  C   LIG    1      -45.841  10.313 -43.038  0.00  0.00    +0.253 C 
ATOM     37  O   LIG    1      -45.868  10.057 -41.839  0.00  0.00    -0.270 OA
BRANCH  33  38
ATOM     38  O   LIG    1      -46.975   5.748 -43.896  0.00  0.00    -0.495 OA
ATOM     39  C   LIG    1      -45.835   4.986 -43.523  0.00  0.00    +0.277 C 
ENDBRANCH  33  38
ENDBRANCH  23  24
ENDBRANCH  22  23
ENDBRANCH   4  22
TORSDOF 7
ENDMDL
MODEL 7
REMARK VINA RESULT:      -8.6      5.423     10.211
REMARK  Name = 
REMARK                            x       y       z     vdW  Elec       q    Type
REMARK                         _______ _______ _______ _____ _____    ______ ____
ROOT
ATOM      1  C   LIG    1      -39.271  12.250 -47.040  0.00  0.00    +0.109 A 
ATOM      2  C   LIG    1      -39.141  11.689 -45.769  0.00  0.00    +0.029 A 
ATOM      3  C   LIG    1      -40.280  11.275 -45.083  0.00  0.00    +0.005 A 
ATOM      4  C   LIG    1      -41.544  11.425 -45.663  0.00  0.00    -0.046 A 
ATOM      5  C   LIG    1      -41.651  11.982 -46.952  0.00  0.00    +0.005 A 
ATOM      6  C   LIG    1      -40.519  12.392 -47.646  0.00  0.00    +0.029 A 
ENDROOT
BRANCH   1   7
ATOM      7  S   LIG    1      -37.845  12.901 -47.856  0.00  0.00    +0.076 S 
ATOM      8  O   LIG    1      -36.906  11.825 -48.078  0.00  0.00    -0.150 OA
ATOM      9  O   LIG    1      -38.283  13.752 -48.939  0.00  0.00    -0.150 OA
BRANCH   7  12
ATOM     10  O   LIG    1      -37.146  15.524 -45.216  0.00  0.00    -0.251 OA
ATOM     11  C   LIG    1      -37.857  14.914 -45.996  0.00  0.00    +0.319 C 
ATOM     12  N   LIG    1      -37.263  13.855 -46.649  0.00  0.00    -0.169 N 
ATOM     13  H   LIG    1      -36.287  13.729 -46.397  0.00  0.00    +0.178 HD
ATOM     14  N   LIG    1      -39.162  15.171 -46.266  0.00  0.00    -0.295 N 
ATOM     15  H   LIG    1      -39.611  14.562 -46.935  0.00  0.00    +0.151 HD
BRANCH  14  16
ATOM     16  C   LIG    1      -40.008  16.215 -45.697  0.00  0.00    +0.074 C 
ATOM     17  C   LIG    1      -40.288  16.059 -44.201  0.00  0.00    +0.022 C 
ATOM     18  C   LIG    1      -41.397  15.067 -43.873  0.00  0.00    +0.002 C 
ATOM     19  C   LIG    1      -42.656  15.251 -44.721  0.00  0.00    +0.000 C 
ATOM     20  C   LIG    1      -42.426  15.521 -46.207  0.00  0.00    +0.002 C 
ATOM     21  C   LIG    1      -41.287  16.493 -46.488  0.00  0.00    +0.022 C 
ENDBRANCH  14  16
ENDBRANCH   7  12
ENDBRANCH   1   7
BRANCH   4  22
ATOM     22  C   LIG    1      -42.825  11.051 -44.972  0.00  0.00    +0.054 C 
BRANCH  22  23
ATOM     23  C   LIG    1      -43.835  12.158 -44.609  0.00  0.00    +0.121 C 
BRANCH  23  24
ATOM     24  N   LIG    1      -45.097  11.507 -44.289  0.00  0.00    -0.237 N 
ATOM     25  C   LIG    1      -46.040  11.327 -45.283  0.00  0.00    +0.232 C 
ATOM     26  O   LIG    1      -46.175  12.110 -46.223  0.00  0.00    -0.274 OA
ATOM     27  C   LIG    1      -46.766   9.977 -45.216  0.00  0.00    +0.067 C 
ATOM     28  C   LIG    1      -45.841   8.994 -45.968  0.00  0.00    +0.025 C 
ATOM     29  C   LIG    1      -48.105  10.089 -45.967  0.00  0.00    +0.025 C 
ATOM     30  C   LIG    1      -46.961   9.487 -43.786  0.00  0.00    -0.021 A 
ATOM     31  C   LIG    1      -47.692   8.322 -43.502  0.00  0.00    +0.009 A 
ATOM     32  C   LIG    1      -47.819   7.849 -42.191  0.00  0.00    +0.046 A 
ATOM     33  C   LIG    1      -47.231   8.537 -41.133  0.00  0.00    +0.121 A 
ATOM     34  C   LIG    1      -46.502   9.693 -41.398  0.00  0.00    +0.059 A 
ATOM     35  C   LIG    1      -46.349  10.152 -42.713  0.00  0.00    +0.045 A 
ATOM     36  C   LIG    1      -45.382  11.244 -42.961  0.00  0.00    +0.253 C 
ATOM     37  O   LIG    1      -44.826  11.807 -42.024  0.00  0.00    -0.270 OA
BRANCH  33  38
ATOM     38  O   LIG    1      -47.265   8.174 -39.816  0.00  0.00    -0.495 OA
ATOM     39  C   LIG    1      -47.746   9.145 -38.895  0.00  0.00    +0.277 C 
ENDBRANCH  33  38
ENDBRANCH  23  24
ENDBRANCH  22  23
ENDBRANCH   4  22
TORSDOF 7
ENDMDL
MODEL 8
REMARK VINA RESULT:      -8.5      4.271      6.421
REMARK  Name = 
REMARK                            x       y       z     vdW  Elec       q    Type
REMARK                         _______ _______ _______ _____ _____    ______ ____
ROOT
ATOM      1  C   LIG    1      -47.012   9.010 -46.125  0.00  0.00    +0.109 A 
ATOM      2  C   LIG    1      -45.925   8.537 -45.388  0.00  0.00    +0.029 A 
ATOM      3  C   LIG    1      -44.836   9.375 -45.159  0.00  0.00    +0.005 A 
ATOM      4  C   LIG    1      -44.830  10.677 -45.668  0.00  0.00    -0.046 A 
ATOM      5  C   LIG    1      -45.943  11.138 -46.398  0.00  0.00    +0.005 A 
ATOM      6  C   LIG    1      -47.037  10.311 -46.626  0.00  0.00    +0.029 A 
ENDROOT
BRANCH   1   7
ATOM      7  S   LIG    1      -48.333   7.911 -46.534  0.00  0.00    +0.076 S 
ATOM      8  O   LIG    1      -47.976   6.577 -46.102  0.00  0.00    -0.150 OA
ATOM      9  O   LIG    1      -49.581   8.521 -46.135  0.00  0.00    -0.150 OA
BRANCH   7  12
ATOM     10  O   LIG    1      -48.794   7.705 -50.286  0.00  0.00    -0.251 OA
ATOM     11  C   LIG    1      -49.181   7.698 -49.131  0.00  0.00    +0.319 C 
ATOM     12  N   LIG    1      -48.227   7.969 -48.173  0.00  0.00    -0.169 N 
ATOM     13  H   LIG    1      -47.305   8.130 -48.567  0.00  0.00    +0.178 HD
ATOM     14  N   LIG    1      -50.450   7.462 -48.708  0.00  0.00    -0.295 N 
ATOM     15  H   LIG    1      -50.606   7.501 -47.710  0.00  0.00    +0.151 HD
BRANCH  14  16
ATOM     16  C   LIG    1      -51.627   7.170 -49.520  0.00  0.00    +0.074 C 
ATOM     17  C   LIG    1      -52.502   8.387 -49.828  0.00  0.00    +0.022 C 
ATOM     18  C   LIG    1      -53.451   8.777 -48.702  0.00  0.00    +0.002 C 
ATOM     19  C   LIG    1      -54.222   7.595 -48.113  0.00  0.00    +0.000 C 
ATOM     20  C   LIG    1      -53.416   6.317 -47.888  0.00  0.00    +0.002 C 
ATOM     21  C   LIG    1      -52.458   5.985 -49.025  0.00  0.00    +0.022 C 
ENDBRANCH  14  16
ENDBRANCH   7  12
ENDBRANCH   1   7
BRANCH   4  22
ATOM     22  C   LIG    1      -43.676  11.627 -45.510  0.00  0.00    +0.054 C 
BRANCH  22  23
ATOM     23  C   LIG    1      -42.854  11.600 -44.206  0.00  0.00    +0.121 C 
BRANCH  23  24
ATOM     24  N   LIG    1      -41.669  12.417 -44.423  0.00  0.00    -0.237 N 
ATOM     25  C   LIG    1      -40.563  11.860 -45.036  0.00  0.00    +0.232 C 
ATOM     26  O   LIG    1      -40.263  10.672 -44.917  0.00  0.00    -0.274 OA
ATOM     27  C   LIG    1      -39.859  12.800 -46.023  0.00  0.00    +0.067 C 
ATOM     28  C   LIG    1      -40.633  12.631 -47.350  0.00  0.00    +0.025 C 
ATOM     29  C   LIG    1      -38.407  12.327 -46.219  0.00  0.00    +0.025 C 
ATOM     30  C   LIG    1      -39.923  14.260 -45.589  0.00  0.00    -0.021 A 
ATOM     31  C   LIG    1      -39.253  15.268 -46.302  0.00  0.00    +0.009 A 
ATOM     32  C   LIG    1      -39.362  16.612 -45.928  0.00  0.00    +0.046 A 
ATOM     33  C   LIG    1      -40.131  16.978 -44.827  0.00  0.00    +0.121 A 
ATOM     34  C   LIG    1      -40.802  15.991 -44.111  0.00  0.00    +0.059 A 
ATOM     35  C   LIG    1      -40.718  14.647 -44.500  0.00  0.00    +0.045 A 
ATOM     36  C   LIG    1      -41.626  13.676 -43.852  0.00  0.00    +0.253 C 
ATOM     37  O   LIG    1      -42.342  14.022 -42.917  0.00  0.00    -0.270 OA
BRANCH  33  38
ATOM     38  O   LIG    1      -40.332  18.250 -44.369  0.00  0.00    -0.495 OA
ATOM     39  C   LIG    1      -39.852  19.310 -45.186  0.00  0.00    +0.277 C 
ENDBRANCH  33  38
ENDBRANCH  23  24
ENDBRANCH  22  23
ENDBRANCH   4  22
TORSDOF 7
ENDMDL
MODEL 9
REMARK VINA RESULT:      -8.4      7.019     10.949
REMARK  Name = 
REMARK                            x       y       z     vdW  Elec       q    Type
REMARK                         _______ _______ _______ _____ _____    ______ ____
ROOT
ATOM      1  C   LIG    1      -43.239  13.272 -44.744  0.00  0.00    +0.109 A 
ATOM      2  C   LIG    1      -42.912  13.930 -45.931  0.00  0.00    +0.029 A 
ATOM      3  C   LIG    1      -41.927  14.914 -45.919  0.00  0.00    +0.005 A 
ATOM      4  C   LIG    1      -41.274  15.243 -44.726  0.00  0.00    -0.046 A 
ATOM      5  C   LIG    1      -41.611  14.557 -43.543  0.00  0.00    +0.005 A 
ATOM      6  C   LIG    1      -42.588  13.569 -43.547  0.00  0.00    +0.029 A 
ENDROOT
BRANCH   1   7
ATOM      7  S   LIG    1      -44.580  12.122 -44.726  0.00  0.00    +0.076 S 
ATOM      8  O   LIG    1      -45.807  12.838 -44.993  0.00  0.00    -0.150 OA
ATOM      9  O   LIG    1      -44.203  10.962 -45.502  0.00  0.00    -0.150 OA
BRANCH   7  12
ATOM     10  O   LIG    1      -44.971  10.579 -41.291  0.00  0.00    -0.251 OA
ATOM     11  C   LIG    1      -45.004  10.568 -42.509  0.00  0.00    +0.319 C 
ATOM     12  N   LIG    1      -44.556  11.713 -43.134  0.00  0.00    -0.169 N 
ATOM     13  H   LIG    1      -44.262  12.433 -42.481  0.00  0.00    +0.178 HD
ATOM     14  N   LIG    1      -45.425   9.544 -43.294  0.00  0.00    -0.295 N 
ATOM     15  H   LIG    1      -45.380   9.694 -44.292  0.00  0.00    +0.151 HD
BRANCH  14  16
ATOM     16  C   LIG    1      -45.924   8.238 -42.875  0.00  0.00    +0.074 C 
ATOM     17  C   LIG    1      -45.161   7.050 -43.462  0.00  0.00    +0.022 C 
ATOM     18  C   LIG    1      -45.571   6.682 -44.882  0.00  0.00    +0.002 C 
ATOM     19  C   LIG    1      -47.085   6.603 -45.083  0.00  0.00    +0.000 C 
ATOM     20  C   LIG    1      -47.904   7.710 -44.421  0.00  0.00    +0.002 C 
ATOM     21  C   LIG    1      -47.438   8.066 -43.015  0.00  0.00    +0.022 C 
ENDBRANCH  14  16
ENDBRANCH   7  12
ENDBRANCH   1   7
BRANCH   4  22
ATOM     22  C   LIG    1      -40.237  16.325 -44.617  0.00  0.00    +0.054 C 
BRANCH  22  23
ATOM     23  C   LIG    1      -40.680  17.758 -44.259  0.00  0.00    +0.121 C 
BRANCH  23  24
ATOM     24  N   LIG    1      -40.714  18.524 -45.497  0.00  0.00    -0.237 N 
ATOM     25  C   LIG    1      -39.551  18.690 -46.225  0.00  0.00    +0.232 C 
ATOM     26  O   LIG    1      -38.440  18.752 -45.700  0.00  0.00    -0.274 OA
ATOM     27  C   LIG    1      -39.749  18.600 -47.744  0.00  0.00    +0.067 C 
ATOM     28  C   LIG    1      -39.685  17.088 -48.060  0.00  0.00    +0.025 C 
ATOM     29  C   LIG    1      -38.580  19.315 -48.445  0.00  0.00    +0.025 C 
ATOM     30  C   LIG    1      -41.098  19.149 -48.193  0.00  0.00    -0.021 A 
ATOM     31  C   LIG    1      -41.433  19.250 -49.553  0.00  0.00    +0.009 A 
ATOM     32  C   LIG    1      -42.694  19.704 -49.954  0.00  0.00    +0.046 A 
ATOM     33  C   LIG    1      -43.644  20.080 -49.008  0.00  0.00    +0.121 A 
ATOM     34  C   LIG    1      -43.327  19.985 -47.656  0.00  0.00    +0.059 A 
ATOM     35  C   LIG    1      -42.075  19.503 -47.251  0.00  0.00    +0.045 A 
ATOM     36  C   LIG    1      -41.875  19.206 -45.815  0.00  0.00    +0.253 C 
ATOM     37  O   LIG    1      -42.741  19.490 -44.994  0.00  0.00    -0.270 OA
BRANCH  33  38
ATOM     38  O   LIG    1      -44.911  20.522 -49.267  0.00  0.00    -0.495 OA
ATOM     39  C   LIG    1      -45.136  21.922 -49.165  0.00  0.00    +0.277 C 
ENDBRANCH  33  38
ENDBRANCH  23  24
ENDBRANCH  22  23
ENDBRANCH   4  22
TORSDOF 7
ENDMDL
