MODEL 1
REMARK VINA RESULT:       0.9      0.000      0.000
REMARK  Name = 
REMARK                            x       y       z     vdW  Elec       q    Type
REMARK                         _______ _______ _______ _____ _____    ______ ____
ROOT
ATOM      1  C   LIG    1       25.406 -23.932 -12.239  0.00  0.00    +0.109 A 
ATOM      2  C   LIG    1       24.080 -23.611 -11.944  0.00  0.00    +0.029 A 
ATOM      3  C   LIG    1       23.133 -24.628 -11.856  0.00  0.00    +0.005 A 
ATOM      4  C   LIG    1       23.507 -25.959 -12.069  0.00  0.00    -0.046 A 
ATOM      5  C   LIG    1       24.853 -26.261 -12.353  0.00  0.00    +0.005 A 
ATOM      6  C   LIG    1       25.806 -25.253 -12.435  0.00  0.00    +0.029 A 
ENDROOT
BRANCH   1   7
ATOM      7  S   LIG    1       26.582 -22.636 -12.486  0.00  0.00    +0.076 S 
ATOM      8  O   LIG    1       27.149 -22.276 -11.206  0.00  0.00    -0.150 OA
ATOM      9  O   LIG    1       27.423 -22.984 -13.609  0.00  0.00    -0.150 OA
BRANCH   7  12
ATOM     10  O   LIG    1       24.422 -19.552 -12.879  0.00  0.00    -0.251 OA
ATOM     11  C   LIG    1       25.330 -20.200 -12.390  0.00  0.00    +0.319 C 
ATOM     12  N   LIG    1       25.559 -21.437 -12.955  0.00  0.00    -0.169 N 
ATOM     13  H   LIG    1       24.919 -21.652 -13.713  0.00  0.00    +0.178 HD
ATOM     14  N   LIG    1       26.131 -19.818 -11.363  0.00  0.00    -0.295 N 
ATOM     15  H   LIG    1       26.846 -20.473 -11.081  0.00  0.00    +0.151 HD
BRANCH  14  16
ATOM     16  C   LIG    1       26.097 -18.562 -10.618  0.00  0.00    +0.074 C 
ATOM     17  C   LIG    1       25.822 -17.325 -11.474  0.00  0.00    +0.022 C 
ATOM     18  C   LIG    1       27.042 -16.786 -12.208  0.00  0.00    +0.002 C 
ATOM     19  C   LIG    1       28.284 -16.661 -11.324  0.00  0.00    +0.000 C 
ATOM     20  C   LIG    1       28.544 -17.825 -10.369  0.00  0.00    +0.002 C 
ATOM     21  C   LIG    1       27.290 -18.351  -9.683  0.00  0.00    +0.022 C 
ENDBRANCH  14  16
ENDBRANCH   7  12
ENDBRANCH   1   7
BRANCH   4  22
ATOM     22  C   LIG    1       22.540 -27.109 -12.042  0.00  0.00    +0.054 C 
BRANCH  22  23
ATOM     23  C   LIG    1       22.293 -27.853 -10.714  0.00  0.00    +0.121 C 
BRANCH  23  24
ATOM     24  N   LIG    1       23.428 -28.739 -10.495  0.00  0.00    -0.237 N 
ATOM     25  C   LIG    1       23.337 -30.064 -10.872  0.00  0.00    +0.232 C 
ATOM     26  O   LIG    1       22.279 -30.693 -10.852  0.00  0.00    -0.274 OA
ATOM     27  C   LIG    1       24.623 -30.624 -11.496  0.00  0.00    +0.067 C 
ATOM     28  C   LIG    1       24.540 -30.232 -12.988  0.00  0.00    +0.025 C 
ATOM     29  C   LIG    1       24.615 -32.158 -11.372  0.00  0.00    +0.025 C 
ATOM     30  C   LIG    1       25.881 -30.015 -10.888  0.00  0.00    -0.021 A 
ATOM     31  C   LIG    1       27.162 -30.465 -11.248  0.00  0.00    +0.009 A 
ATOM     32  C   LIG    1       28.313 -29.864 -10.726  0.00  0.00    +0.046 A 
ATOM     33  C   LIG    1       28.211 -28.810  -9.823  0.00  0.00    +0.121 A 
ATOM     34  C   LIG    1       26.948 -28.352  -9.456  0.00  0.00    +0.059 A 
ATOM     35  C   LIG    1       25.794 -28.933 -10.000  0.00  0.00    +0.045 A 
ATOM     36  C   LIG    1       24.497 -28.264  -9.757  0.00  0.00    +0.253 C 
ATOM     37  O   LIG    1       24.426 -27.300  -9.002  0.00  0.00    -0.270 OA
BRANCH  33  38
ATOM     38  O   LIG    1       29.251 -28.128  -9.256  0.00  0.00    -0.495 OA
ATOM     39  C   LIG    1       28.947 -27.313  -8.131  0.00  0.00    +0.277 C 
ENDBRANCH  33  38
ENDBRANCH  23  24
ENDBRANCH  22  23
ENDBRANCH   4  22
TORSDOF 7
ENDMDL
MODEL 2
REMARK VINA RESULT:       1.2      2.046      4.101
REMARK  Name = 
REMARK                            x       y       z     vdW  Elec       q    Type
REMARK                         _______ _______ _______ _____ _____    ______ ____
ROOT
ATOM      1  C   LIG    1       25.917 -23.064 -12.300  0.00  0.00    +0.109 A 
ATOM      2  C   LIG    1       27.184 -23.575 -12.581  0.00  0.00    +0.029 A 
ATOM      3  C   LIG    1       27.558 -24.808 -12.054  0.00  0.00    +0.005 A 
ATOM      4  C   LIG    1       26.672 -25.526 -11.244  0.00  0.00    -0.046 A 
ATOM      5  C   LIG    1       25.393 -24.997 -10.983  0.00  0.00    +0.005 A 
ATOM      6  C   LIG    1       25.009 -23.770 -11.511  0.00  0.00    +0.029 A 
ENDROOT
BRANCH   1   7
ATOM      7  S   LIG    1       25.488 -21.441 -12.852  0.00  0.00    +0.076 S 
ATOM      8  O   LIG    1       26.288 -21.121 -14.014  0.00  0.00    -0.150 OA
ATOM      9  O   LIG    1       24.047 -21.329 -12.878  0.00  0.00    -0.150 OA
BRANCH   7  12
ATOM     10  O   LIG    1       26.727 -18.828 -10.409  0.00  0.00    -0.251 OA
ATOM     11  C   LIG    1       26.152 -19.204 -11.415  0.00  0.00    +0.319 C 
ATOM     12  N   LIG    1       26.055 -20.570 -11.579  0.00  0.00    -0.169 N 
ATOM     13  H   LIG    1       26.496 -21.092 -10.827  0.00  0.00    +0.178 HD
ATOM     14  N   LIG    1       25.597 -18.414 -12.370  0.00  0.00    -0.295 N 
ATOM     15  H   LIG    1       25.148 -18.887 -13.141  0.00  0.00    +0.151 HD
BRANCH  14  16
ATOM     16  C   LIG    1       25.555 -16.956 -12.414  0.00  0.00    +0.074 C 
ATOM     17  C   LIG    1       26.907 -16.291 -12.681  0.00  0.00    +0.022 C 
ATOM     18  C   LIG    1       27.797 -16.167 -11.451  0.00  0.00    +0.002 C 
ATOM     19  C   LIG    1       27.072 -15.619 -10.221  0.00  0.00    +0.000 C 
ATOM     20  C   LIG    1       25.670 -16.172  -9.972  0.00  0.00    +0.002 C 
ATOM     21  C   LIG    1       24.828 -16.308 -11.234  0.00  0.00    +0.022 C 
ENDBRANCH  14  16
ENDBRANCH   7  12
ENDBRANCH   1   7
BRANCH   4  22
ATOM     22  C   LIG    1       27.014 -26.838 -10.595  0.00  0.00    +0.054 C 
BRANCH  22  23
ATOM     23  C   LIG    1       27.566 -27.984 -11.465  0.00  0.00    +0.121 C 
BRANCH  23  24
ATOM     24  N   LIG    1       26.530 -29.004 -11.548  0.00  0.00    -0.237 N 
ATOM     25  C   LIG    1       26.726 -30.223 -10.927  0.00  0.00    +0.232 C 
ATOM     26  O   LIG    1       27.838 -30.735 -10.800  0.00  0.00    -0.274 OA
ATOM     27  C   LIG    1       25.471 -30.785 -10.247  0.00  0.00    +0.067 C 
ATOM     28  C   LIG    1       25.448 -30.121  -8.852  0.00  0.00    +0.025 C 
ATOM     29  C   LIG    1       25.628 -32.308 -10.082  0.00  0.00    +0.025 C 
ATOM     30  C   LIG    1       24.191 -30.427 -10.992  0.00  0.00    -0.021 A 
ATOM     31  C   LIG    1       22.942 -30.929 -10.591  0.00  0.00    +0.009 A 
ATOM     32  C   LIG    1       21.766 -30.552 -11.248  0.00  0.00    +0.046 A 
ATOM     33  C   LIG    1       21.811 -29.675 -12.329  0.00  0.00    +0.121 A 
ATOM     34  C   LIG    1       23.041 -29.168 -12.739  0.00  0.00    +0.059 A 
ATOM     35  C   LIG    1       24.217 -29.522 -12.064  0.00  0.00    +0.045 A 
ATOM     36  C   LIG    1       25.456 -28.782 -12.391  0.00  0.00    +0.253 C 
ATOM     37  O   LIG    1       25.472 -27.970 -13.310  0.00  0.00    -0.270 OA
BRANCH  33  38
ATOM     38  O   LIG    1       20.739 -29.217 -13.042  0.00  0.00    -0.495 OA
ATOM     39  C   LIG    1       20.906 -27.984 -13.731  0.00  0.00    +0.277 C 
ENDBRANCH  33  38
ENDBRANCH  23  24
ENDBRANCH  22  23
ENDBRANCH   4  22
TORSDOF 7
ENDMDL
MODEL 3
REMARK VINA RESULT:       1.6      3.319      4.568
REMARK  Name = 
REMARK                            x       y       z     vdW  Elec       q    Type
REMARK                         _______ _______ _______ _____ _____    ______ ____
ROOT
ATOM      1  C   LIG    1       22.184 -27.667 -11.256  0.00  0.00    +0.109 A 
ATOM      2  C   LIG    1       21.877 -28.561 -12.282  0.00  0.00    +0.029 A 
ATOM      3  C   LIG    1       21.943 -29.931 -12.039  0.00  0.00    +0.005 A 
ATOM      4  C   LIG    1       22.320 -30.405 -10.778  0.00  0.00    -0.046 A 
ATOM      5  C   LIG    1       22.613 -29.485  -9.754  0.00  0.00    +0.005 A 
ATOM      6  C   LIG    1       22.543 -28.116  -9.985  0.00  0.00    +0.029 A 
ENDROOT
BRANCH   1   7
ATOM      7  S   LIG    1       22.234 -25.934 -11.596  0.00  0.00    +0.076 S 
ATOM      8  O   LIG    1       22.975 -25.723 -12.820  0.00  0.00    -0.150 OA
ATOM      9  O   LIG    1       20.906 -25.390 -11.418  0.00  0.00    -0.150 OA
BRANCH   7  12
ATOM     10  O   LIG    1       24.895 -24.605  -9.253  0.00  0.00    -0.251 OA
ATOM     11  C   LIG    1       24.347 -24.727 -10.334  0.00  0.00    +0.319 C 
ATOM     12  N   LIG    1       23.169 -25.444 -10.335  0.00  0.00    -0.169 N 
ATOM     13  H   LIG    1       22.915 -25.792  -9.415  0.00  0.00    +0.178 HD
ATOM     14  N   LIG    1       24.778 -24.221 -11.518  0.00  0.00    -0.295 N 
ATOM     15  H   LIG    1       24.199 -24.407 -12.325  0.00  0.00    +0.151 HD
BRANCH  14  16
ATOM     16  C   LIG    1       25.974 -23.423 -11.770  0.00  0.00    +0.074 C 
ATOM     17  C   LIG    1       25.793 -22.325 -12.820  0.00  0.00    +0.022 C 
ATOM     18  C   LIG    1       25.890 -22.813 -14.259  0.00  0.00    +0.002 C 
ATOM     19  C   LIG    1       27.090 -23.724 -14.519  0.00  0.00    +0.000 C 
ATOM     20  C   LIG    1       27.380 -24.769 -13.443  0.00  0.00    +0.002 C 
ATOM     21  C   LIG    1       27.240 -24.244 -12.020  0.00  0.00    +0.022 C 
ENDBRANCH  14  16
ENDBRANCH   7  12
ENDBRANCH   1   7
BRANCH   4  22
ATOM     22  C   LIG    1       22.465 -31.864 -10.448  0.00  0.00    +0.054 C 
BRANCH  22  23
ATOM     23  C   LIG    1       23.612 -32.315  -9.522  0.00  0.00    +0.121 C 
BRANCH  23  24
ATOM     24  N   LIG    1       24.828 -31.662  -9.988  0.00  0.00    -0.237 N 
ATOM     25  C   LIG    1       25.349 -31.998 -11.223  0.00  0.00    +0.232 C 
ATOM     26  O   LIG    1       25.242 -33.125 -11.707  0.00  0.00    -0.274 OA
ATOM     27  C   LIG    1       25.900 -30.804 -12.013  0.00  0.00    +0.067 C 
ATOM     28  C   LIG    1       24.671 -30.209 -12.736  0.00  0.00    +0.025 C 
ATOM     29  C   LIG    1       26.906 -31.315 -13.059  0.00  0.00    +0.025 C 
ATOM     30  C   LIG    1       26.514 -29.739 -11.112  0.00  0.00    -0.021 A 
ATOM     31  C   LIG    1       27.164 -28.613 -11.644  0.00  0.00    +0.009 A 
ATOM     32  C   LIG    1       27.677 -27.613 -10.809  0.00  0.00    +0.046 A 
ATOM     33  C   LIG    1       27.565 -27.722  -9.426  0.00  0.00    +0.121 A 
ATOM     34  C   LIG    1       26.923 -28.832  -8.884  0.00  0.00    +0.059 A 
ATOM     35  C   LIG    1       26.383 -29.820  -9.718  0.00  0.00    +0.045 A 
ATOM     36  C   LIG    1       25.517 -30.851  -9.104  0.00  0.00    +0.253 C 
ATOM     37  O   LIG    1       25.380 -30.905  -7.887  0.00  0.00    -0.270 OA
BRANCH  33  38
ATOM     38  O   LIG    1       28.006 -26.812  -8.506  0.00  0.00    -0.495 OA
ATOM     39  C   LIG    1       29.299 -27.030  -7.957  0.00  0.00    +0.277 C 
ENDBRANCH  33  38
ENDBRANCH  23  24
ENDBRANCH  22  23
ENDBRANCH   4  22
TORSDOF 7
ENDMDL
MODEL 4
REMARK VINA RESULT:       2.3      3.558      5.363
REMARK  Name = 
REMARK                            x       y       z     vdW  Elec       q    Type
REMARK                         _______ _______ _______ _____ _____    ______ ____
ROOT
ATOM      1  C   LIG    1       24.957 -24.262 -11.564  0.00  0.00    +0.109 A 
ATOM      2  C   LIG    1       23.699 -24.383 -12.155  0.00  0.00    +0.029 A 
ATOM      3  C   LIG    1       22.744 -25.212 -11.572  0.00  0.00    +0.005 A 
ATOM      4  C   LIG    1       23.047 -25.922 -10.406  0.00  0.00    -0.046 A 
ATOM      5  C   LIG    1       24.319 -25.776  -9.819  0.00  0.00    +0.005 A 
ATOM      6  C   LIG    1       25.275 -24.945 -10.391  0.00  0.00    +0.029 A 
ENDROOT
BRANCH   1   7
ATOM      7  S   LIG    1       26.215 -23.321 -12.373  0.00  0.00    +0.076 S 
ATOM      8  O   LIG    1       25.592 -22.215 -13.067  0.00  0.00    -0.150 OA
ATOM      9  O   LIG    1       27.301 -23.107 -11.444  0.00  0.00    -0.150 OA
BRANCH   7  12
ATOM     10  O   LIG    1       27.629 -26.239 -14.326  0.00  0.00    -0.251 OA
ATOM     11  C   LIG    1       27.254 -25.675 -13.313  0.00  0.00    +0.319 C 
ATOM     12  N   LIG    1       26.696 -24.427 -13.490  0.00  0.00    -0.169 N 
ATOM     13  H   LIG    1       26.682 -24.132 -14.462  0.00  0.00    +0.178 HD
ATOM     14  N   LIG    1       27.326 -26.161 -12.048  0.00  0.00    -0.295 N 
ATOM     15  H   LIG    1       26.961 -25.567 -11.316  0.00  0.00    +0.151 HD
BRANCH  14  16
ATOM     16  C   LIG    1       27.854 -27.450 -11.609  0.00  0.00    +0.074 C 
ATOM     17  C   LIG    1       26.786 -28.504 -11.314  0.00  0.00    +0.022 C 
ATOM     18  C   LIG    1       26.138 -28.372  -9.941  0.00  0.00    +0.002 C 
ATOM     19  C   LIG    1       27.143 -28.175  -8.805  0.00  0.00    +0.000 C 
ATOM     20  C   LIG    1       28.294 -27.212  -9.092  0.00  0.00    +0.002 C 
ATOM     21  C   LIG    1       28.888 -27.359 -10.486  0.00  0.00    +0.022 C 
ENDBRANCH  14  16
ENDBRANCH   7  12
ENDBRANCH   1   7
BRANCH   4  22
ATOM     22  C   LIG    1       22.094 -26.875  -9.741  0.00  0.00    +0.054 C 
BRANCH  22  23
ATOM     23  C   LIG    1       21.140 -27.715 -10.614  0.00  0.00    +0.121 C 
BRANCH  23  24
ATOM     24  N   LIG    1       21.936 -28.758 -11.247  0.00  0.00    -0.237 N 
ATOM     25  C   LIG    1       22.122 -28.734 -12.615  0.00  0.00    +0.232 C 
ATOM     26  O   LIG    1       21.279 -28.291 -13.395  0.00  0.00    -0.274 OA
ATOM     27  C   LIG    1       23.537 -29.129 -13.059  0.00  0.00    +0.067 C 
ATOM     28  C   LIG    1       24.359 -27.824 -12.962  0.00  0.00    +0.025 C 
ATOM     29  C   LIG    1       23.493 -29.594 -14.525  0.00  0.00    +0.025 C 
ATOM     30  C   LIG    1       24.163 -30.182 -12.152  0.00  0.00    -0.021 A 
ATOM     31  C   LIG    1       25.413 -30.752 -12.442  0.00  0.00    +0.009 A 
ATOM     32  C   LIG    1       26.004 -31.678 -11.575  0.00  0.00    +0.046 A 
ATOM     33  C   LIG    1       25.355 -32.065 -10.406  0.00  0.00    +0.121 A 
ATOM     34  C   LIG    1       24.115 -31.509 -10.104  0.00  0.00    +0.059 A 
ATOM     35  C   LIG    1       23.534 -30.560 -10.956  0.00  0.00    +0.045 A 
ATOM     36  C   LIG    1       22.336 -29.836 -10.477  0.00  0.00    +0.253 C 
ATOM     37  O   LIG    1       21.802 -30.148  -9.418  0.00  0.00    -0.270 OA
BRANCH  33  38
ATOM     38  O   LIG    1       25.828 -32.943  -9.472  0.00  0.00    -0.495 OA
ATOM     39  C   LIG    1       26.992 -33.683  -9.817  0.00  0.00    +0.277 C 
ENDBRANCH  33  38
ENDBRANCH  23  24
ENDBRANCH  22  23
ENDBRANCH   4  22
TORSDOF 7
ENDMDL
MODEL 5
REMARK VINA RESULT:       3.7      2.281      3.736
REMARK  Name = 
REMARK                            x       y       z     vdW  Elec       q    Type
REMARK                         _______ _______ _______ _____ _____    ______ ____
ROOT
ATOM      1  C   LIG    1       25.953 -22.049 -12.697  0.00  0.00    +0.109 A 
ATOM      2  C   LIG    1       26.562 -22.625 -11.581  0.00  0.00    +0.029 A 
ATOM      3  C   LIG    1       26.973 -23.954 -11.635  0.00  0.00    +0.005 A 
ATOM      4  C   LIG    1       26.772 -24.706 -12.797  0.00  0.00    -0.046 A 
ATOM      5  C   LIG    1       26.167 -24.101 -13.916  0.00  0.00    +0.005 A 
ATOM      6  C   LIG    1       25.760 -22.773 -13.873  0.00  0.00    +0.029 A 
ENDROOT
BRANCH   1   7
ATOM      7  S   LIG    1       25.307 -20.408 -12.588  0.00  0.00    +0.076 S 
ATOM      8  O   LIG    1       25.797 -19.641 -13.712  0.00  0.00    -0.150 OA
ATOM      9  O   LIG    1       23.895 -20.486 -12.291  0.00  0.00    -0.150 OA
BRANCH   7  12
ATOM     10  O   LIG    1       27.229 -18.587  -9.881  0.00  0.00    -0.251 OA
ATOM     11  C   LIG    1       26.574 -18.653 -10.906  0.00  0.00    +0.319 C 
ATOM     12  N   LIG    1       26.094 -19.903 -11.235  0.00  0.00    -0.169 N 
ATOM     13  H   LIG    1       26.368 -20.621 -10.571  0.00  0.00    +0.178 HD
ATOM     14  N   LIG    1       26.268 -17.622 -11.735  0.00  0.00    -0.295 N 
ATOM     15  H   LIG    1       25.706 -17.846 -12.544  0.00  0.00    +0.151 HD
BRANCH  14  16
ATOM     16  C   LIG    1       26.642 -16.218 -11.596  0.00  0.00    +0.074 C 
ATOM     17  C   LIG    1       25.743 -15.244 -12.360  0.00  0.00    +0.022 C 
ATOM     18  C   LIG    1       26.071 -15.121 -13.842  0.00  0.00    +0.002 C 
ATOM     19  C   LIG    1       27.563 -14.938 -14.127  0.00  0.00    +0.000 C 
ATOM     20  C   LIG    1       28.511 -15.812 -13.307  0.00  0.00    +0.002 C 
ATOM     21  C   LIG    1       28.124 -15.931 -11.839  0.00  0.00    +0.022 C 
ENDBRANCH  14  16
ENDBRANCH   7  12
ENDBRANCH   1   7
BRANCH   4  22
ATOM     22  C   LIG    1       27.139 -26.159 -12.922  0.00  0.00    +0.054 C 
BRANCH  22  23
ATOM     23  C   LIG    1       26.115 -27.145 -13.517  0.00  0.00    +0.121 C 
BRANCH  23  24
ATOM     24  N   LIG    1       25.331 -27.677 -12.412  0.00  0.00    -0.237 N 
ATOM     25  C   LIG    1       24.132 -27.077 -12.079  0.00  0.00    +0.232 C 
ATOM     26  O   LIG    1       23.927 -25.872 -12.224  0.00  0.00    -0.274 OA
ATOM     27  C   LIG    1       23.024 -28.068 -11.698  0.00  0.00    +0.067 C 
ATOM     28  C   LIG    1       22.395 -28.493 -13.044  0.00  0.00    +0.025 C 
ATOM     29  C   LIG    1       21.966 -27.338 -10.851  0.00  0.00    +0.025 C 
ATOM     30  C   LIG    1       23.563 -29.303 -10.986  0.00  0.00    -0.021 A 
ATOM     31  C   LIG    1       22.703 -30.283 -10.464  0.00  0.00    +0.009 A 
ATOM     32  C   LIG    1       23.208 -31.441  -9.860  0.00  0.00    +0.046 A 
ATOM     33  C   LIG    1       24.581 -31.638  -9.751  0.00  0.00    +0.121 A 
ATOM     34  C   LIG    1       25.447 -30.676 -10.264  0.00  0.00    +0.059 A 
ATOM     35  C   LIG    1       24.944 -29.530 -10.895  0.00  0.00    +0.045 A 
ATOM     36  C   LIG    1       25.896 -28.660 -11.620  0.00  0.00    +0.253 C 
ATOM     37  O   LIG    1       27.102 -28.875 -11.563  0.00  0.00    -0.270 OA
BRANCH  33  38
ATOM     38  O   LIG    1       25.199 -32.726  -9.202  0.00  0.00    -0.495 OA
ATOM     39  C   LIG    1       26.421 -33.141  -9.800  0.00  0.00    +0.277 C 
ENDBRANCH  33  38
ENDBRANCH  23  24
ENDBRANCH  22  23
ENDBRANCH   4  22
TORSDOF 7
ENDMDL
