MODEL 1
REMARK VINA RESULT:       1.6      0.000      0.000
REMARK  Name = 
REMARK                            x       y       z     vdW  Elec       q    Type
REMARK                         _______ _______ _______ _____ _____    ______ ____
ROOT
ATOM      1  C   LIG    1       21.782  49.749  14.422  0.00  0.00    +0.109 A 
ATOM      2  C   LIG    1       20.714  50.632  14.583  0.00  0.00    +0.029 A 
ATOM      3  C   LIG    1       20.187  50.844  15.855  0.00  0.00    +0.005 A 
ATOM      4  C   LIG    1       20.721  50.172  16.959  0.00  0.00    -0.046 A 
ATOM      5  C   LIG    1       21.807  49.295  16.775  0.00  0.00    +0.005 A 
ATOM      6  C   LIG    1       22.344  49.083  15.510  0.00  0.00    +0.029 A 
ENDROOT
BRANCH   1   7
ATOM      7  S   LIG    1       22.364  49.373  12.796  0.00  0.00    +0.076 S 
ATOM      8  O   LIG    1       21.544  50.077  11.836  0.00  0.00    -0.150 OA
ATOM      9  O   LIG    1       23.805  49.493  12.784  0.00  0.00    -0.150 OA
BRANCH   7  12
ATOM     10  O   LIG    1       20.976  45.880  13.245  0.00  0.00    -0.251 OA
ATOM     11  C   LIG    1       20.961  47.091  13.373  0.00  0.00    +0.319 C 
ATOM     12  N   LIG    1       21.975  47.778  12.738  0.00  0.00    -0.169 N 
ATOM     13  H   LIG    1       22.621  47.167  12.247  0.00  0.00    +0.178 HD
ATOM     14  N   LIG    1       20.045  47.817  14.064  0.00  0.00    -0.295 N 
ATOM     15  H   LIG    1       20.172  48.819  14.065  0.00  0.00    +0.151 HD
BRANCH  14  16
ATOM     16  C   LIG    1       18.883  47.328  14.799  0.00  0.00    +0.074 C 
ATOM     17  C   LIG    1       17.963  46.411  13.992  0.00  0.00    +0.022 C 
ATOM     18  C   LIG    1       16.996  47.145  13.072  0.00  0.00    +0.002 C 
ATOM     19  C   LIG    1       16.269  48.308  13.749  0.00  0.00    +0.000 C 
ATOM     20  C   LIG    1       17.123  49.192  14.656  0.00  0.00    +0.002 C 
ATOM     21  C   LIG    1       18.096  48.415  15.534  0.00  0.00    +0.022 C 
ENDBRANCH  14  16
ENDBRANCH   7  12
ENDBRANCH   1   7
BRANCH   4  22
ATOM     22  C   LIG    1       20.179  50.305  18.355  0.00  0.00    +0.054 C 
BRANCH  22  23
ATOM     23  C   LIG    1       20.156  49.067  19.273  0.00  0.00    +0.121 C 
BRANCH  23  24
ATOM     24  N   LIG    1       18.830  48.475  19.170  0.00  0.00    -0.237 N 
ATOM     25  C   LIG    1       17.760  49.092  19.790  0.00  0.00    +0.232 C 
ATOM     26  O   LIG    1       17.875  49.735  20.833  0.00  0.00    -0.274 OA
ATOM     27  C   LIG    1       16.465  49.068  18.968  0.00  0.00    +0.067 C 
ATOM     28  C   LIG    1       16.574  50.287  18.024  0.00  0.00    +0.025 C 
ATOM     29  C   LIG    1       15.266  49.263  19.914  0.00  0.00    +0.025 C 
ATOM     30  C   LIG    1       16.324  47.800  18.133  0.00  0.00    -0.021 A 
ATOM     31  C   LIG    1       15.164  47.537  17.388  0.00  0.00    +0.009 A 
ATOM     32  C   LIG    1       15.066  46.397  16.581  0.00  0.00    +0.046 A 
ATOM     33  C   LIG    1       16.118  45.489  16.512  0.00  0.00    +0.121 A 
ATOM     34  C   LIG    1       17.276  45.736  17.244  0.00  0.00    +0.059 A 
ATOM     35  C   LIG    1       17.388  46.891  18.030  0.00  0.00    +0.045 A 
ATOM     36  C   LIG    1       18.714  47.220  18.599  0.00  0.00    +0.253 C 
ATOM     37  O   LIG    1       19.651  46.438  18.485  0.00  0.00    -0.270 OA
BRANCH  33  38
ATOM     38  O   LIG    1       16.156  44.352  15.754  0.00  0.00    -0.495 OA
ATOM     39  C   LIG    1       15.530  44.410  14.478  0.00  0.00    +0.277 C 
ENDBRANCH  33  38
ENDBRANCH  23  24
ENDBRANCH  22  23
ENDBRANCH   4  22
TORSDOF 7
ENDMDL
MODEL 2
REMARK VINA RESULT:       2.4      2.766      6.893
REMARK  Name = 
REMARK                            x       y       z     vdW  Elec       q    Type
REMARK                         _______ _______ _______ _____ _____    ______ ____
ROOT
ATOM      1  C   LIG    1       17.150  48.722  18.961  0.00  0.00    +0.109 A 
ATOM      2  C   LIG    1       18.289  47.963  19.232  0.00  0.00    +0.029 A 
ATOM      3  C   LIG    1       19.542  48.452  18.869  0.00  0.00    +0.005 A 
ATOM      4  C   LIG    1       19.655  49.693  18.234  0.00  0.00    -0.046 A 
ATOM      5  C   LIG    1       18.493  50.449  17.982  0.00  0.00    +0.005 A 
ATOM      6  C   LIG    1       17.241  49.970  18.346  0.00  0.00    +0.029 A 
ENDROOT
BRANCH   1   7
ATOM      7  S   LIG    1       15.552  48.046  19.294  0.00  0.00    +0.076 S 
ATOM      8  O   LIG    1       15.440  47.802  20.715  0.00  0.00    -0.150 OA
ATOM      9  O   LIG    1       14.564  48.828  18.586  0.00  0.00    -0.150 OA
BRANCH   7  12
ATOM     10  O   LIG    1       15.959  45.151  16.890  0.00  0.00    -0.251 OA
ATOM     11  C   LIG    1       16.025  46.322  17.217  0.00  0.00    +0.319 C 
ATOM     12  N   LIG    1       15.713  46.599  18.532  0.00  0.00    -0.169 N 
ATOM     13  H   LIG    1       15.453  45.772  19.060  0.00  0.00    +0.178 HD
ATOM     14  N   LIG    1       16.382  47.362  16.421  0.00  0.00    -0.295 N 
ATOM     15  H   LIG    1       16.394  48.276  16.852  0.00  0.00    +0.151 HD
BRANCH  14  16
ATOM     16  C   LIG    1       16.768  47.324  15.014  0.00  0.00    +0.074 C 
ATOM     17  C   LIG    1       15.894  48.178  14.094  0.00  0.00    +0.022 C 
ATOM     18  C   LIG    1       14.581  47.521  13.688  0.00  0.00    +0.002 C 
ATOM     19  C   LIG    1       14.739  46.073  13.221  0.00  0.00    +0.000 C 
ATOM     20  C   LIG    1       15.690  45.206  14.044  0.00  0.00    +0.002 C 
ATOM     21  C   LIG    1       16.974  45.916  14.453  0.00  0.00    +0.022 C 
ENDBRANCH  14  16
ENDBRANCH   7  12
ENDBRANCH   1   7
BRANCH   4  22
ATOM     22  C   LIG    1       20.961  50.271  17.765  0.00  0.00    +0.054 C 
BRANCH  22  23
ATOM     23  C   LIG    1       22.146  49.324  17.488  0.00  0.00    +0.121 C 
BRANCH  23  24
ATOM     24  N   LIG    1       22.174  49.072  16.054  0.00  0.00    -0.237 N 
ATOM     25  C   LIG    1       21.462  48.006  15.538  0.00  0.00    +0.232 C 
ATOM     26  O   LIG    1       21.277  46.963  16.164  0.00  0.00    -0.274 OA
ATOM     27  C   LIG    1       20.767  48.309  14.204  0.00  0.00    +0.067 C 
ATOM     28  C   LIG    1       19.425  48.965  14.598  0.00  0.00    +0.025 C 
ATOM     29  C   LIG    1       20.488  46.984  13.471  0.00  0.00    +0.025 C 
ATOM     30  C   LIG    1       21.561  49.277  13.336  0.00  0.00    -0.021 A 
ATOM     31  C   LIG    1       21.149  49.604  12.034  0.00  0.00    +0.009 A 
ATOM     32  C   LIG    1       21.854  50.537  11.265  0.00  0.00    +0.046 A 
ATOM     33  C   LIG    1       22.995  51.152  11.772  0.00  0.00    +0.121 A 
ATOM     34  C   LIG    1       23.417  50.839  13.061  0.00  0.00    +0.059 A 
ATOM     35  C   LIG    1       22.696  49.927  13.845  0.00  0.00    +0.045 A 
ATOM     36  C   LIG    1       23.051  49.806  15.276  0.00  0.00    +0.253 C 
ATOM     37  O   LIG    1       24.027  50.396  15.727  0.00  0.00    -0.270 OA
BRANCH  33  38
ATOM     38  O   LIG    1       23.761  52.087  11.134  0.00  0.00    -0.495 OA
ATOM     39  C   LIG    1       23.406  52.401   9.793  0.00  0.00    +0.277 C 
ENDBRANCH  33  38
ENDBRANCH  23  24
ENDBRANCH  22  23
ENDBRANCH   4  22
TORSDOF 7
ENDMDL
MODEL 3
REMARK VINA RESULT:       2.6      2.357      5.284
REMARK  Name = 
REMARK                            x       y       z     vdW  Elec       q    Type
REMARK                         _______ _______ _______ _____ _____    ______ ____
ROOT
ATOM      1  C   LIG    1       19.578  48.932  17.792  0.00  0.00    +0.109 A 
ATOM      2  C   LIG    1       18.383  49.588  17.495  0.00  0.00    +0.029 A 
ATOM      3  C   LIG    1       17.171  48.946  17.734  0.00  0.00    +0.005 A 
ATOM      4  C   LIG    1       17.153  47.651  18.262  0.00  0.00    -0.046 A 
ATOM      5  C   LIG    1       18.370  47.013  18.568  0.00  0.00    +0.005 A 
ATOM      6  C   LIG    1       19.584  47.649  18.338  0.00  0.00    +0.029 A 
ENDROOT
BRANCH   1   7
ATOM      7  S   LIG    1       21.118  49.686  17.364  0.00  0.00    +0.076 S 
ATOM      8  O   LIG    1       21.401  50.734  18.319  0.00  0.00    -0.150 OA
ATOM      9  O   LIG    1       22.080  48.645  17.085  0.00  0.00    -0.150 OA
BRANCH   7  12
ATOM     10  O   LIG    1       20.871  51.205  13.905  0.00  0.00    -0.251 OA
ATOM     11  C   LIG    1       21.400  50.533  14.773  0.00  0.00    +0.319 C 
ATOM     12  N   LIG    1       20.683  50.387  15.942  0.00  0.00    -0.169 N 
ATOM     13  H   LIG    1       19.795  50.879  15.927  0.00  0.00    +0.178 HD
ATOM     14  N   LIG    1       22.606  49.916  14.692  0.00  0.00    -0.295 N 
ATOM     15  H   LIG    1       22.897  49.388  15.503  0.00  0.00    +0.151 HD
BRANCH  14  16
ATOM     16  C   LIG    1       23.536  49.908  13.567  0.00  0.00    +0.074 C 
ATOM     17  C   LIG    1       24.009  51.294  13.126  0.00  0.00    +0.022 C 
ATOM     18  C   LIG    1       23.026  52.036  12.230  0.00  0.00    +0.002 C 
ATOM     19  C   LIG    1       22.472  51.182  11.089  0.00  0.00    +0.000 C 
ATOM     20  C   LIG    1       22.086  49.749  11.455  0.00  0.00    +0.002 C 
ATOM     21  C   LIG    1       23.082  49.059  12.378  0.00  0.00    +0.022 C 
ENDBRANCH  14  16
ENDBRANCH   7  12
ENDBRANCH   1   7
BRANCH   4  22
ATOM     22  C   LIG    1       15.892  46.869  18.503  0.00  0.00    +0.054 C 
BRANCH  22  23
ATOM     23  C   LIG    1       15.421  45.856  17.441  0.00  0.00    +0.121 C 
BRANCH  23  24
ATOM     24  N   LIG    1       16.071  46.209  16.186  0.00  0.00    -0.237 N 
ATOM     25  C   LIG    1       15.335  46.822  15.190  0.00  0.00    +0.232 C 
ATOM     26  O   LIG    1       14.136  46.606  15.018  0.00  0.00    -0.274 OA
ATOM     27  C   LIG    1       16.095  47.928  14.446  0.00  0.00    +0.067 C 
ATOM     28  C   LIG    1       15.901  49.192  15.314  0.00  0.00    +0.025 C 
ATOM     29  C   LIG    1       15.439  48.151  13.071  0.00  0.00    +0.025 C 
ATOM     30  C   LIG    1       17.585  47.633  14.319  0.00  0.00    -0.021 A 
ATOM     31  C   LIG    1       18.439  48.470  13.584  0.00  0.00    +0.009 A 
ATOM     32  C   LIG    1       19.815  48.221  13.519  0.00  0.00    +0.046 A 
ATOM     33  C   LIG    1       20.366  47.123  14.173  0.00  0.00    +0.121 A 
ATOM     34  C   LIG    1       19.531  46.283  14.906  0.00  0.00    +0.059 A 
ATOM     35  C   LIG    1       18.158  46.547  14.997  0.00  0.00    +0.045 A 
ATOM     36  C   LIG    1       17.362  45.763  15.968  0.00  0.00    +0.253 C 
ATOM     37  O   LIG    1       17.871  44.832  16.581  0.00  0.00    -0.270 OA
BRANCH  33  38
ATOM     38  O   LIG    1       21.688  46.779  14.202  0.00  0.00    -0.495 OA
ATOM     39  C   LIG    1       22.213  46.148  13.041  0.00  0.00    +0.277 C 
ENDBRANCH  33  38
ENDBRANCH  23  24
ENDBRANCH  22  23
ENDBRANCH   4  22
TORSDOF 7
ENDMDL
MODEL 4
REMARK VINA RESULT:       2.8      2.140      6.208
REMARK  Name = 
REMARK                            x       y       z     vdW  Elec       q    Type
REMARK                         _______ _______ _______ _____ _____    ______ ____
ROOT
ATOM      1  C   LIG    1       18.027  46.662  14.786  0.00  0.00    +0.109 A 
ATOM      2  C   LIG    1       18.164  47.605  13.766  0.00  0.00    +0.029 A 
ATOM      3  C   LIG    1       19.373  47.706  13.084  0.00  0.00    +0.005 A 
ATOM      4  C   LIG    1       20.444  46.872  13.422  0.00  0.00    -0.046 A 
ATOM      5  C   LIG    1       20.280  45.919  14.446  0.00  0.00    +0.005 A 
ATOM      6  C   LIG    1       19.074  45.807  15.127  0.00  0.00    +0.029 A 
ENDROOT
BRANCH   1   7
ATOM      7  S   LIG    1       16.543  46.623  15.744  0.00  0.00    +0.076 S 
ATOM      8  O   LIG    1       16.181  47.979  16.093  0.00  0.00    -0.150 OA
ATOM      9  O   LIG    1       15.601  45.736  15.100  0.00  0.00    -0.150 OA
BRANCH   7  12
ATOM     10  O   LIG    1       17.734  45.602  19.189  0.00  0.00    -0.251 OA
ATOM     11  C   LIG    1       17.132  46.309  18.402  0.00  0.00    +0.319 C 
ATOM     12  N   LIG    1       17.119  45.879  17.092  0.00  0.00    -0.169 N 
ATOM     13  H   LIG    1       17.635  45.016  16.953  0.00  0.00    +0.178 HD
ATOM     14  N   LIG    1       16.473  47.460  18.695  0.00  0.00    -0.295 N 
ATOM     15  H   LIG    1       16.015  47.925  17.923  0.00  0.00    +0.151 HD
BRANCH  14  16
ATOM     16  C   LIG    1       16.330  48.106  19.996  0.00  0.00    +0.074 C 
ATOM     17  C   LIG    1       14.891  48.186  20.509  0.00  0.00    +0.022 C 
ATOM     18  C   LIG    1       14.078  49.331  19.919  0.00  0.00    +0.002 C 
ATOM     19  C   LIG    1       14.812  50.673  19.928  0.00  0.00    +0.000 C 
ATOM     20  C   LIG    1       16.286  50.630  19.528  0.00  0.00    +0.002 C 
ATOM     21  C   LIG    1       17.050  49.451  20.116  0.00  0.00    +0.022 C 
ENDBRANCH  14  16
ENDBRANCH   7  12
ENDBRANCH   1   7
BRANCH   4  22
ATOM     22  C   LIG    1       21.796  46.950  12.771  0.00  0.00    +0.054 C 
BRANCH  22  23
ATOM     23  C   LIG    1       22.528  48.305  12.717  0.00  0.00    +0.121 C 
BRANCH  23  24
ATOM     24  N   LIG    1       21.988  49.133  13.787  0.00  0.00    -0.237 N 
ATOM     25  C   LIG    1       21.638  50.443  13.521  0.00  0.00    +0.232 C 
ATOM     26  O   LIG    1       22.220  51.131  12.684  0.00  0.00    -0.274 OA
ATOM     27  C   LIG    1       20.349  50.896  14.219  0.00  0.00    +0.067 C 
ATOM     28  C   LIG    1       19.210  50.440  13.279  0.00  0.00    +0.025 C 
ATOM     29  C   LIG    1       20.344  52.433  14.315  0.00  0.00    +0.025 C 
ATOM     30  C   LIG    1       20.161  50.245  15.584  0.00  0.00    -0.021 A 
ATOM     31  C   LIG    1       19.097  50.602  16.428  0.00  0.00    +0.009 A 
ATOM     32  C   LIG    1       18.901  49.960  17.656  0.00  0.00    +0.046 A 
ATOM     33  C   LIG    1       19.771  48.957  18.075  0.00  0.00    +0.121 A 
ATOM     34  C   LIG    1       20.830  48.591  17.249  0.00  0.00    +0.059 A 
ATOM     35  C   LIG    1       21.012  49.212  16.006  0.00  0.00    +0.045 A 
ATOM     36  C   LIG    1       22.006  48.632  15.077  0.00  0.00    +0.253 C 
ATOM     37  O   LIG    1       22.731  47.711  15.437  0.00  0.00    -0.270 OA
BRANCH  33  38
ATOM     38  O   LIG    1       19.681  48.244  19.237  0.00  0.00    -0.495 OA
ATOM     39  C   LIG    1       20.206  46.922  19.222  0.00  0.00    +0.277 C 
ENDBRANCH  33  38
ENDBRANCH  23  24
ENDBRANCH  22  23
ENDBRANCH   4  22
TORSDOF 7
ENDMDL
MODEL 5
REMARK VINA RESULT:       3.3      2.615      7.706
REMARK  Name = 
REMARK                            x       y       z     vdW  Elec       q    Type
REMARK                         _______ _______ _______ _____ _____    ______ ____
ROOT
ATOM      1  C   LIG    1       15.652  47.949  18.569  0.00  0.00    +0.109 A 
ATOM      2  C   LIG    1       15.768  46.560  18.505  0.00  0.00    +0.029 A 
ATOM      3  C   LIG    1       16.227  45.964  17.333  0.00  0.00    +0.005 A 
ATOM      4  C   LIG    1       16.564  46.752  16.228  0.00  0.00    -0.046 A 
ATOM      5  C   LIG    1       16.452  48.153  16.319  0.00  0.00    +0.005 A 
ATOM      6  C   LIG    1       16.001  48.756  17.487  0.00  0.00    +0.029 A 
ENDROOT
BRANCH   1   7
ATOM      7  S   LIG    1       14.942  48.700  20.002  0.00  0.00    +0.076 S 
ATOM      8  O   LIG    1       13.563  49.028  19.718  0.00  0.00    -0.150 OA
ATOM      9  O   LIG    1       15.304  47.915  21.161  0.00  0.00    -0.150 OA
BRANCH   7  12
ATOM     10  O   LIG    1       17.560  51.433  20.116  0.00  0.00    -0.251 OA
ATOM     11  C   LIG    1       17.174  50.289  19.951  0.00  0.00    +0.319 C 
ATOM     12  N   LIG    1       15.811  50.095  20.027  0.00  0.00    -0.169 N 
ATOM     13  H   LIG    1       15.299  50.949  20.227  0.00  0.00    +0.178 HD
ATOM     14  N   LIG    1       17.952  49.206  19.692  0.00  0.00    -0.295 N 
ATOM     15  H   LIG    1       17.472  48.325  19.574  0.00  0.00    +0.151 HD
BRANCH  14  16
ATOM     16  C   LIG    1       19.404  49.158  19.550  0.00  0.00    +0.074 C 
ATOM     17  C   LIG    1       19.982  50.201  18.593  0.00  0.00    +0.022 C 
ATOM     18  C   LIG    1       19.885  49.822  17.120  0.00  0.00    +0.002 C 
ATOM     19  C   LIG    1       20.342  48.393  16.824  0.00  0.00    +0.000 C 
ATOM     20  C   LIG    1       19.881  47.326  17.815  0.00  0.00    +0.002 C 
ATOM     21  C   LIG    1       19.965  47.762  19.273  0.00  0.00    +0.022 C 
ENDBRANCH  14  16
ENDBRANCH   7  12
ENDBRANCH   1   7
BRANCH   4  22
ATOM     22  C   LIG    1       17.019  46.187  14.911  0.00  0.00    +0.054 C 
BRANCH  22  23
ATOM     23  C   LIG    1       17.408  47.152  13.773  0.00  0.00    +0.121 C 
BRANCH  23  24
ATOM     24  N   LIG    1       18.809  47.502  13.961  0.00  0.00    -0.237 N 
ATOM     25  C   LIG    1       19.726  46.507  14.235  0.00  0.00    +0.232 C 
ATOM     26  O   LIG    1       19.439  45.491  14.867  0.00  0.00    -0.274 OA
ATOM     27  C   LIG    1       21.074  46.688  13.522  0.00  0.00    +0.067 C 
ATOM     28  C   LIG    1       20.868  46.063  12.125  0.00  0.00    +0.025 C 
ATOM     29  C   LIG    1       22.153  45.895  14.280  0.00  0.00    +0.025 C 
ATOM     30  C   LIG    1       21.458  48.155  13.362  0.00  0.00    -0.021 A 
ATOM     31  C   LIG    1       22.700  48.533  12.828  0.00  0.00    +0.009 A 
ATOM     32  C   LIG    1       23.023  49.881  12.634  0.00  0.00    +0.046 A 
ATOM     33  C   LIG    1       22.119  50.881  12.982  0.00  0.00    +0.121 A 
ATOM     34  C   LIG    1       20.883  50.521  13.513  0.00  0.00    +0.059 A 
ATOM     35  C   LIG    1       20.546  49.172  13.681  0.00  0.00    +0.045 A 
ATOM     36  C   LIG    1       19.146  48.842  14.029  0.00  0.00    +0.253 C 
ATOM     37  O   LIG    1       18.342  49.732  14.281  0.00  0.00    -0.270 OA
BRANCH  33  38
ATOM     38  O   LIG    1       22.304  52.226  12.829  0.00  0.00    -0.495 OA
ATOM     39  C   LIG    1       23.478  52.639  12.141  0.00  0.00    +0.277 C 
ENDBRANCH  33  38
ENDBRANCH  23  24
ENDBRANCH  22  23
ENDBRANCH   4  22
TORSDOF 7
ENDMDL
MODEL 6
REMARK VINA RESULT:       3.3      2.409      7.084
REMARK  Name = 
REMARK                            x       y       z     vdW  Elec       q    Type
REMARK                         _______ _______ _______ _____ _____    ______ ____
ROOT
ATOM      1  C   LIG    1       15.771  47.536  18.840  0.00  0.00    +0.109 A 
ATOM      2  C   LIG    1       15.071  47.468  17.634  0.00  0.00    +0.029 A 
ATOM      3  C   LIG    1       15.583  46.707  16.587  0.00  0.00    +0.005 A 
ATOM      4  C   LIG    1       16.792  46.021  16.740  0.00  0.00    -0.046 A 
ATOM      5  C   LIG    1       17.476  46.093  17.970  0.00  0.00    +0.005 A 
ATOM      6  C   LIG    1       16.968  46.844  19.023  0.00  0.00    +0.029 A 
ENDROOT
BRANCH   1   7
ATOM      7  S   LIG    1       15.198  48.607  20.122  0.00  0.00    +0.076 S 
ATOM      8  O   LIG    1       13.765  48.754  19.997  0.00  0.00    -0.150 OA
ATOM      9  O   LIG    1       15.804  48.200  21.369  0.00  0.00    -0.150 OA
BRANCH   7  12
ATOM     10  O   LIG    1       17.491  51.483  19.228  0.00  0.00    -0.251 OA
ATOM     11  C   LIG    1       17.242  50.321  19.496  0.00  0.00    +0.319 C 
ATOM     12  N   LIG    1       15.906  50.008  19.633  0.00  0.00    -0.169 N 
ATOM     13  H   LIG    1       15.295  50.808  19.502  0.00  0.00    +0.178 HD
ATOM     14  N   LIG    1       18.145  49.321  19.658  0.00  0.00    -0.295 N 
ATOM     15  H   LIG    1       17.771  48.407  19.871  0.00  0.00    +0.151 HD
BRANCH  14  16
ATOM     16  C   LIG    1       19.599  49.397  19.549  0.00  0.00    +0.074 C 
ATOM     17  C   LIG    1       20.106  50.492  18.609  0.00  0.00    +0.022 C 
ATOM     18  C   LIG    1       20.076  50.115  17.134  0.00  0.00    +0.002 C 
ATOM     19  C   LIG    1       20.659  48.732  16.842  0.00  0.00    +0.000 C 
ATOM     20  C   LIG    1       20.269  47.623  17.818  0.00  0.00    +0.002 C 
ATOM     21  C   LIG    1       20.283  48.055  19.279  0.00  0.00    +0.022 C 
ENDBRANCH  14  16
ENDBRANCH   7  12
ENDBRANCH   1   7
BRANCH   4  22
ATOM     22  C   LIG    1       17.439  45.219  15.645  0.00  0.00    +0.054 C 
BRANCH  22  23
ATOM     23  C   LIG    1       18.908  45.502  15.274  0.00  0.00    +0.121 C 
BRANCH  23  24
ATOM     24  N   LIG    1       18.935  46.753  14.529  0.00  0.00    -0.237 N 
ATOM     25  C   LIG    1       17.745  47.379  14.211  0.00  0.00    +0.232 C 
ATOM     26  O   LIG    1       16.704  46.760  13.993  0.00  0.00    -0.274 OA
ATOM     27  C   LIG    1       17.791  48.907  14.339  0.00  0.00    +0.067 C 
ATOM     28  C   LIG    1       17.496  49.187  15.830  0.00  0.00    +0.025 C 
ATOM     29  C   LIG    1       16.672  49.518  13.476  0.00  0.00    +0.025 C 
ATOM     30  C   LIG    1       19.157  49.484  13.984  0.00  0.00    -0.021 A 
ATOM     31  C   LIG    1       19.379  50.869  13.939  0.00  0.00    +0.009 A 
ATOM     32  C   LIG    1       20.650  51.389  13.666  0.00  0.00    +0.046 A 
ATOM     33  C   LIG    1       21.722  50.537  13.416  0.00  0.00    +0.121 A 
ATOM     34  C   LIG    1       21.518  49.161  13.457  0.00  0.00    +0.059 A 
ATOM     35  C   LIG    1       20.253  48.638  13.759  0.00  0.00    +0.045 A 
ATOM     36  C   LIG    1       20.144  47.185  14.015  0.00  0.00    +0.253 C 
ATOM     37  O   LIG    1       21.111  46.449  13.846  0.00  0.00    -0.270 OA
BRANCH  33  38
ATOM     38  O   LIG    1       23.010  50.915  13.154  0.00  0.00    -0.495 OA
ATOM     39  C   LIG    1       23.946  49.874  12.907  0.00  0.00    +0.277 C 
ENDBRANCH  33  38
ENDBRANCH  23  24
ENDBRANCH  22  23
ENDBRANCH   4  22
TORSDOF 7
ENDMDL
MODEL 7
REMARK VINA RESULT:       4.2      2.122      4.677
REMARK  Name = 
REMARK                            x       y       z     vdW  Elec       q    Type
REMARK                         _______ _______ _______ _____ _____    ______ ____
ROOT
ATOM      1  C   LIG    1       21.306  49.472  13.047  0.00  0.00    +0.109 A 
ATOM      2  C   LIG    1       21.712  48.150  12.857  0.00  0.00    +0.029 A 
ATOM      3  C   LIG    1       20.919  47.113  13.342  0.00  0.00    +0.005 A 
ATOM      4  C   LIG    1       19.728  47.396  14.019  0.00  0.00    -0.046 A 
ATOM      5  C   LIG    1       19.330  48.737  14.187  0.00  0.00    +0.005 A 
ATOM      6  C   LIG    1       20.113  49.777  13.700  0.00  0.00    +0.029 A 
ENDROOT
BRANCH   1   7
ATOM      7  S   LIG    1       22.374  50.791  12.555  0.00  0.00    +0.076 S 
ATOM      8  O   LIG    1       22.642  50.667  11.140  0.00  0.00    -0.150 OA
ATOM      9  O   LIG    1       21.873  52.024  13.119  0.00  0.00    -0.150 OA
BRANCH   7  12
ATOM     10  O   LIG    1       25.018  49.792  15.074  0.00  0.00    -0.251 OA
ATOM     11  C   LIG    1       23.873  49.937  14.684  0.00  0.00    +0.319 C 
ATOM     12  N   LIG    1       23.728  50.355  13.378  0.00  0.00    -0.169 N 
ATOM     13  H   LIG    1       24.616  50.501  12.908  0.00  0.00    +0.178 HD
ATOM     14  N   LIG    1       22.743  49.717  15.405  0.00  0.00    -0.295 N 
ATOM     15  H   LIG    1       21.867  49.878  14.929  0.00  0.00    +0.151 HD
BRANCH  14  16
ATOM     16  C   LIG    1       22.635  49.261  16.787  0.00  0.00    +0.074 C 
ATOM     17  C   LIG    1       21.921  47.919  16.957  0.00  0.00    +0.022 C 
ATOM     18  C   LIG    1       20.401  48.010  16.933  0.00  0.00    +0.002 C 
ATOM     19  C   LIG    1       19.839  49.125  17.817  0.00  0.00    +0.000 C 
ATOM     20  C   LIG    1       20.585  50.457  17.767  0.00  0.00    +0.002 C 
ATOM     21  C   LIG    1       22.102  50.314  17.760  0.00  0.00    +0.022 C 
ENDBRANCH  14  16
ENDBRANCH   7  12
ENDBRANCH   1   7
BRANCH   4  22
ATOM     22  C   LIG    1       18.840  46.340  14.616  0.00  0.00    +0.054 C 
BRANCH  22  23
ATOM     23  C   LIG    1       17.317  46.427  14.398  0.00  0.00    +0.121 C 
BRANCH  23  24
ATOM     24  N   LIG    1       16.732  46.957  15.621  0.00  0.00    -0.237 N 
ATOM     25  C   LIG    1       16.155  46.090  16.529  0.00  0.00    +0.232 C 
ATOM     26  O   LIG    1       15.597  45.046  16.191  0.00  0.00    -0.274 OA
ATOM     27  C   LIG    1       16.436  46.444  17.995  0.00  0.00    +0.067 C 
ATOM     28  C   LIG    1       17.804  45.795  18.302  0.00  0.00    +0.025 C 
ATOM     29  C   LIG    1       15.357  45.799  18.884  0.00  0.00    +0.025 C 
ATOM     30  C   LIG    1       16.532  47.948  18.226  0.00  0.00    -0.021 A 
ATOM     31  C   LIG    1       16.684  48.484  19.515  0.00  0.00    +0.009 A 
ATOM     32  C   LIG    1       16.827  49.863  19.712  0.00  0.00    +0.046 A 
ATOM     33  C   LIG    1       16.807  50.736  18.629  0.00  0.00    +0.121 A 
ATOM     34  C   LIG    1       16.657  50.220  17.345  0.00  0.00    +0.059 A 
ATOM     35  C   LIG    1       16.544  48.838  17.142  0.00  0.00    +0.045 A 
ATOM     36  C   LIG    1       16.619  48.329  15.754  0.00  0.00    +0.253 C 
ATOM     37  O   LIG    1       16.657  49.108  14.808  0.00  0.00    -0.270 OA
BRANCH  33  38
ATOM     38  O   LIG    1       16.952  52.094  18.683  0.00  0.00    -0.495 OA
ATOM     39  C   LIG    1       15.823  52.876  18.314  0.00  0.00    +0.277 C 
ENDBRANCH  33  38
ENDBRANCH  23  24
ENDBRANCH  22  23
ENDBRANCH   4  22
TORSDOF 7
ENDMDL
MODEL 8
REMARK VINA RESULT:       4.3      2.622      6.588
REMARK  Name = 
REMARK                            x       y       z     vdW  Elec       q    Type
REMARK                         _______ _______ _______ _____ _____    ______ ____
ROOT
ATOM      1  C   LIG    1       17.015  48.861  19.022  0.00  0.00    +0.109 A 
ATOM      2  C   LIG    1       18.219  48.159  19.103  0.00  0.00    +0.029 A 
ATOM      3  C   LIG    1       19.355  48.673  18.483  0.00  0.00    +0.005 A 
ATOM      4  C   LIG    1       19.287  49.881  17.781  0.00  0.00    -0.046 A 
ATOM      5  C   LIG    1       18.066  50.580  17.724  0.00  0.00    +0.005 A 
ATOM      6  C   LIG    1       16.929  50.077  18.346  0.00  0.00    +0.029 A 
ENDROOT
BRANCH   1   7
ATOM      7  S   LIG    1       15.543  48.147  19.689  0.00  0.00    +0.076 S 
ATOM      8  O   LIG    1       15.741  47.910  21.101  0.00  0.00    -0.150 OA
ATOM      9  O   LIG    1       14.406  48.898  19.206  0.00  0.00    -0.150 OA
BRANCH   7  12
ATOM     10  O   LIG    1       15.740  45.248  17.261  0.00  0.00    -0.251 OA
ATOM     11  C   LIG    1       15.922  46.401  17.610  0.00  0.00    +0.319 C 
ATOM     12  N   LIG    1       15.577  46.698  18.912  0.00  0.00    -0.169 N 
ATOM     13  H   LIG    1       15.197  45.901  19.414  0.00  0.00    +0.178 HD
ATOM     14  N   LIG    1       16.436  47.402  16.850  0.00  0.00    -0.295 N 
ATOM     15  H   LIG    1       16.530  48.304  17.296  0.00  0.00    +0.151 HD
BRANCH  14  16
ATOM     16  C   LIG    1       16.887  47.335  15.463  0.00  0.00    +0.074 C 
ATOM     17  C   LIG    1       15.996  48.082  14.470  0.00  0.00    +0.022 C 
ATOM     18  C   LIG    1       14.754  47.312  14.040  0.00  0.00    +0.002 C 
ATOM     19  C   LIG    1       15.038  45.862  13.645  0.00  0.00    +0.000 C 
ATOM     20  C   LIG    1       16.011  45.103  14.545  0.00  0.00    +0.002 C 
ATOM     21  C   LIG    1       17.220  45.923  14.976  0.00  0.00    +0.022 C 
ENDBRANCH  14  16
ENDBRANCH   7  12
ENDBRANCH   1   7
BRANCH   4  22
ATOM     22  C   LIG    1       20.452  50.480  17.043  0.00  0.00    +0.054 C 
BRANCH  22  23
ATOM     23  C   LIG    1       20.183  51.456  15.880  0.00  0.00    +0.121 C 
BRANCH  23  24
ATOM     24  N   LIG    1       20.565  50.780  14.649  0.00  0.00    -0.237 N 
ATOM     25  C   LIG    1       21.376  51.432  13.740  0.00  0.00    +0.232 C 
ATOM     26  O   LIG    1       21.355  52.652  13.583  0.00  0.00    -0.274 OA
ATOM     27  C   LIG    1       22.432  50.529  13.087  0.00  0.00    +0.067 C 
ATOM     28  C   LIG    1       23.614  50.523  14.081  0.00  0.00    +0.025 C 
ATOM     29  C   LIG    1       22.886  51.165  11.761  0.00  0.00    +0.025 C 
ATOM     30  C   LIG    1       21.938  49.100  12.888  0.00  0.00    -0.021 A 
ATOM     31  C   LIG    1       22.715  48.143  12.216  0.00  0.00    +0.009 A 
ATOM     32  C   LIG    1       22.277  46.820  12.086  0.00  0.00    +0.046 A 
ATOM     33  C   LIG    1       21.050  46.427  12.611  0.00  0.00    +0.121 A 
ATOM     34  C   LIG    1       20.269  47.364  13.281  0.00  0.00    +0.059 A 
ATOM     35  C   LIG    1       20.717  48.683  13.438  0.00  0.00    +0.045 A 
ATOM     36  C   LIG    1       19.962  49.571  14.350  0.00  0.00    +0.253 C 
ATOM     37  O   LIG    1       18.909  49.196  14.853  0.00  0.00    -0.270 OA
BRANCH  33  38
ATOM     38  O   LIG    1       20.517  45.169  12.568  0.00  0.00    -0.495 OA
ATOM     39  C   LIG    1       20.115  44.686  11.292  0.00  0.00    +0.277 C 
ENDBRANCH  33  38
ENDBRANCH  23  24
ENDBRANCH  22  23
ENDBRANCH   4  22
TORSDOF 7
ENDMDL
MODEL 9
REMARK VINA RESULT:       4.5      1.388      3.001
REMARK  Name = 
REMARK                            x       y       z     vdW  Elec       q    Type
REMARK                         _______ _______ _______ _____ _____    ______ ____
ROOT
ATOM      1  C   LIG    1       21.775  49.507  14.171  0.00  0.00    +0.109 A 
ATOM      2  C   LIG    1       20.694  50.324  14.504  0.00  0.00    +0.029 A 
ATOM      3  C   LIG    1       20.482  50.670  15.836  0.00  0.00    +0.005 A 
ATOM      4  C   LIG    1       21.344  50.199  16.831  0.00  0.00    -0.046 A 
ATOM      5  C   LIG    1       22.437  49.387  16.471  0.00  0.00    +0.005 A 
ATOM      6  C   LIG    1       22.659  49.042  15.143  0.00  0.00    +0.029 A 
ENDROOT
BRANCH   1   7
ATOM      7  S   LIG    1       21.969  48.953  12.504  0.00  0.00    +0.076 S 
ATOM      8  O   LIG    1       20.975  49.605  11.681  0.00  0.00    -0.150 OA
ATOM      9  O   LIG    1       23.373  48.998  12.163  0.00  0.00    -0.150 OA
BRANCH   7  12
ATOM     10  O   LIG    1       20.472  45.618  13.487  0.00  0.00    -0.251 OA
ATOM     11  C   LIG    1       20.494  46.834  13.422  0.00  0.00    +0.319 C 
ATOM     12  N   LIG    1       21.531  47.381  12.696  0.00  0.00    -0.169 N 
ATOM     13  H   LIG    1       22.159  46.681  12.312  0.00  0.00    +0.178 HD
ATOM     14  N   LIG    1       19.598  47.687  13.983  0.00  0.00    -0.295 N 
ATOM     15  H   LIG    1       19.757  48.672  13.827  0.00  0.00    +0.151 HD
BRANCH  14  16
ATOM     16  C   LIG    1       18.419  47.355  14.777  0.00  0.00    +0.074 C 
ATOM     17  C   LIG    1       17.553  46.239  14.189  0.00  0.00    +0.022 C 
ATOM     18  C   LIG    1       16.607  46.695  13.086  0.00  0.00    +0.002 C 
ATOM     19  C   LIG    1       15.827  47.964  13.433  0.00  0.00    +0.000 C 
ATOM     20  C   LIG    1       16.624  49.070  14.123  0.00  0.00    +0.002 C 
ATOM     21  C   LIG    1       17.580  48.563  15.196  0.00  0.00    +0.022 C 
ENDBRANCH  14  16
ENDBRANCH   7  12
ENDBRANCH   1   7
BRANCH   4  22
ATOM     22  C   LIG    1       21.159  50.485  18.296  0.00  0.00    +0.054 C 
BRANCH  22  23
ATOM     23  C   LIG    1       20.761  49.334  19.241  0.00  0.00    +0.121 C 
BRANCH  23  24
ATOM     24  N   LIG    1       19.479  48.818  18.781  0.00  0.00    -0.237 N 
ATOM     25  C   LIG    1       19.444  47.664  18.022  0.00  0.00    +0.232 C 
ATOM     26  O   LIG    1       20.348  47.348  17.249  0.00  0.00    -0.274 OA
ATOM     27  C   LIG    1       18.280  46.726  18.367  0.00  0.00    +0.067 C 
ATOM     28  C   LIG    1       18.792  45.883  19.557  0.00  0.00    +0.025 C 
ATOM     29  C   LIG    1       18.008  45.800  17.168  0.00  0.00    +0.025 C 
ATOM     30  C   LIG    1       17.026  47.481  18.793  0.00  0.00    -0.021 A 
ATOM     31  C   LIG    1       15.819  46.812  19.053  0.00  0.00    +0.009 A 
ATOM     32  C   LIG    1       14.688  47.507  19.496  0.00  0.00    +0.046 A 
ATOM     33  C   LIG    1       14.732  48.886  19.675  0.00  0.00    +0.121 A 
ATOM     34  C   LIG    1       15.921  49.564  19.422  0.00  0.00    +0.059 A 
ATOM     35  C   LIG    1       17.064  48.867  19.006  0.00  0.00    +0.045 A 
ATOM     36  C   LIG    1       18.351  49.596  18.975  0.00  0.00    +0.253 C 
ATOM     37  O   LIG    1       18.388  50.803  19.189  0.00  0.00    -0.270 OA
BRANCH  33  38
ATOM     38  O   LIG    1       13.709  49.677  20.117  0.00  0.00    -0.495 OA
ATOM     39  C   LIG    1       14.066  50.837  20.857  0.00  0.00    +0.277 C 
ENDBRANCH  33  38
ENDBRANCH  23  24
ENDBRANCH  22  23
ENDBRANCH   4  22
TORSDOF 7
ENDMDL
