REMARK  Name = 
REMARK                            x       y       z     vdW  Elec       q    Type
REMARK                         _______ _______ _______ _____ _____    ______ ____
ROOT
ATOM      1  C   LIG    1        5.417   0.652  -2.634  0.00  0.00    +0.109 A 
ATOM      2  C   LIG    1        5.689  -0.412  -3.495  0.00  0.00    +0.029 A 
ATOM      3  C   LIG    1        5.913  -0.160  -4.846  0.00  0.00    +0.005 A 
ATOM      4  C   LIG    1        5.860   1.149  -5.336  0.00  0.00    -0.046 A 
ATOM      5  C   LIG    1        5.597   2.209  -4.447  0.00  0.00    +0.005 A 
ATOM      6  C   LIG    1        5.379   1.967  -3.096  0.00  0.00    +0.029 A 
ENDROOT
BRANCH   1   7
ATOM      7  S   LIG    1        4.998   0.325  -0.949  0.00  0.00    +0.076 S 
ATOM      8  O   LIG    1        5.447  -1.007  -0.610  0.00  0.00    -0.150 OA
ATOM      9  O   LIG    1        5.373   1.470  -0.150  0.00  0.00    -0.150 OA
BRANCH   7  12
ATOM     10  O   LIG    1        1.254  -0.077  -0.557  0.00  0.00    -0.251 OA
ATOM     11  C   LIG    1        2.401  -0.028  -0.149  0.00  0.00    +0.319 C 
ATOM     12  N   LIG    1        3.360   0.300  -1.084  0.00  0.00    -0.169 N 
ATOM     13  H   LIG    1        2.975   0.449  -2.012  0.00  0.00    +0.178 HD
ATOM     14  N   LIG    1        2.813  -0.253   1.125  0.00  0.00    -0.295 N 
ATOM     15  H   LIG    1        3.804  -0.164   1.300  0.00  0.00    +0.151 HD
BRANCH  14  16
ATOM     16  C   LIG    1        1.996  -0.596   2.285  0.00  0.00    +0.074 C 
ATOM     17  C   LIG    1        1.325  -1.968   2.204  0.00  0.00    +0.022 C 
ATOM     18  C   LIG    1        0.048  -1.993   1.374  0.00  0.00    +0.002 C 
ATOM     19  C   LIG    1       -0.917  -0.852   1.699  0.00  0.00    +0.000 C 
ATOM     20  C   LIG    1       -0.282   0.523   1.899  0.00  0.00    +0.002 C 
ATOM     21  C   LIG    1        1.009   0.494   2.707  0.00  0.00    +0.022 C 
ENDBRANCH  14  16
ENDBRANCH   7  12
ENDBRANCH   1   7
BRANCH   4  22
ATOM     22  C   LIG    1        6.040   1.502  -6.786  0.00  0.00    +0.054 C 
BRANCH  22  23
ATOM     23  C   LIG    1        6.285   0.375  -7.809  0.00  0.00    +0.121 C 
BRANCH  23  24
ATOM     24  N   LIG    1        6.038   0.929  -9.133  0.00  0.00    -0.237 N 
ATOM     25  C   LIG    1        5.030   0.397  -9.914  0.00  0.00    +0.232 C 
ATOM     26  O   LIG    1        4.705  -0.789  -9.866  0.00  0.00    -0.274 OA
ATOM     27  C   LIG    1        4.231   1.446 -10.699  0.00  0.00    +0.067 C 
ATOM     28  C   LIG    1        3.152   1.941  -9.710  0.00  0.00    +0.025 C 
ATOM     29  C   LIG    1        3.547   0.763 -11.897  0.00  0.00    +0.025 C 
ATOM     30  C   LIG    1        5.088   2.628 -11.137  0.00  0.00    -0.021 A 
ATOM     31  C   LIG    1        4.571   3.647 -11.953  0.00  0.00    +0.009 A 
ATOM     32  C   LIG    1        5.349   4.756 -12.305  0.00  0.00    +0.046 A 
ATOM     33  C   LIG    1        6.664   4.865 -11.862  0.00  0.00    +0.121 A 
ATOM     34  C   LIG    1        7.191   3.863 -11.052  0.00  0.00    +0.059 A 
ATOM     35  C   LIG    1        6.405   2.766 -10.674  0.00  0.00    +0.045 A 
ATOM     36  C   LIG    1        6.934   1.856  -9.634  0.00  0.00    +0.253 C 
ATOM     37  O   LIG    1        8.076   1.994  -9.209  0.00  0.00    -0.270 OA
BRANCH  33  38
ATOM     38  O   LIG    1        7.520   5.899 -12.119  0.00  0.00    -0.495 OA
ATOM     39  C   LIG    1        7.005   6.986 -12.877  0.00  0.00    +0.277 C 
ENDBRANCH  33  38
ENDBRANCH  23  24
ENDBRANCH  22  23
ENDBRANCH   4  22
TORSDOF 7
