MODEL 1
REMARK VINA RESULT:      -7.5      0.000      0.000
REMARK  Name = 
REMARK                            x       y       z     vdW  Elec       q    Type
REMARK                         _______ _______ _______ _____ _____    ______ ____
ROOT
ATOM      1  C   LIG    1       -6.478  -1.770  12.848  0.00  0.00    +0.045 C 
ATOM      2  C   LIG    1       -7.573  -2.802  12.725  0.00  0.00    -0.030 A 
ATOM      3  C   LIG    1       -8.908  -2.273  12.436  0.00  0.00    +0.022 A 
ATOM      4  C   LIG    1       -9.116  -0.893  12.341  0.00  0.00    +0.024 A 
ATOM      5  C   LIG    1      -10.411  -0.382  12.480  0.00  0.00    +0.029 A 
ATOM      6  C   LIG    1      -10.937   0.903  12.801  0.00  0.00    +0.028 A 
ATOM      7  C   LIG    1      -12.307   0.744  12.762  0.00  0.00    +0.204 A 
ATOM      8  O   LIG    1      -12.643  -0.562  12.528  0.00  0.00    -0.462 OA
ATOM      9  C   LIG    1      -11.478  -1.265  12.428  0.00  0.00    +0.139 A 
ATOM     10  C   LIG    1      -11.331  -2.652  12.345  0.00  0.00    +0.093 A 
ATOM     11  C   LIG    1      -10.008  -3.122  12.424  0.00  0.00    +0.143 A 
ATOM     12  O   LIG    1       -9.803  -4.513  12.554  0.00  0.00    -0.422 OA
ATOM     13  C   LIG    1       -8.551  -5.061  12.839  0.00  0.00    +0.341 A 
ATOM     14  O   LIG    1       -8.411  -6.271  12.980  0.00  0.00    -0.245 OA
ATOM     15  C   LIG    1       -7.406  -4.121  12.976  0.00  0.00    +0.041 A 
ENDROOT
BRANCH   6  16
ATOM     16  C   LIG    1      -10.218   2.091  13.267  0.00  0.00    -0.014 A 
ATOM     17  C   LIG    1      -10.271   3.313  12.595  0.00  0.00    +0.008 A 
ATOM     18  C   LIG    1       -9.563   4.421  13.083  0.00  0.00    +0.001 A 
ATOM     19  C   LIG    1       -8.786   4.319  14.238  0.00  0.00    +0.000 A 
ATOM     20  C   LIG    1       -8.731   3.115  14.924  0.00  0.00    +0.001 A 
ATOM     21  C   LIG    1       -9.458   2.021  14.453  0.00  0.00    +0.008 A 
ENDBRANCH   6  16
BRANCH  15  22
ATOM     22  C   LIG    1       -6.050  -4.602  13.459  0.00  0.00    +0.054 C 
BRANCH  22  23
ATOM     23  C   LIG    1       -4.887  -5.014  12.569  0.00  0.00    +0.128 C 
BRANCH  23  24
ATOM     24  C   LIG    1       -5.207  -6.157  11.603  0.00  0.00    +0.332 C 
ATOM     25  O   LIG    1       -5.433  -7.291  12.015  0.00  0.00    -0.249 OA
BRANCH  24  26
ATOM     26  O   LIG    1       -5.426  -5.820  10.295  0.00  0.00    -0.337 OA
BRANCH  26  27
ATOM     27  N   LIG    1       -6.783  -5.705   9.968  0.00  0.00    -0.064 N 
ATOM     28  C   LIG    1       -7.430  -6.790   9.470  0.00  0.00    +0.255 C 
ATOM     29  O   LIG    1       -6.993  -7.913   9.271  0.00  0.00    -0.272 OA
ATOM     30  C   LIG    1       -8.849  -6.370   9.226  0.00  0.00    +0.109 C 
ATOM     31  C   LIG    1       -8.709  -4.877   8.986  0.00  0.00    +0.109 C 
ATOM     32  C   LIG    1       -7.310  -4.558   9.463  0.00  0.00    +0.255 C 
ATOM     33  O   LIG    1       -6.779  -3.475   9.318  0.00  0.00    -0.272 OA
ENDBRANCH  26  27
ENDBRANCH  24  26
ENDBRANCH  23  24
ENDBRANCH  22  23
ENDBRANCH  15  22
TORSDOF 6
ENDMDL
MODEL 2
REMARK VINA RESULT:      -6.2     10.247     13.517
REMARK  Name = 
REMARK                            x       y       z     vdW  Elec       q    Type
REMARK                         _______ _______ _______ _____ _____    ______ ____
ROOT
ATOM      1  C   LIG    1      -11.449   8.345  16.358  0.00  0.00    +0.045 C 
ATOM      2  C   LIG    1      -10.276   8.799  17.193  0.00  0.00    -0.030 A 
ATOM      3  C   LIG    1       -9.050   9.098  16.448  0.00  0.00    +0.022 A 
ATOM      4  C   LIG    1       -9.001   8.910  15.064  0.00  0.00    +0.024 A 
ATOM      5  C   LIG    1       -7.760   8.794  14.429  0.00  0.00    +0.029 A 
ATOM      6  C   LIG    1       -7.336   8.255  13.179  0.00  0.00    +0.028 A 
ATOM      7  C   LIG    1       -5.972   8.465  13.149  0.00  0.00    +0.204 A 
ATOM      8  O   LIG    1       -5.533   9.011  14.324  0.00  0.00    -0.462 OA
ATOM      9  C   LIG    1       -6.622   9.144  15.137  0.00  0.00    +0.139 A 
ATOM     10  C   LIG    1       -6.631   9.512  16.485  0.00  0.00    +0.093 A 
ATOM     11  C   LIG    1       -7.878   9.405  17.128  0.00  0.00    +0.143 A 
ATOM     12  O   LIG    1       -7.918   9.562  18.530  0.00  0.00    -0.422 OA
ATOM     13  C   LIG    1       -9.060   9.279  19.282  0.00  0.00    +0.341 A 
ATOM     14  O   LIG    1       -9.053   9.391  20.503  0.00  0.00    -0.245 OA
ATOM     15  C   LIG    1      -10.271   8.826  18.546  0.00  0.00    +0.041 A 
ENDROOT
BRANCH   6  16
ATOM     16  C   LIG    1       -8.111   7.472  12.215  0.00  0.00    -0.014 A 
ATOM     17  C   LIG    1       -8.196   7.814  10.864  0.00  0.00    +0.008 A 
ATOM     18  C   LIG    1       -8.954   7.030   9.982  0.00  0.00    +0.001 A 
ATOM     19  C   LIG    1       -9.642   5.905  10.437  0.00  0.00    +0.000 A 
ATOM     20  C   LIG    1       -9.558   5.544  11.774  0.00  0.00    +0.001 A 
ATOM     21  C   LIG    1       -8.782   6.309  12.646  0.00  0.00    +0.008 A 
ENDBRANCH   6  16
BRANCH  15  22
ATOM     22  C   LIG    1      -11.498   8.326  19.287  0.00  0.00    +0.054 C 
BRANCH  22  23
ATOM     23  C   LIG    1      -11.663   6.942  19.896  0.00  0.00    +0.128 C 
BRANCH  23  24
ATOM     24  C   LIG    1      -12.999   6.269  19.577  0.00  0.00    +0.332 C 
ATOM     25  O   LIG    1      -13.244   5.847  18.450  0.00  0.00    -0.249 OA
BRANCH  24  26
ATOM     26  O   LIG    1      -13.817   5.981  20.635  0.00  0.00    -0.337 OA
BRANCH  26  27
ATOM     27  N   LIG    1      -13.346   4.932  21.436  0.00  0.00    -0.064 N 
ATOM     28  C   LIG    1      -13.892   3.698  21.285  0.00  0.00    +0.255 C 
ATOM     29  O   LIG    1      -14.762   3.340  20.506  0.00  0.00    -0.272 OA
ATOM     30  C   LIG    1      -13.190   2.796  22.256  0.00  0.00    +0.109 C 
ATOM     31  C   LIG    1      -12.762   3.762  23.346  0.00  0.00    +0.109 C 
ATOM     32  C   LIG    1      -12.946   5.126  22.720  0.00  0.00    +0.255 C 
ATOM     33  O   LIG    1      -12.824   6.170  23.330  0.00  0.00    -0.272 OA
ENDBRANCH  26  27
ENDBRANCH  24  26
ENDBRANCH  23  24
ENDBRANCH  22  23
ENDBRANCH  15  22
TORSDOF 6
ENDMDL
MODEL 3
REMARK VINA RESULT:      -6.2      3.598      7.043
REMARK  Name = 
REMARK                            x       y       z     vdW  Elec       q    Type
REMARK                         _______ _______ _______ _____ _____    ______ ____
ROOT
ATOM      1  C   LIG    1       -8.699   3.417  14.704  0.00  0.00    +0.045 C 
ATOM      2  C   LIG    1       -9.559   3.443  13.463  0.00  0.00    -0.030 A 
ATOM      3  C   LIG    1       -9.532   4.696  12.704  0.00  0.00    +0.022 A 
ATOM      4  C   LIG    1       -8.786   5.785  13.165  0.00  0.00    +0.024 A 
ATOM      5  C   LIG    1       -9.078   7.068  12.692  0.00  0.00    +0.029 A 
ATOM      6  C   LIG    1       -8.812   8.384  13.173  0.00  0.00    +0.028 A 
ATOM      7  C   LIG    1       -9.361   9.224  12.226  0.00  0.00    +0.204 A 
ATOM      8  O   LIG    1      -10.013   8.512  11.256  0.00  0.00    -0.462 OA
ATOM      9  C   LIG    1       -9.901   7.192  11.583  0.00  0.00    +0.139 A 
ATOM     10  C   LIG    1      -10.539   6.110  10.969  0.00  0.00    +0.093 A 
ATOM     11  C   LIG    1      -10.379   4.872  11.617  0.00  0.00    +0.143 A 
ATOM     12  O   LIG    1      -11.159   3.783  11.171  0.00  0.00    -0.422 OA
ATOM     13  C   LIG    1      -11.224   2.574  11.867  0.00  0.00    +0.341 A 
ATOM     14  O   LIG    1      -11.938   1.659  11.473  0.00  0.00    -0.245 OA
ATOM     15  C   LIG    1      -10.406   2.451  13.104  0.00  0.00    +0.041 A 
ENDROOT
BRANCH   6  16
ATOM     16  C   LIG    1       -8.263   8.785  14.469  0.00  0.00    -0.014 A 
ATOM     17  C   LIG    1       -6.892   8.803  14.732  0.00  0.00    +0.008 A 
ATOM     18  C   LIG    1       -6.418   9.196  15.992  0.00  0.00    +0.001 A 
ATOM     19  C   LIG    1       -7.304   9.562  17.006  0.00  0.00    +0.000 A 
ATOM     20  C   LIG    1       -8.669   9.562  16.758  0.00  0.00    +0.001 A 
ATOM     21  C   LIG    1       -9.138   9.198  15.495  0.00  0.00    +0.008 A 
ENDBRANCH   6  16
BRANCH  15  22
ATOM     22  C   LIG    1      -10.547   1.249  14.021  0.00  0.00    +0.054 C 
BRANCH  22  23
ATOM     23  C   LIG    1      -11.245  -0.056  13.670  0.00  0.00    +0.128 C 
BRANCH  23  24
ATOM     24  C   LIG    1      -10.354  -1.074  12.956  0.00  0.00    +0.332 C 
ATOM     25  O   LIG    1       -9.579  -0.727  12.069  0.00  0.00    -0.249 OA
BRANCH  24  26
ATOM     26  O   LIG    1      -10.314  -2.338  13.480  0.00  0.00    -0.337 OA
BRANCH  26  27
ATOM     27  N   LIG    1       -9.593  -3.246  12.694  0.00  0.00    -0.064 N 
ATOM     28  C   LIG    1      -10.223  -4.359  12.238  0.00  0.00    +0.255 C 
ATOM     29  O   LIG    1      -11.384  -4.698  12.400  0.00  0.00    -0.272 OA
ATOM     30  C   LIG    1       -9.214  -5.123  11.432  0.00  0.00    +0.109 C 
ATOM     31  C   LIG    1       -7.902  -4.695  12.064  0.00  0.00    +0.109 C 
ATOM     32  C   LIG    1       -8.272  -3.492  12.901  0.00  0.00    +0.255 C 
ATOM     33  O   LIG    1       -7.506  -2.938  13.663  0.00  0.00    -0.272 OA
ENDBRANCH  26  27
ENDBRANCH  24  26
ENDBRANCH  23  24
ENDBRANCH  22  23
ENDBRANCH  15  22
TORSDOF 6
ENDMDL
MODEL 4
REMARK VINA RESULT:      -5.5      3.913      7.625
REMARK  Name = 
REMARK                            x       y       z     vdW  Elec       q    Type
REMARK                         _______ _______ _______ _____ _____    ______ ____
ROOT
ATOM      1  C   LIG    1       -9.710   4.142  12.175  0.00  0.00    +0.045 C 
ATOM      2  C   LIG    1      -11.106   4.299  12.730  0.00  0.00    -0.030 A 
ATOM      3  C   LIG    1      -11.434   5.632  13.243  0.00  0.00    +0.022 A 
ATOM      4  C   LIG    1      -10.470   6.644  13.246  0.00  0.00    +0.024 A 
ATOM      5  C   LIG    1      -10.637   7.750  14.086  0.00  0.00    +0.029 A 
ATOM      6  C   LIG    1       -9.750   8.733  14.615  0.00  0.00    +0.028 A 
ATOM      7  C   LIG    1      -10.552   9.562  15.372  0.00  0.00    +0.204 A 
ATOM      8  O   LIG    1      -11.840   9.101  15.407  0.00  0.00    -0.462 OA
ATOM      9  C   LIG    1      -11.874   7.948  14.678  0.00  0.00    +0.139 A 
ATOM     10  C   LIG    1      -12.939   7.049  14.565  0.00  0.00    +0.093 A 
ATOM     11  C   LIG    1      -12.646   5.853  13.885  0.00  0.00    +0.143 A 
ATOM     12  O   LIG    1      -13.608   4.821  13.913  0.00  0.00    -0.422 OA
ATOM     13  C   LIG    1      -13.337   3.533  13.445  0.00  0.00    +0.341 A 
ATOM     14  O   LIG    1      -14.181   2.648  13.514  0.00  0.00    -0.245 OA
ATOM     15  C   LIG    1      -11.985   3.281  12.877  0.00  0.00    +0.041 A 
ENDROOT
BRANCH   6  16
ATOM     16  C   LIG    1       -8.288   8.767  14.553  0.00  0.00    -0.014 A 
ATOM     17  C   LIG    1       -7.577   8.466  13.390  0.00  0.00    +0.008 A 
ATOM     18  C   LIG    1       -6.175   8.513  13.384  0.00  0.00    +0.001 A 
ATOM     19  C   LIG    1       -5.468   8.848  14.539  0.00  0.00    +0.000 A 
ATOM     20  C   LIG    1       -6.158   9.162  15.701  0.00  0.00    +0.001 A 
ATOM     21  C   LIG    1       -7.554   9.141  15.698  0.00  0.00    +0.008 A 
ENDBRANCH   6  16
BRANCH  15  22
ATOM     22  C   LIG    1      -11.538   1.877  12.509  0.00  0.00    +0.054 C 
BRANCH  22  23
ATOM     23  C   LIG    1      -10.510   1.048  13.264  0.00  0.00    +0.128 C 
BRANCH  23  24
ATOM     24  C   LIG    1      -10.462  -0.425  12.851  0.00  0.00    +0.332 C 
ATOM     25  O   LIG    1      -11.482  -1.026  12.527  0.00  0.00    -0.249 OA
BRANCH  24  26
ATOM     26  O   LIG    1       -9.224  -0.977  12.669  0.00  0.00    -0.337 OA
BRANCH  26  27
ATOM     27  N   LIG    1       -9.244  -2.156  11.912  0.00  0.00    -0.064 N 
ATOM     28  C   LIG    1       -9.159  -3.348  12.557  0.00  0.00    +0.255 C 
ATOM     29  O   LIG    1       -9.083  -3.562  13.756  0.00  0.00    -0.272 OA
ATOM     30  C   LIG    1       -9.213  -4.412  11.501  0.00  0.00    +0.109 C 
ATOM     31  C   LIG    1       -8.651  -3.693  10.287  0.00  0.00    +0.109 C 
ATOM     32  C   LIG    1       -8.674  -2.234  10.681  0.00  0.00    +0.255 C 
ATOM     33  O   LIG    1       -8.182  -1.347  10.012  0.00  0.00    -0.272 OA
ENDBRANCH  26  27
ENDBRANCH  24  26
ENDBRANCH  23  24
ENDBRANCH  22  23
ENDBRANCH  15  22
TORSDOF 6
ENDMDL
MODEL 5
REMARK VINA RESULT:      -5.2      9.621     11.059
REMARK  Name = 
REMARK                            x       y       z     vdW  Elec       q    Type
REMARK                         _______ _______ _______ _____ _____    ______ ____
ROOT
ATOM      1  C   LIG    1      -11.847   6.135  15.081  0.00  0.00    +0.045 C 
ATOM      2  C   LIG    1      -12.352   6.137  13.658  0.00  0.00    -0.030 A 
ATOM      3  C   LIG    1      -11.332   6.350  12.628  0.00  0.00    +0.022 A 
ATOM      4  C   LIG    1      -10.002   6.583  12.988  0.00  0.00    +0.024 A 
ATOM      5  C   LIG    1       -9.135   7.182  12.068  0.00  0.00    +0.029 A 
ATOM      6  C   LIG    1       -7.897   7.879  12.185  0.00  0.00    +0.028 A 
ATOM      7  C   LIG    1       -7.552   8.205  10.889  0.00  0.00    +0.204 A 
ATOM      8  O   LIG    1       -8.533   7.833  10.011  0.00  0.00    -0.462 OA
ATOM      9  C   LIG    1       -9.537   7.271  10.744  0.00  0.00    +0.139 A 
ATOM     10  C   LIG    1      -10.803   6.887  10.293  0.00  0.00    +0.093 A 
ATOM     11  C   LIG    1      -11.705   6.492  11.297  0.00  0.00    +0.143 A 
ATOM     12  O   LIG    1      -13.055   6.290  10.935  0.00  0.00    -0.422 OA
ATOM     13  C   LIG    1      -14.061   6.094  11.883  0.00  0.00    +0.341 A 
ATOM     14  O   LIG    1      -15.230   5.957  11.541  0.00  0.00    -0.245 OA
ATOM     15  C   LIG    1      -13.659   6.074  13.316  0.00  0.00    +0.041 A 
ENDROOT
BRANCH   6  16
ATOM     16  C   LIG    1       -7.221   8.336  13.400  0.00  0.00    -0.014 A 
ATOM     17  C   LIG    1       -7.906   8.917  14.469  0.00  0.00    +0.008 A 
ATOM     18  C   LIG    1       -7.210   9.340  15.610  0.00  0.00    +0.001 A 
ATOM     19  C   LIG    1       -5.824   9.200  15.694  0.00  0.00    +0.000 A 
ATOM     20  C   LIG    1       -5.129   8.614  14.646  0.00  0.00    +0.001 A 
ATOM     21  C   LIG    1       -5.826   8.168  13.522  0.00  0.00    +0.008 A 
ENDBRANCH   6  16
BRANCH  15  22
ATOM     22  C   LIG    1      -14.699   6.047  14.422  0.00  0.00    +0.054 C 
BRANCH  22  23
ATOM     23  C   LIG    1      -15.199   4.802  15.138  0.00  0.00    +0.128 C 
BRANCH  23  24
ATOM     24  C   LIG    1      -15.563   3.643  14.207  0.00  0.00    +0.332 C 
ATOM     25  O   LIG    1      -14.715   2.836  13.837  0.00  0.00    -0.249 OA
BRANCH  24  26
ATOM     26  O   LIG    1      -16.895   3.433  13.972  0.00  0.00    -0.337 OA
BRANCH  26  27
ATOM     27  N   LIG    1      -17.165   2.205  13.353  0.00  0.00    -0.064 N 
ATOM     28  C   LIG    1      -17.608   2.203  12.070  0.00  0.00    +0.255 C 
ATOM     29  O   LIG    1      -17.799   3.154  11.328  0.00  0.00    -0.272 OA
ATOM     30  C   LIG    1      -17.800   0.766  11.684  0.00  0.00    +0.109 C 
ATOM     31  C   LIG    1      -18.082   0.106  13.022  0.00  0.00    +0.109 C 
ATOM     32  C   LIG    1      -17.674   1.147  14.039  0.00  0.00    +0.255 C 
ATOM     33  O   LIG    1      -17.868   1.036  15.233  0.00  0.00    -0.272 OA
ENDBRANCH  26  27
ENDBRANCH  24  26
ENDBRANCH  23  24
ENDBRANCH  22  23
ENDBRANCH  15  22
TORSDOF 6
ENDMDL
MODEL 6
REMARK VINA RESULT:      -5.2     10.465     12.510
REMARK  Name = 
REMARK                            x       y       z     vdW  Elec       q    Type
REMARK                         _______ _______ _______ _____ _____    ______ ____
ROOT
ATOM      1  C   LIG    1      -11.618   6.058  14.622  0.00  0.00    +0.045 C 
ATOM      2  C   LIG    1      -12.072   6.173  13.187  0.00  0.00    -0.030 A 
ATOM      3  C   LIG    1      -11.017   6.471  12.214  0.00  0.00    +0.022 A 
ATOM      4  C   LIG    1       -9.701   6.678  12.641  0.00  0.00    +0.024 A 
ATOM      5  C   LIG    1       -8.805   7.351  11.804  0.00  0.00    +0.029 A 
ATOM      6  C   LIG    1       -7.577   8.040  12.022  0.00  0.00    +0.028 A 
ATOM      7  C   LIG    1       -7.186   8.471  10.770  0.00  0.00    +0.204 A 
ATOM      8  O   LIG    1       -8.133   8.168   9.829  0.00  0.00    -0.462 OA
ATOM      9  C   LIG    1       -9.160   7.546  10.478  0.00  0.00    +0.139 A 
ATOM     10  C   LIG    1      -10.406   7.196   9.951  0.00  0.00    +0.093 A 
ATOM     11  C   LIG    1      -11.341   6.718  10.887  0.00  0.00    +0.143 A 
ATOM     12  O   LIG    1      -12.676   6.542  10.461  0.00  0.00    -0.422 OA
ATOM     13  C   LIG    1      -13.715   6.268  11.353  0.00  0.00    +0.341 A 
ATOM     14  O   LIG    1      -14.870   6.155  10.957  0.00  0.00    -0.245 OA
ATOM     15  C   LIG    1      -13.365   6.134  12.793  0.00  0.00    +0.041 A 
ENDROOT
BRANCH   6  16
ATOM     16  C   LIG    1       -6.948   8.401  13.293  0.00  0.00    -0.014 A 
ATOM     17  C   LIG    1       -5.580   8.246  13.526  0.00  0.00    +0.008 A 
ATOM     18  C   LIG    1       -5.027   8.605  14.764  0.00  0.00    +0.001 A 
ATOM     19  C   LIG    1       -5.832   9.112  15.785  0.00  0.00    +0.000 A 
ATOM     20  C   LIG    1       -7.191   9.283  15.567  0.00  0.00    +0.001 A 
ATOM     21  C   LIG    1       -7.736   8.951  14.326  0.00  0.00    +0.008 A 
ENDBRANCH   6  16
BRANCH  15  22
ATOM     22  C   LIG    1      -14.444   6.014  13.854  0.00  0.00    +0.054 C 
BRANCH  22  23
ATOM     23  C   LIG    1      -15.303   7.156  14.377  0.00  0.00    +0.128 C 
BRANCH  23  24
ATOM     24  C   LIG    1      -14.557   8.144  15.276  0.00  0.00    +0.332 C 
ATOM     25  O   LIG    1      -14.022   9.145  14.811  0.00  0.00    -0.249 OA
BRANCH  24  26
ATOM     26  O   LIG    1      -14.684   7.969  16.628  0.00  0.00    -0.337 OA
BRANCH  26  27
ATOM     27  N   LIG    1      -13.506   7.534  17.248  0.00  0.00    -0.064 N 
ATOM     28  C   LIG    1      -13.449   6.264  17.726  0.00  0.00    +0.255 C 
ATOM     29  O   LIG    1      -14.304   5.393  17.680  0.00  0.00    -0.272 OA
ATOM     30  C   LIG    1      -12.082   6.089  18.318  0.00  0.00    +0.109 C 
ATOM     31  C   LIG    1      -11.716   7.509  18.715  0.00  0.00    +0.109 C 
ATOM     32  C   LIG    1      -12.735   8.365  17.998  0.00  0.00    +0.255 C 
ATOM     33  O   LIG    1      -12.847   9.562  18.166  0.00  0.00    -0.272 OA
ENDBRANCH  26  27
ENDBRANCH  24  26
ENDBRANCH  23  24
ENDBRANCH  22  23
ENDBRANCH  15  22
TORSDOF 6
ENDMDL
MODEL 7
REMARK VINA RESULT:      -5.2     10.568     12.321
REMARK  Name = 
REMARK                            x       y       z     vdW  Elec       q    Type
REMARK                         _______ _______ _______ _____ _____    ______ ____
ROOT
ATOM      1  C   LIG    1      -11.942   6.207  17.263  0.00  0.00    +0.045 C 
ATOM      2  C   LIG    1      -13.057   6.075  16.253  0.00  0.00    -0.030 A 
ATOM      3  C   LIG    1      -12.639   6.080  14.849  0.00  0.00    +0.022 A 
ATOM      4  C   LIG    1      -11.292   6.251  14.514  0.00  0.00    +0.024 A 
ATOM      5  C   LIG    1      -10.952   6.663  13.221  0.00  0.00    +0.029 A 
ATOM      6  C   LIG    1       -9.796   7.270  12.649  0.00  0.00    +0.028 A 
ATOM      7  C   LIG    1      -10.096   7.408  11.309  0.00  0.00    +0.204 A 
ATOM      8  O   LIG    1      -11.379   7.009  11.049  0.00  0.00    -0.462 OA
ATOM      9  C   LIG    1      -11.927   6.622  12.237  0.00  0.00    +0.139 A 
ATOM     10  C   LIG    1      -13.262   6.286  12.484  0.00  0.00    +0.093 A 
ATOM     11  C   LIG    1      -13.591   6.088  13.838  0.00  0.00    +0.143 A 
ATOM     12  O   LIG    1      -14.954   5.950  14.176  0.00  0.00    -0.422 OA
ATOM     13  C   LIG    1      -15.400   5.951  15.500  0.00  0.00    +0.341 A 
ATOM     14  O   LIG    1      -16.594   5.864  15.761  0.00  0.00    -0.245 OA
ATOM     15  C   LIG    1      -14.372   6.074  16.569  0.00  0.00    +0.041 A 
ENDROOT
BRANCH   6  16
ATOM     16  C   LIG    1       -8.623   7.817  13.332  0.00  0.00    -0.014 A 
ATOM     17  C   LIG    1       -8.716   8.813  14.306  0.00  0.00    +0.008 A 
ATOM     18  C   LIG    1       -7.560   9.304  14.930  0.00  0.00    +0.001 A 
ATOM     19  C   LIG    1       -6.300   8.818  14.581  0.00  0.00    +0.000 A 
ATOM     20  C   LIG    1       -6.189   7.821  13.623  0.00  0.00    +0.001 A 
ATOM     21  C   LIG    1       -7.342   7.313  13.023  0.00  0.00    +0.008 A 
ENDBRANCH   6  16
BRANCH  15  22
ATOM     22  C   LIG    1      -14.771   6.263  18.021  0.00  0.00    +0.054 C 
BRANCH  22  23
ATOM     23  C   LIG    1      -15.124   5.149  18.996  0.00  0.00    +0.128 C 
BRANCH  23  24
ATOM     24  C   LIG    1      -14.218   5.081  20.228  0.00  0.00    +0.332 C 
ATOM     25  O   LIG    1      -13.127   5.643  20.245  0.00  0.00    -0.249 OA
BRANCH  24  26
ATOM     26  O   LIG    1      -14.757   4.541  21.364  0.00  0.00    -0.337 OA
BRANCH  26  27
ATOM     27  N   LIG    1      -14.519   3.167  21.497  0.00  0.00    -0.064 N 
ATOM     28  C   LIG    1      -15.581   2.322  21.553  0.00  0.00    +0.255 C 
ATOM     29  O   LIG    1      -16.770   2.587  21.482  0.00  0.00    -0.272 OA
ATOM     30  C   LIG    1      -15.020   0.937  21.686  0.00  0.00    +0.109 C 
ATOM     31  C   LIG    1      -13.687   1.191  22.368  0.00  0.00    +0.109 C 
ATOM     32  C   LIG    1      -13.480   2.681  22.226  0.00  0.00    +0.255 C 
ATOM     33  O   LIG    1      -12.573   3.290  22.759  0.00  0.00    -0.272 OA
ENDBRANCH  26  27
ENDBRANCH  24  26
ENDBRANCH  23  24
ENDBRANCH  22  23
ENDBRANCH  15  22
TORSDOF 6
ENDMDL
MODEL 8
REMARK VINA RESULT:      -5.1      4.755      9.901
REMARK  Name = 
REMARK                            x       y       z     vdW  Elec       q    Type
REMARK                         _______ _______ _______ _____ _____    ______ ____
ROOT
ATOM      1  C   LIG    1       -8.404   1.893  14.815  0.00  0.00    +0.045 C 
ATOM      2  C   LIG    1       -9.666   1.979  13.990  0.00  0.00    -0.030 A 
ATOM      3  C   LIG    1      -10.282   0.694  13.648  0.00  0.00    +0.022 A 
ATOM      4  C   LIG    1       -9.678  -0.505  14.036  0.00  0.00    +0.024 A 
ATOM      5  C   LIG    1      -10.020  -1.692  13.379  0.00  0.00    +0.029 A 
ATOM      6  C   LIG    1       -9.389  -2.962  13.241  0.00  0.00    +0.028 A 
ATOM      7  C   LIG    1      -10.259  -3.707  12.471  0.00  0.00    +0.204 A 
ATOM      8  O   LIG    1      -11.325  -2.951  12.064  0.00  0.00    -0.462 OA
ATOM      9  C   LIG    1      -11.138  -1.694  12.560  0.00  0.00    +0.139 A 
ATOM     10  C   LIG    1      -11.890  -0.551  12.274  0.00  0.00    +0.093 A 
ATOM     11  C   LIG    1      -11.375   0.652  12.792  0.00  0.00    +0.143 A 
ATOM     12  O   LIG    1      -11.966   1.863  12.370  0.00  0.00    -0.422 OA
ATOM     13  C   LIG    1      -11.408   3.109  12.664  0.00  0.00    +0.341 A 
ATOM     14  O   LIG    1      -11.926   4.142  12.255  0.00  0.00    -0.245 OA
ATOM     15  C   LIG    1      -10.162   3.127  13.476  0.00  0.00    +0.041 A 
ENDROOT
BRANCH   6  16
ATOM     16  C   LIG    1       -8.037  -3.356  13.641  0.00  0.00    -0.014 A 
ATOM     17  C   LIG    1       -6.908  -3.047  12.881  0.00  0.00    +0.008 A 
ATOM     18  C   LIG    1       -5.634  -3.449  13.309  0.00  0.00    +0.001 A 
ATOM     19  C   LIG    1       -5.474  -4.172  14.492  0.00  0.00    +0.000 A 
ATOM     20  C   LIG    1       -6.584  -4.477  15.266  0.00  0.00    +0.001 A 
ATOM     21  C   LIG    1       -7.848  -4.053  14.853  0.00  0.00    +0.008 A 
ENDBRANCH   6  16
BRANCH  15  22
ATOM     22  C   LIG    1       -9.387   4.415  13.694  0.00  0.00    +0.054 C 
BRANCH  22  23
ATOM     23  C   LIG    1       -9.154   5.497  12.651  0.00  0.00    +0.128 C 
BRANCH  23  24
ATOM     24  C   LIG    1       -9.869   6.818  12.944  0.00  0.00    +0.332 C 
ATOM     25  O   LIG    1      -10.850   6.859  13.681  0.00  0.00    -0.249 OA
BRANCH  24  26
ATOM     26  O   LIG    1       -9.255   7.963  12.514  0.00  0.00    -0.337 OA
BRANCH  26  27
ATOM     27  N   LIG    1       -7.968   8.137  13.039  0.00  0.00    -0.064 N 
ATOM     28  C   LIG    1       -7.833   8.703  14.266  0.00  0.00    +0.255 C 
ATOM     29  O   LIG    1       -8.706   9.087  15.028  0.00  0.00    -0.272 OA
ATOM     30  C   LIG    1       -6.363   8.749  14.558  0.00  0.00    +0.109 C 
ATOM     31  C   LIG    1       -5.757   8.808  13.167  0.00  0.00    +0.109 C 
ATOM     32  C   LIG    1       -6.901   8.436  12.252  0.00  0.00    +0.255 C 
ATOM     33  O   LIG    1       -6.841   8.492  11.040  0.00  0.00    -0.272 OA
ENDBRANCH  26  27
ENDBRANCH  24  26
ENDBRANCH  23  24
ENDBRANCH  22  23
ENDBRANCH  15  22
TORSDOF 6
ENDMDL
MODEL 9
REMARK VINA RESULT:      -5.1      9.701     11.880
REMARK  Name = 
REMARK                            x       y       z     vdW  Elec       q    Type
REMARK                         _______ _______ _______ _____ _____    ______ ____
ROOT
ATOM      1  C   LIG    1      -12.046   6.602  17.067  0.00  0.00    +0.045 C 
ATOM      2  C   LIG    1      -13.110   6.208  16.071  0.00  0.00    -0.030 A 
ATOM      3  C   LIG    1      -14.320   5.612  16.644  0.00  0.00    +0.022 A 
ATOM      4  C   LIG    1      -14.416   5.394  18.022  0.00  0.00    +0.024 A 
ATOM      5  C   LIG    1      -15.353   4.478  18.510  0.00  0.00    +0.029 A 
ATOM      6  C   LIG    1      -15.484   3.754  19.731  0.00  0.00    +0.028 A 
ATOM      7  C   LIG    1      -16.646   3.022  19.585  0.00  0.00    +0.204 A 
ATOM      8  O   LIG    1      -17.175   3.187  18.333  0.00  0.00    -0.462 OA
ATOM      9  C   LIG    1      -16.340   4.022  17.650  0.00  0.00    +0.139 A 
ATOM     10  C   LIG    1      -16.395   4.350  16.292  0.00  0.00    +0.093 A 
ATOM     11  C   LIG    1      -15.308   5.102  15.811  0.00  0.00    +0.143 A 
ATOM     12  O   LIG    1      -15.197   5.290  14.416  0.00  0.00    -0.422 OA
ATOM     13  C   LIG    1      -14.059   5.844  13.825  0.00  0.00    +0.341 A 
ATOM     14  O   LIG    1      -13.977   5.963  12.608  0.00  0.00    -0.245 OA
ATOM     15  C   LIG    1      -12.955   6.267  14.728  0.00  0.00    +0.041 A 
ENDROOT
BRANCH   6  16
ATOM     16  C   LIG    1      -14.522   3.635  20.827  0.00  0.00    -0.014 A 
ATOM     17  C   LIG    1      -14.220   2.415  21.435  0.00  0.00    +0.008 A 
ATOM     18  C   LIG    1      -13.291   2.356  22.483  0.00  0.00    +0.001 A 
ATOM     19  C   LIG    1      -12.661   3.513  22.944  0.00  0.00    +0.000 A 
ATOM     20  C   LIG    1      -12.940   4.732  22.344  0.00  0.00    +0.001 A 
ATOM     21  C   LIG    1      -13.844   4.786  21.283  0.00  0.00    +0.008 A 
ENDBRANCH   6  16
BRANCH  15  22
ATOM     22  C   LIG    1      -11.614   6.711  14.172  0.00  0.00    +0.054 C 
BRANCH  22  23
ATOM     23  C   LIG    1      -10.792   5.961  13.135  0.00  0.00    +0.128 C 
BRANCH  23  24
ATOM     24  C   LIG    1       -9.334   6.415  13.039  0.00  0.00    +0.332 C 
ATOM     25  O   LIG    1       -8.423   5.602  12.906  0.00  0.00    -0.249 OA
BRANCH  24  26
ATOM     26  O   LIG    1       -9.110   7.758  12.907  0.00  0.00    -0.337 OA
BRANCH  26  27
ATOM     27  N   LIG    1       -7.848   8.162  13.361  0.00  0.00    -0.064 N 
ATOM     28  C   LIG    1       -7.760   8.831  14.539  0.00  0.00    +0.255 C 
ATOM     29  O   LIG    1       -8.655   9.134  15.312  0.00  0.00    -0.272 OA
ATOM     30  C   LIG    1       -6.304   9.119  14.761  0.00  0.00    +0.109 C 
ATOM     31  C   LIG    1       -5.763   9.166  13.343  0.00  0.00    +0.109 C 
ATOM     32  C   LIG    1       -6.867   8.559  12.508  0.00  0.00    +0.255 C 
ATOM     33  O   LIG    1       -6.858   8.534  11.294  0.00  0.00    -0.272 OA
ENDBRANCH  26  27
ENDBRANCH  24  26
ENDBRANCH  23  24
ENDBRANCH  22  23
ENDBRANCH  15  22
TORSDOF 6
ENDMDL
