MODEL 1
REMARK VINA RESULT:      -9.1      0.000      0.000
REMARK  Name = 
REMARK                            x       y       z     vdW  Elec       q    Type
REMARK                         _______ _______ _______ _____ _____    ______ ____
ROOT
ATOM      1  C   LIG    1       62.401  45.319  32.797  0.00  0.00    +0.045 C 
ATOM      2  C   LIG    1       63.367  45.395  31.638  0.00  0.00    -0.030 A 
ATOM      3  C   LIG    1       62.821  45.958  30.400  0.00  0.00    +0.022 A 
ATOM      4  C   LIG    1       61.477  46.337  30.328  0.00  0.00    +0.024 A 
ATOM      5  C   LIG    1       60.868  46.475  29.077  0.00  0.00    +0.029 A 
ATOM      6  C   LIG    1       59.514  46.475  28.631  0.00  0.00    +0.028 A 
ATOM      7  C   LIG    1       59.590  46.671  27.267  0.00  0.00    +0.204 A 
ATOM      8  O   LIG    1       60.893  46.701  26.848  0.00  0.00    -0.462 OA
ATOM      9  C   LIG    1       61.674  46.507  27.950  0.00  0.00    +0.139 A 
ATOM     10  C   LIG    1       63.057  46.308  27.982  0.00  0.00    +0.093 A 
ATOM     11  C   LIG    1       63.585  45.962  29.240  0.00  0.00    +0.143 A 
ATOM     12  O   LIG    1       64.933  45.548  29.302  0.00  0.00    -0.422 OA
ATOM     13  C   LIG    1       65.493  44.996  30.457  0.00  0.00    +0.341 A 
ATOM     14  O   LIG    1       66.657  44.613  30.471  0.00  0.00    -0.245 OA
ATOM     15  C   LIG    1       64.618  44.881  31.655  0.00  0.00    +0.041 A 
ENDROOT
BRANCH   6  16
ATOM     16  C   LIG    1       58.305  46.146  29.390  0.00  0.00    -0.014 A 
ATOM     17  C   LIG    1       58.345  45.473  30.612  0.00  0.00    +0.008 A 
ATOM     18  C   LIG    1       57.158  45.180  31.298  0.00  0.00    +0.001 A 
ATOM     19  C   LIG    1       55.919  45.543  30.768  0.00  0.00    +0.000 A 
ATOM     20  C   LIG    1       55.862  46.223  29.560  0.00  0.00    +0.001 A 
ATOM     21  C   LIG    1       57.045  46.538  28.892  0.00  0.00    +0.008 A 
ENDBRANCH   6  16
BRANCH  15  22
ATOM     22  C   LIG    1       65.079  44.136  32.894  0.00  0.00    +0.054 C 
BRANCH  22  23
ATOM     23  C   LIG    1       65.997  44.691  33.973  0.00  0.00    +0.128 C 
BRANCH  23  24
ATOM     24  C   LIG    1       65.898  46.206  34.165  0.00  0.00    +0.332 C 
ATOM     25  O   LIG    1       66.144  46.979  33.243  0.00  0.00    -0.249 OA
BRANCH  24  26
ATOM     26  O   LIG    1       65.338  46.648  35.332  0.00  0.00    -0.337 OA
BRANCH  26  27
ATOM     27  N   LIG    1       63.945  46.786  35.266  0.00  0.00    -0.064 N 
ATOM     28  C   LIG    1       63.415  48.035  35.199  0.00  0.00    +0.255 C 
ATOM     29  O   LIG    1       63.995  49.109  35.168  0.00  0.00    -0.272 OA
ATOM     30  C   LIG    1       61.926  47.865  35.131  0.00  0.00    +0.109 C 
ATOM     31  C   LIG    1       61.718  46.539  35.842  0.00  0.00    +0.109 C 
ATOM     32  C   LIG    1       63.103  45.941  35.917  0.00  0.00    +0.255 C 
ATOM     33  O   LIG    1       63.368  44.927  36.531  0.00  0.00    -0.272 OA
ENDBRANCH  26  27
ENDBRANCH  24  26
ENDBRANCH  23  24
ENDBRANCH  22  23
ENDBRANCH  15  22
TORSDOF 6
ENDMDL
MODEL 2
REMARK VINA RESULT:      -9.0      2.844      4.776
REMARK  Name = 
REMARK                            x       y       z     vdW  Elec       q    Type
REMARK                         _______ _______ _______ _____ _____    ______ ____
ROOT
ATOM      1  C   LIG    1       65.345  46.856  33.186  0.00  0.00    +0.045 C 
ATOM      2  C   LIG    1       64.968  45.413  33.421  0.00  0.00    -0.030 A 
ATOM      3  C   LIG    1       64.743  44.616  32.213  0.00  0.00    +0.022 A 
ATOM      4  C   LIG    1       64.831  45.208  30.949  0.00  0.00    +0.024 A 
ATOM      5  C   LIG    1       64.229  44.582  29.853  0.00  0.00    +0.029 A 
ATOM      6  C   LIG    1       63.805  45.031  28.568  0.00  0.00    +0.028 A 
ATOM      7  C   LIG    1       63.295  43.906  27.951  0.00  0.00    +0.204 A 
ATOM      8  O   LIG    1       63.301  42.834  28.802  0.00  0.00    -0.462 OA
ATOM      9  C   LIG    1       63.806  43.269  29.992  0.00  0.00    +0.139 A 
ATOM     10  C   LIG    1       63.857  42.564  31.199  0.00  0.00    +0.093 A 
ATOM     11  C   LIG    1       64.274  43.312  32.315  0.00  0.00    +0.143 A 
ATOM     12  O   LIG    1       64.151  42.723  33.592  0.00  0.00    -0.422 OA
ATOM     13  C   LIG    1       64.346  43.447  34.770  0.00  0.00    +0.341 A 
ATOM     14  O   LIG    1       64.199  42.917  35.865  0.00  0.00    -0.245 OA
ATOM     15  C   LIG    1       64.724  44.880  34.640  0.00  0.00    +0.041 A 
ENDROOT
BRANCH   6  16
ATOM     16  C   LIG    1       63.729  46.402  28.062  0.00  0.00    -0.014 A 
ATOM     17  C   LIG    1       64.749  46.982  27.305  0.00  0.00    +0.008 A 
ATOM     18  C   LIG    1       64.627  48.301  26.845  0.00  0.00    +0.001 A 
ATOM     19  C   LIG    1       63.494  49.059  27.144  0.00  0.00    +0.000 A 
ATOM     20  C   LIG    1       62.466  48.495  27.885  0.00  0.00    +0.001 A 
ATOM     21  C   LIG    1       62.577  47.173  28.319  0.00  0.00    +0.008 A 
ENDBRANCH   6  16
BRANCH  15  22
ATOM     22  C   LIG    1       64.782  45.789  35.855  0.00  0.00    +0.054 C 
BRANCH  22  23
ATOM     23  C   LIG    1       63.585  46.438  36.534  0.00  0.00    +0.128 C 
BRANCH  23  24
ATOM     24  C   LIG    1       63.155  47.769  35.914  0.00  0.00    +0.332 C 
ATOM     25  O   LIG    1       63.962  48.676  35.733  0.00  0.00    -0.249 OA
BRANCH  24  26
ATOM     26  O   LIG    1       61.891  47.829  35.394  0.00  0.00    -0.337 OA
BRANCH  26  27
ATOM     27  N   LIG    1       61.814  47.401  34.062  0.00  0.00    -0.064 N 
ATOM     28  C   LIG    1       61.971  48.315  33.071  0.00  0.00    +0.255 C 
ATOM     29  O   LIG    1       62.199  49.511  33.166  0.00  0.00    -0.272 OA
ATOM     30  C   LIG    1       61.848  47.569  31.775  0.00  0.00    +0.109 C 
ATOM     31  C   LIG    1       60.962  46.397  32.159  0.00  0.00    +0.109 C 
ATOM     32  C   LIG    1       60.973  46.407  33.670  0.00  0.00    +0.255 C 
ATOM     33  O   LIG    1       60.274  45.687  34.355  0.00  0.00    -0.272 OA
ENDBRANCH  26  27
ENDBRANCH  24  26
ENDBRANCH  23  24
ENDBRANCH  22  23
ENDBRANCH  15  22
TORSDOF 6
ENDMDL
MODEL 3
REMARK VINA RESULT:      -8.1      2.520      7.299
REMARK  Name = 
REMARK                            x       y       z     vdW  Elec       q    Type
REMARK                         _______ _______ _______ _____ _____    ______ ____
ROOT
ATOM      1  C   LIG    1       60.640  45.815  30.359  0.00  0.00    +0.045 C 
ATOM      2  C   LIG    1       61.980  45.606  29.695  0.00  0.00    -0.030 A 
ATOM      3  C   LIG    1       63.130  45.549  30.601  0.00  0.00    +0.022 A 
ATOM      4  C   LIG    1       62.956  45.733  31.976  0.00  0.00    +0.024 A 
ATOM      5  C   LIG    1       64.054  46.086  32.767  0.00  0.00    +0.029 A 
ATOM      6  C   LIG    1       64.194  46.689  34.051  0.00  0.00    +0.028 A 
ATOM      7  C   LIG    1       65.556  46.752  34.265  0.00  0.00    +0.204 A 
ATOM      8  O   LIG    1       66.247  46.311  33.169  0.00  0.00    -0.462 OA
ATOM      9  C   LIG    1       65.323  45.972  32.222  0.00  0.00    +0.139 A 
ATOM     10  C   LIG    1       65.566  45.619  30.892  0.00  0.00    +0.093 A 
ATOM     11  C   LIG    1       64.419  45.483  30.088  0.00  0.00    +0.143 A 
ATOM     12  O   LIG    1       64.598  45.331  28.696  0.00  0.00    -0.422 OA
ATOM     13  C   LIG    1       63.533  45.389  27.794  0.00  0.00    +0.341 A 
ATOM     14  O   LIG    1       63.724  45.289  26.588  0.00  0.00    -0.245 OA
ATOM     15  C   LIG    1       62.170  45.591  28.356  0.00  0.00    +0.041 A 
ENDROOT
BRANCH   6  16
ATOM     16  C   LIG    1       63.160  47.298  34.889  0.00  0.00    -0.014 A 
ATOM     17  C   LIG    1       63.424  48.357  35.759  0.00  0.00    +0.008 A 
ATOM     18  C   LIG    1       62.397  48.904  36.542  0.00  0.00    +0.001 A 
ATOM     19  C   LIG    1       61.100  48.395  36.474  0.00  0.00    +0.000 A 
ATOM     20  C   LIG    1       60.817  47.350  35.606  0.00  0.00    +0.001 A 
ATOM     21  C   LIG    1       61.834  46.825  34.807  0.00  0.00    +0.008 A 
ENDBRANCH   6  16
BRANCH  15  22
ATOM     22  C   LIG    1       60.979  45.845  27.450  0.00  0.00    +0.054 C 
BRANCH  22  23
ATOM     23  C   LIG    1       60.112  47.095  27.454  0.00  0.00    +0.128 C 
BRANCH  23  24
ATOM     24  C   LIG    1       58.924  47.035  28.417  0.00  0.00    +0.332 C 
ATOM     25  O   LIG    1       58.711  47.939  29.219  0.00  0.00    -0.249 OA
BRANCH  24  26
ATOM     26  O   LIG    1       58.009  46.039  28.209  0.00  0.00    -0.337 OA
BRANCH  26  27
ATOM     27  N   LIG    1       57.003  45.992  29.183  0.00  0.00    -0.064 N 
ATOM     28  C   LIG    1       56.961  44.931  30.029  0.00  0.00    +0.255 C 
ATOM     29  O   LIG    1       57.713  43.971  30.085  0.00  0.00    -0.272 OA
ATOM     30  C   LIG    1       55.800  45.162  30.950  0.00  0.00    +0.109 C 
ATOM     31  C   LIG    1       54.880  46.023  30.103  0.00  0.00    +0.109 C 
ATOM     32  C   LIG    1       55.753  46.476  28.956  0.00  0.00    +0.255 C 
ATOM     33  O   LIG    1       55.338  47.088  27.993  0.00  0.00    -0.272 OA
ENDBRANCH  26  27
ENDBRANCH  24  26
ENDBRANCH  23  24
ENDBRANCH  22  23
ENDBRANCH  15  22
TORSDOF 6
ENDMDL
MODEL 4
REMARK VINA RESULT:      -7.3      2.844      7.732
REMARK  Name = 
REMARK                            x       y       z     vdW  Elec       q    Type
REMARK                         _______ _______ _______ _____ _____    ______ ____
ROOT
ATOM      1  C   LIG    1       60.233  46.558  31.402  0.00  0.00    +0.045 C 
ATOM      2  C   LIG    1       61.103  46.687  30.174  0.00  0.00    -0.030 A 
ATOM      3  C   LIG    1       62.451  46.125  30.295  0.00  0.00    +0.022 A 
ATOM      4  C   LIG    1       62.876  45.563  31.503  0.00  0.00    +0.024 A 
ATOM      5  C   LIG    1       64.245  45.411  31.746  0.00  0.00    +0.029 A 
ATOM      6  C   LIG    1       65.026  45.243  32.927  0.00  0.00    +0.028 A 
ATOM      7  C   LIG    1       66.327  45.139  32.478  0.00  0.00    +0.204 A 
ATOM      8  O   LIG    1       66.395  45.320  31.123  0.00  0.00    -0.462 OA
ATOM      9  C   LIG    1       65.124  45.560  30.686  0.00  0.00    +0.139 A 
ATOM     10  C   LIG    1       64.731  45.953  29.403  0.00  0.00    +0.093 A 
ATOM     11  C   LIG    1       63.373  46.297  29.271  0.00  0.00    +0.143 A 
ATOM     12  O   LIG    1       62.955  46.896  28.063  0.00  0.00    -0.422 OA
ATOM     13  C   LIG    1       61.684  47.454  27.905  0.00  0.00    +0.341 A 
ATOM     14  O   LIG    1       61.362  47.998  26.856  0.00  0.00    -0.245 OA
ATOM     15  C   LIG    1       60.752  47.373  29.062  0.00  0.00    +0.041 A 
ENDROOT
BRANCH   6  16
ATOM     16  C   LIG    1       64.601  45.352  34.323  0.00  0.00    -0.014 A 
ATOM     17  C   LIG    1       64.389  44.236  35.134  0.00  0.00    +0.008 A 
ATOM     18  C   LIG    1       63.981  44.395  36.466  0.00  0.00    +0.001 A 
ATOM     19  C   LIG    1       63.768  45.667  37.000  0.00  0.00    +0.000 A 
ATOM     20  C   LIG    1       63.986  46.788  36.212  0.00  0.00    +0.001 A 
ATOM     21  C   LIG    1       64.418  46.629  34.895  0.00  0.00    +0.008 A 
ENDBRANCH   6  16
BRANCH  15  22
ATOM     22  C   LIG    1       59.422  48.104  29.050  0.00  0.00    +0.054 C 
BRANCH  22  23
ATOM     23  C   LIG    1       58.050  47.451  29.132  0.00  0.00    +0.128 C 
BRANCH  23  24
ATOM     24  C   LIG    1       57.944  46.116  28.392  0.00  0.00    +0.332 C 
ATOM     25  O   LIG    1       58.900  45.349  28.326  0.00  0.00    -0.249 OA
BRANCH  24  26
ATOM     26  O   LIG    1       56.695  45.731  27.986  0.00  0.00    -0.337 OA
BRANCH  26  27
ATOM     27  N   LIG    1       55.857  45.350  29.042  0.00  0.00    -0.064 N 
ATOM     28  C   LIG    1       54.919  46.228  29.482  0.00  0.00    +0.255 C 
ATOM     29  O   LIG    1       54.670  47.349  29.066  0.00  0.00    -0.272 OA
ATOM     30  C   LIG    1       54.182  45.547  30.596  0.00  0.00    +0.109 C 
ATOM     31  C   LIG    1       55.223  44.578  31.130  0.00  0.00    +0.109 C 
ATOM     32  C   LIG    1       56.290  44.560  30.060  0.00  0.00    +0.255 C 
ATOM     33  O   LIG    1       57.356  43.990  30.180  0.00  0.00    -0.272 OA
ENDBRANCH  26  27
ENDBRANCH  24  26
ENDBRANCH  23  24
ENDBRANCH  22  23
ENDBRANCH  15  22
TORSDOF 6
ENDMDL
