MODEL 1
REMARK VINA RESULT:     -11.5      0.000      0.000
REMARK  Name = 
REMARK                            x       y       z     vdW  Elec       q    Type
REMARK                         _______ _______ _______ _____ _____    ______ ____
ROOT
ATOM      1  C   LIG    1       40.678  -0.855  18.617  0.00  0.00    +0.045 C 
ATOM      2  C   LIG    1       40.824  -0.634  17.131  0.00  0.00    -0.030 A 
ATOM      3  C   LIG    1       41.903  -1.387  16.485  0.00  0.00    +0.022 A 
ATOM      4  C   LIG    1       42.748  -2.203  17.244  0.00  0.00    +0.024 A 
ATOM      5  C   LIG    1       43.990  -2.579  16.723  0.00  0.00    +0.029 A 
ATOM      6  C   LIG    1       45.202  -3.054  17.304  0.00  0.00    +0.028 A 
ATOM      7  C   LIG    1       46.052  -3.254  16.235  0.00  0.00    +0.204 A 
ATOM      8  O   LIG    1       45.469  -2.852  15.063  0.00  0.00    -0.462 OA
ATOM      9  C   LIG    1       44.232  -2.369  15.375  0.00  0.00    +0.139 A 
ATOM     10  C   LIG    1       43.341  -1.710  14.523  0.00  0.00    +0.093 A 
ATOM     11  C   LIG    1       42.203  -1.167  15.147  0.00  0.00    +0.143 A 
ATOM     12  O   LIG    1       41.371  -0.317  14.386  0.00  0.00    -0.422 OA
ATOM     13  C   LIG    1       40.338   0.428  14.961  0.00  0.00    +0.341 A 
ATOM     14  O   LIG    1       39.655   1.184  14.280  0.00  0.00    -0.245 OA
ATOM     15  C   LIG    1       40.115   0.275  16.424  0.00  0.00    +0.041 A 
ENDROOT
BRANCH   6  16
ATOM     16  C   LIG    1       45.565  -3.132  18.720  0.00  0.00    -0.014 A 
ATOM     17  C   LIG    1       46.572  -3.974  19.194  0.00  0.00    +0.008 A 
ATOM     18  C   LIG    1       46.879  -4.012  20.561  0.00  0.00    +0.001 A 
ATOM     19  C   LIG    1       46.179  -3.220  21.472  0.00  0.00    +0.000 A 
ATOM     20  C   LIG    1       45.182  -2.369  21.018  0.00  0.00    +0.001 A 
ATOM     21  C   LIG    1       44.896  -2.312  19.653  0.00  0.00    +0.008 A 
ENDBRANCH   6  16
BRANCH  15  22
ATOM     22  C   LIG    1       39.140   1.171  17.166  0.00  0.00    +0.054 C 
BRANCH  22  23
ATOM     23  C   LIG    1       37.638   1.233  16.932  0.00  0.00    +0.128 C 
BRANCH  23  24
ATOM     24  C   LIG    1       37.071   2.651  16.849  0.00  0.00    +0.332 C 
ATOM     25  O   LIG    1       36.104   2.988  17.526  0.00  0.00    -0.249 OA
BRANCH  24  26
ATOM     26  O   LIG    1       37.803   3.571  16.148  0.00  0.00    -0.337 OA
BRANCH  26  27
ATOM     27  N   LIG    1       37.027   4.377  15.305  0.00  0.00    -0.064 N 
ATOM     28  C   LIG    1       36.624   3.876  14.109  0.00  0.00    +0.255 C 
ATOM     29  O   LIG    1       36.829   2.768  13.639  0.00  0.00    -0.272 OA
ATOM     30  C   LIG    1       35.815   4.950  13.444  0.00  0.00    +0.109 C 
ATOM     31  C   LIG    1       36.398   6.216  14.049  0.00  0.00    +0.109 C 
ATOM     32  C   LIG    1       37.205   5.723  15.227  0.00  0.00    +0.255 C 
ATOM     33  O   LIG    1       37.928   6.435  15.895  0.00  0.00    -0.272 OA
ENDBRANCH  26  27
ENDBRANCH  24  26
ENDBRANCH  23  24
ENDBRANCH  22  23
ENDBRANCH  15  22
TORSDOF 6
ENDMDL
MODEL 2
REMARK VINA RESULT:     -11.5      1.346      1.711
REMARK  Name = 
REMARK                            x       y       z     vdW  Elec       q    Type
REMARK                         _______ _______ _______ _____ _____    ______ ____
ROOT
ATOM      1  C   LIG    1       39.446  -1.707  17.857  0.00  0.00    +0.045 C 
ATOM      2  C   LIG    1       39.567  -1.478  16.369  0.00  0.00    -0.030 A 
ATOM      3  C   LIG    1       40.829  -1.915  15.766  0.00  0.00    +0.022 A 
ATOM      4  C   LIG    1       41.843  -2.455  16.563  0.00  0.00    +0.024 A 
ATOM      5  C   LIG    1       43.156  -2.483  16.079  0.00  0.00    +0.029 A 
ATOM      6  C   LIG    1       44.435  -2.597  16.698  0.00  0.00    +0.028 A 
ATOM      7  C   LIG    1       45.336  -2.572  15.653  0.00  0.00    +0.204 A 
ATOM      8  O   LIG    1       44.699  -2.365  14.460  0.00  0.00    -0.462 OA
ATOM      9  C   LIG    1       43.368  -2.236  14.732  0.00  0.00    +0.139 A 
ATOM     10  C   LIG    1       42.355  -1.861  13.845  0.00  0.00    +0.093 A 
ATOM     11  C   LIG    1       41.095  -1.642  14.430  0.00  0.00    +0.143 A 
ATOM     12  O   LIG    1       40.084  -1.066  13.631  0.00  0.00    -0.422 OA
ATOM     13  C   LIG    1       38.870  -0.625  14.165  0.00  0.00    +0.341 A 
ATOM     14  O   LIG    1       38.025  -0.097  13.452  0.00  0.00    -0.245 OA
ATOM     15  C   LIG    1       38.656  -0.810  15.625  0.00  0.00    +0.041 A 
ENDROOT
BRANCH   6  16
ATOM     16  C   LIG    1       44.764  -2.550  18.124  0.00  0.00    -0.014 A 
ATOM     17  C   LIG    1       44.137  -1.674  19.012  0.00  0.00    +0.008 A 
ATOM     18  C   LIG    1       44.490  -1.668  20.369  0.00  0.00    +0.001 A 
ATOM     19  C   LIG    1       45.480  -2.525  20.853  0.00  0.00    +0.000 A 
ATOM     20  C   LIG    1       46.105  -3.410  19.986  0.00  0.00    +0.001 A 
ATOM     21  C   LIG    1       45.733  -3.434  18.641  0.00  0.00    +0.008 A 
ENDBRANCH   6  16
BRANCH  15  22
ATOM     22  C   LIG    1       37.452  -0.205  16.324  0.00  0.00    +0.054 C 
BRANCH  22  23
ATOM     23  C   LIG    1       37.307   1.251  16.741  0.00  0.00    +0.128 C 
BRANCH  23  24
ATOM     24  C   LIG    1       38.624   2.029  16.777  0.00  0.00    +0.332 C 
ATOM     25  O   LIG    1       39.454   1.831  17.660  0.00  0.00    -0.249 OA
BRANCH  24  26
ATOM     26  O   LIG    1       38.918   2.800  15.686  0.00  0.00    -0.337 OA
BRANCH  26  27
ATOM     27  N   LIG    1       37.868   3.643  15.298  0.00  0.00    -0.064 N 
ATOM     28  C   LIG    1       37.437   3.601  14.011  0.00  0.00    +0.255 C 
ATOM     29  O   LIG    1       37.831   2.892  13.098  0.00  0.00    -0.272 OA
ATOM     30  C   LIG    1       36.317   4.592  13.900  0.00  0.00    +0.109 C 
ATOM     31  C   LIG    1       36.663   5.594  14.988  0.00  0.00    +0.109 C 
ATOM     32  C   LIG    1       37.714   4.891  15.815  0.00  0.00    +0.255 C 
ATOM     33  O   LIG    1       38.333   5.423  16.714  0.00  0.00    -0.272 OA
ENDBRANCH  26  27
ENDBRANCH  24  26
ENDBRANCH  23  24
ENDBRANCH  22  23
ENDBRANCH  15  22
TORSDOF 6
ENDMDL
MODEL 3
REMARK VINA RESULT:     -11.0      1.941      3.475
REMARK  Name = 
REMARK                            x       y       z     vdW  Elec       q    Type
REMARK                         _______ _______ _______ _____ _____    ______ ____
ROOT
ATOM      1  C   LIG    1       41.721  -1.144  14.248  0.00  0.00    +0.045 C 
ATOM      2  C   LIG    1       40.928  -0.789  15.483  0.00  0.00    -0.030 A 
ATOM      3  C   LIG    1       41.698  -0.720  16.728  0.00  0.00    +0.022 A 
ATOM      4  C   LIG    1       43.063  -1.023  16.732  0.00  0.00    +0.024 A 
ATOM      5  C   LIG    1       43.690  -1.357  17.937  0.00  0.00    +0.029 A 
ATOM      6  C   LIG    1       44.893  -2.046  18.267  0.00  0.00    +0.028 A 
ATOM      7  C   LIG    1       44.944  -2.028  19.646  0.00  0.00    +0.204 A 
ATOM      8  O   LIG    1       43.817  -1.455  20.171  0.00  0.00    -0.462 OA
ATOM      9  C   LIG    1       43.015  -1.111  19.122  0.00  0.00    +0.139 A 
ATOM     10  C   LIG    1       41.701  -0.639  19.181  0.00  0.00    +0.093 A 
ATOM     11  C   LIG    1       41.048  -0.523  17.940  0.00  0.00    +0.143 A 
ATOM     12  O   LIG    1       39.663  -0.251  17.941  0.00  0.00    -0.422 OA
ATOM     13  C   LIG    1       38.887  -0.315  16.782  0.00  0.00    +0.341 A 
ATOM     14  O   LIG    1       37.680  -0.108  16.820  0.00  0.00    -0.245 OA
ATOM     15  C   LIG    1       39.582  -0.656  15.511  0.00  0.00    +0.041 A 
ENDROOT
BRANCH   6  16
ATOM     16  C   LIG    1       45.789  -2.791  17.380  0.00  0.00    -0.014 A 
ATOM     17  C   LIG    1       47.087  -2.366  17.094  0.00  0.00    +0.008 A 
ATOM     18  C   LIG    1       47.905  -3.116  16.236  0.00  0.00    +0.001 A 
ATOM     19  C   LIG    1       47.434  -4.289  15.646  0.00  0.00    +0.000 A 
ATOM     20  C   LIG    1       46.150  -4.732  15.929  0.00  0.00    +0.001 A 
ATOM     21  C   LIG    1       45.347  -4.000  16.804  0.00  0.00    +0.008 A 
ENDBRANCH   6  16
BRANCH  15  22
ATOM     22  C   LIG    1       38.800  -0.923  14.237  0.00  0.00    +0.054 C 
BRANCH  22  23
ATOM     23  C   LIG    1       38.313   0.133  13.257  0.00  0.00    +0.128 C 
BRANCH  23  24
ATOM     24  C   LIG    1       38.412   1.569  13.779  0.00  0.00    +0.332 C 
ATOM     25  O   LIG    1       39.310   2.318  13.406  0.00  0.00    -0.249 OA
BRANCH  24  26
ATOM     26  O   LIG    1       37.355   2.036  14.512  0.00  0.00    -0.337 OA
BRANCH  26  27
ATOM     27  N   LIG    1       37.450   3.399  14.822  0.00  0.00    -0.064 N 
ATOM     28  C   LIG    1       37.808   3.760  16.081  0.00  0.00    +0.255 C 
ATOM     29  O   LIG    1       38.094   3.043  17.027  0.00  0.00    -0.272 OA
ATOM     30  C   LIG    1       37.832   5.259  16.107  0.00  0.00    +0.109 C 
ATOM     31  C   LIG    1       36.827   5.618  15.026  0.00  0.00    +0.109 C 
ATOM     32  C   LIG    1       36.616   4.323  14.276  0.00  0.00    +0.255 C 
ATOM     33  O   LIG    1       35.780   4.175  13.407  0.00  0.00    -0.272 OA
ENDBRANCH  26  27
ENDBRANCH  24  26
ENDBRANCH  23  24
ENDBRANCH  22  23
ENDBRANCH  15  22
TORSDOF 6
ENDMDL
MODEL 4
REMARK VINA RESULT:     -10.7      3.067      9.690
REMARK  Name = 
REMARK                            x       y       z     vdW  Elec       q    Type
REMARK                         _______ _______ _______ _____ _____    ______ ____
ROOT
ATOM      1  C   LIG    1       41.184   0.199  18.077  0.00  0.00    +0.045 C 
ATOM      2  C   LIG    1       41.483  -0.336  16.698  0.00  0.00    -0.030 A 
ATOM      3  C   LIG    1       40.801   0.347  15.595  0.00  0.00    +0.022 A 
ATOM      4  C   LIG    1       39.903   1.386  15.856  0.00  0.00    +0.024 A 
ATOM      5  C   LIG    1       38.967   1.747  14.881  0.00  0.00    +0.029 A 
ATOM      6  C   LIG    1       37.727   2.449  14.912  0.00  0.00    +0.028 A 
ATOM      7  C   LIG    1       37.304   2.480  13.599  0.00  0.00    +0.204 A 
ATOM      8  O   LIG    1       38.155   1.773  12.793  0.00  0.00    -0.462 OA
ATOM      9  C   LIG    1       39.135   1.262  13.593  0.00  0.00    +0.139 A 
ATOM     10  C   LIG    1       40.131   0.349  13.234  0.00  0.00    +0.093 A 
ATOM     11  C   LIG    1       40.909  -0.141  14.299  0.00  0.00    +0.143 A 
ATOM     12  O   LIG    1       41.790  -1.213  14.039  0.00  0.00    -0.422 OA
ATOM     13  C   LIG    1       42.453  -1.900  15.058  0.00  0.00    +0.341 A 
ATOM     14  O   LIG    1       43.185  -2.849  14.804  0.00  0.00    -0.245 OA
ATOM     15  C   LIG    1       42.223  -1.443  16.455  0.00  0.00    +0.041 A 
ENDROOT
BRANCH   6  16
ATOM     16  C   LIG    1       36.952   2.877  16.079  0.00  0.00    -0.014 A 
ATOM     17  C   LIG    1       36.333   4.126  16.153  0.00  0.00    +0.008 A 
ATOM     18  C   LIG    1       35.603   4.487  17.295  0.00  0.00    +0.001 A 
ATOM     19  C   LIG    1       35.492   3.614  18.377  0.00  0.00    +0.000 A 
ATOM     20  C   LIG    1       36.091   2.364  18.315  0.00  0.00    +0.001 A 
ATOM     21  C   LIG    1       36.794   1.995  17.168  0.00  0.00    +0.008 A 
ENDBRANCH   6  16
BRANCH  15  22
ATOM     22  C   LIG    1       42.754  -2.234  17.637  0.00  0.00    +0.054 C 
BRANCH  22  23
ATOM     23  C   LIG    1       43.791  -1.745  18.637  0.00  0.00    +0.128 C 
BRANCH  23  24
ATOM     24  C   LIG    1       45.038  -2.627  18.733  0.00  0.00    +0.332 C 
ATOM     25  O   LIG    1       45.693  -2.689  19.770  0.00  0.00    -0.249 OA
BRANCH  24  26
ATOM     26  O   LIG    1       45.270  -3.487  17.694  0.00  0.00    -0.337 OA
BRANCH  26  27
ATOM     27  N   LIG    1       46.557  -3.371  17.151  0.00  0.00    -0.064 N 
ATOM     28  C   LIG    1       46.701  -2.806  15.925  0.00  0.00    +0.255 C 
ATOM     29  O   LIG    1       45.840  -2.343  15.193  0.00  0.00    -0.272 OA
ATOM     30  C   LIG    1       48.169  -2.813  15.618  0.00  0.00    +0.109 C 
ATOM     31  C   LIG    1       48.663  -4.000  16.428  0.00  0.00    +0.109 C 
ATOM     32  C   LIG    1       47.518  -4.309  17.364  0.00  0.00    +0.255 C 
ATOM     33  O   LIG    1       47.485  -5.281  18.092  0.00  0.00    -0.272 OA
ENDBRANCH  26  27
ENDBRANCH  24  26
ENDBRANCH  23  24
ENDBRANCH  22  23
ENDBRANCH  15  22
TORSDOF 6
ENDMDL
MODEL 5
REMARK VINA RESULT:     -10.7      2.090      3.439
REMARK  Name = 
REMARK                            x       y       z     vdW  Elec       q    Type
REMARK                         _______ _______ _______ _____ _____    ______ ____
ROOT
ATOM      1  C   LIG    1       41.743  -1.045  14.252  0.00  0.00    +0.045 C 
ATOM      2  C   LIG    1       40.966  -0.664  15.489  0.00  0.00    -0.030 A 
ATOM      3  C   LIG    1       41.739  -0.630  16.733  0.00  0.00    +0.022 A 
ATOM      4  C   LIG    1       43.091  -0.986  16.734  0.00  0.00    +0.024 A 
ATOM      5  C   LIG    1       43.706  -1.349  17.938  0.00  0.00    +0.029 A 
ATOM      6  C   LIG    1       44.881  -2.086  18.264  0.00  0.00    +0.028 A 
ATOM      7  C   LIG    1       44.933  -2.075  19.643  0.00  0.00    +0.204 A 
ATOM      8  O   LIG    1       43.831  -1.460  20.172  0.00  0.00    -0.462 OA
ATOM      9  C   LIG    1       43.042  -1.081  19.125  0.00  0.00    +0.139 A 
ATOM     10  C   LIG    1       41.747  -0.558  19.186  0.00  0.00    +0.093 A 
ATOM     11  C   LIG    1       41.099  -0.412  17.946  0.00  0.00    +0.143 A 
ATOM     12  O   LIG    1       39.725  -0.086  17.950  0.00  0.00    -0.422 OA
ATOM     13  C   LIG    1       38.947  -0.115  16.791  0.00  0.00    +0.341 A 
ATOM     14  O   LIG    1       37.749   0.139  16.831  0.00  0.00    -0.245 OA
ATOM     15  C   LIG    1       39.626  -0.478  15.518  0.00  0.00    +0.041 A 
ENDROOT
BRANCH   6  16
ATOM     16  C   LIG    1       45.746  -2.862  17.374  0.00  0.00    -0.014 A 
ATOM     17  C   LIG    1       45.333  -4.053  16.774  0.00  0.00    +0.008 A 
ATOM     18  C   LIG    1       46.202  -4.759  15.930  0.00  0.00    +0.001 A 
ATOM     19  C   LIG    1       47.494  -4.293  15.683  0.00  0.00    +0.000 A 
ATOM     20  C   LIG    1       47.917  -3.104  16.261  0.00  0.00    +0.001 A 
ATOM     21  C   LIG    1       47.042  -2.388  17.080  0.00  0.00    +0.008 A 
ENDBRANCH   6  16
BRANCH  15  22
ATOM     22  C   LIG    1       38.834  -0.710  14.244  0.00  0.00    +0.054 C 
BRANCH  22  23
ATOM     23  C   LIG    1       38.519   0.342  13.191  0.00  0.00    +0.128 C 
BRANCH  23  24
ATOM     24  C   LIG    1       37.589   1.457  13.674  0.00  0.00    +0.332 C 
ATOM     25  O   LIG    1       36.553   1.201  14.280  0.00  0.00    -0.249 OA
BRANCH  24  26
ATOM     26  O   LIG    1       38.056   2.739  13.577  0.00  0.00    -0.337 OA
BRANCH  26  27
ATOM     27  N   LIG    1       37.943   3.466  14.769  0.00  0.00    -0.064 N 
ATOM     28  C   LIG    1       37.225   4.619  14.767  0.00  0.00    +0.255 C 
ATOM     29  O   LIG    1       36.616   5.135  13.843  0.00  0.00    -0.272 OA
ATOM     30  C   LIG    1       37.276   5.160  16.165  0.00  0.00    +0.109 C 
ATOM     31  C   LIG    1       38.589   4.598  16.682  0.00  0.00    +0.109 C 
ATOM     32  C   LIG    1       38.956   3.534  15.674  0.00  0.00    +0.255 C 
ATOM     33  O   LIG    1       40.015   2.938  15.676  0.00  0.00    -0.272 OA
ENDBRANCH  26  27
ENDBRANCH  24  26
ENDBRANCH  23  24
ENDBRANCH  22  23
ENDBRANCH  15  22
TORSDOF 6
ENDMDL
MODEL 6
REMARK VINA RESULT:      -9.7      2.628      4.178
REMARK  Name = 
REMARK                            x       y       z     vdW  Elec       q    Type
REMARK                         _______ _______ _______ _____ _____    ______ ____
ROOT
ATOM      1  C   LIG    1       42.075  -2.266  14.387  0.00  0.00    +0.045 C 
ATOM      2  C   LIG    1       41.212  -1.832  15.548  0.00  0.00    -0.030 A 
ATOM      3  C   LIG    1       41.936  -1.456  16.765  0.00  0.00    +0.022 A 
ATOM      4  C   LIG    1       43.329  -1.558  16.819  0.00  0.00    +0.024 A 
ATOM      5  C   LIG    1       43.968  -1.602  18.062  0.00  0.00    +0.029 A 
ATOM      6  C   LIG    1       45.247  -2.053  18.501  0.00  0.00    +0.028 A 
ATOM      7  C   LIG    1       45.263  -1.806  19.858  0.00  0.00    +0.204 A 
ATOM      8  O   LIG    1       44.056  -1.321  20.283  0.00  0.00    -0.462 OA
ATOM      9  C   LIG    1       43.238  -1.266  19.192  0.00  0.00    +0.139 A 
ATOM     10  C   LIG    1       41.870  -0.981  19.172  0.00  0.00    +0.093 A 
ATOM     11  C   LIG    1       41.237  -1.160  17.929  0.00  0.00    +0.143 A 
ATOM     12  O   LIG    1       39.827  -1.090  17.886  0.00  0.00    -0.422 OA
ATOM     13  C   LIG    1       39.096  -1.448  16.751  0.00  0.00    +0.341 A 
ATOM     14  O   LIG    1       37.871  -1.410  16.755  0.00  0.00    -0.245 OA
ATOM     15  C   LIG    1       39.860  -1.888  15.553  0.00  0.00    +0.041 A 
ENDROOT
BRANCH   6  16
ATOM     16  C   LIG    1       46.258  -2.796  17.747  0.00  0.00    -0.014 A 
ATOM     17  C   LIG    1       47.002  -3.836  18.309  0.00  0.00    +0.008 A 
ATOM     18  C   LIG    1       47.960  -4.516  17.543  0.00  0.00    +0.001 A 
ATOM     19  C   LIG    1       48.195  -4.160  16.215  0.00  0.00    +0.000 A 
ATOM     20  C   LIG    1       47.457  -3.137  15.636  0.00  0.00    +0.001 A 
ATOM     21  C   LIG    1       46.485  -2.479  16.391  0.00  0.00    +0.008 A 
ENDBRANCH   6  16
BRANCH  15  22
ATOM     22  C   LIG    1       39.153  -2.464  14.339  0.00  0.00    +0.054 C 
BRANCH  22  23
ATOM     23  C   LIG    1       38.401  -1.662  13.287  0.00  0.00    +0.128 C 
BRANCH  23  24
ATOM     24  C   LIG    1       39.192  -0.488  12.707  0.00  0.00    +0.332 C 
ATOM     25  O   LIG    1       40.286  -0.660  12.178  0.00  0.00    -0.249 OA
BRANCH  24  26
ATOM     26  O   LIG    1       38.544   0.714  12.625  0.00  0.00    -0.337 OA
BRANCH  26  27
ATOM     27  N   LIG    1       38.431   1.374  13.856  0.00  0.00    -0.064 N 
ATOM     28  C   LIG    1       39.558   1.614  14.574  0.00  0.00    +0.255 C 
ATOM     29  O   LIG    1       40.715   1.346  14.290  0.00  0.00    -0.272 OA
ATOM     30  C   LIG    1       39.129   2.329  15.821  0.00  0.00    +0.109 C 
ATOM     31  C   LIG    1       37.705   1.834  16.004  0.00  0.00    +0.109 C 
ATOM     32  C   LIG    1       37.366   1.189  14.680  0.00  0.00    +0.255 C 
ATOM     33  O   LIG    1       36.346   0.562  14.476  0.00  0.00    -0.272 OA
ENDBRANCH  26  27
ENDBRANCH  24  26
ENDBRANCH  23  24
ENDBRANCH  22  23
ENDBRANCH  15  22
TORSDOF 6
ENDMDL
MODEL 7
REMARK VINA RESULT:      -9.6      1.260      2.227
REMARK  Name = 
REMARK                            x       y       z     vdW  Elec       q    Type
REMARK                         _______ _______ _______ _____ _____    ______ ____
ROOT
ATOM      1  C   LIG    1       40.659  -1.620  17.728  0.00  0.00    +0.045 C 
ATOM      2  C   LIG    1       41.085  -1.530  16.282  0.00  0.00    -0.030 A 
ATOM      3  C   LIG    1       42.362  -2.173  15.960  0.00  0.00    +0.022 A 
ATOM      4  C   LIG    1       43.125  -2.771  16.967  0.00  0.00    +0.024 A 
ATOM      5  C   LIG    1       44.487  -3.006  16.750  0.00  0.00    +0.029 A 
ATOM      6  C   LIG    1       45.600  -3.233  17.611  0.00  0.00    +0.028 A 
ATOM      7  C   LIG    1       46.674  -3.408  16.761  0.00  0.00    +0.204 A 
ATOM      8  O   LIG    1       46.304  -3.218  15.457  0.00  0.00    -0.462 OA
ATOM      9  C   LIG    1       44.977  -2.899  15.458  0.00  0.00    +0.139 A 
ATOM     10  C   LIG    1       44.209  -2.470  14.372  0.00  0.00    +0.093 A 
ATOM     11  C   LIG    1       42.906  -2.045  14.688  0.00  0.00    +0.143 A 
ATOM     12  O   LIG    1       42.151  -1.410  13.678  0.00  0.00    -0.422 OA
ATOM     13  C   LIG    1       40.935  -0.776  13.941  0.00  0.00    +0.341 A 
ATOM     14  O   LIG    1       40.319  -0.203  13.049  0.00  0.00    -0.245 OA
ATOM     15  C   LIG    1       40.430  -0.813  15.340  0.00  0.00    +0.041 A 
ENDROOT
BRANCH   6  16
ATOM     16  C   LIG    1       45.664  -3.113  19.068  0.00  0.00    -0.014 A 
ATOM     17  C   LIG    1       44.880  -2.205  19.783  0.00  0.00    +0.008 A 
ATOM     18  C   LIG    1       44.980  -2.130  21.180  0.00  0.00    +0.001 A 
ATOM     19  C   LIG    1       45.869  -2.948  21.877  0.00  0.00    +0.000 A 
ATOM     20  C   LIG    1       46.647  -3.864  21.184  0.00  0.00    +0.001 A 
ATOM     21  C   LIG    1       46.527  -3.957  19.797  0.00  0.00    +0.008 A 
ENDBRANCH   6  16
BRANCH  15  22
ATOM     22  C   LIG    1       39.215  -0.005  15.757  0.00  0.00    +0.054 C 
BRANCH  22  23
ATOM     23  C   LIG    1       39.180   1.502  15.961  0.00  0.00    +0.128 C 
BRANCH  23  24
ATOM     24  C   LIG    1       38.499   2.275  14.829  0.00  0.00    +0.332 C 
ATOM     25  O   LIG    1       39.149   2.736  13.895  0.00  0.00    -0.249 OA
BRANCH  24  26
ATOM     26  O   LIG    1       37.131   2.257  14.803  0.00  0.00    -0.337 OA
BRANCH  26  27
ATOM     27  N   LIG    1       36.543   3.141  15.716  0.00  0.00    -0.064 N 
ATOM     28  C   LIG    1       36.726   4.476  15.545  0.00  0.00    +0.255 C 
ATOM     29  O   LIG    1       37.341   5.054  14.662  0.00  0.00    -0.272 OA
ATOM     30  C   LIG    1       35.981   5.157  16.654  0.00  0.00    +0.109 C 
ATOM     31  C   LIG    1       35.992   4.103  17.747  0.00  0.00    +0.109 C 
ATOM     32  C   LIG    1       36.415   2.839  17.035  0.00  0.00    +0.255 C 
ATOM     33  O   LIG    1       36.660   1.794  17.604  0.00  0.00    -0.272 OA
ENDBRANCH  26  27
ENDBRANCH  24  26
ENDBRANCH  23  24
ENDBRANCH  22  23
ENDBRANCH  15  22
TORSDOF 6
ENDMDL
MODEL 8
REMARK VINA RESULT:      -9.4      2.838      9.712
REMARK  Name = 
REMARK                            x       y       z     vdW  Elec       q    Type
REMARK                         _______ _______ _______ _____ _____    ______ ____
ROOT
ATOM      1  C   LIG    1       39.237  -0.810  17.298  0.00  0.00    +0.045 C 
ATOM      2  C   LIG    1       39.751  -0.509  15.910  0.00  0.00    -0.030 A 
ATOM      3  C   LIG    1       39.411   0.817  15.387  0.00  0.00    +0.022 A 
ATOM      4  C   LIG    1       38.617   1.690  16.136  0.00  0.00    +0.024 A 
ATOM      5  C   LIG    1       37.963   2.747  15.495  0.00  0.00    +0.029 A 
ATOM      6  C   LIG    1       36.844   3.565  15.828  0.00  0.00    +0.028 A 
ATOM      7  C   LIG    1       36.717   4.439  14.767  0.00  0.00    +0.204 A 
ATOM      8  O   LIG    1       37.622   4.150  13.782  0.00  0.00    -0.462 OA
ATOM      9  C   LIG    1       38.337   3.065  14.199  0.00  0.00    +0.139 A 
ATOM     10  C   LIG    1       39.262   2.325  13.457  0.00  0.00    +0.093 A 
ATOM     11  C   LIG    1       39.728   1.151  14.076  0.00  0.00    +0.143 A 
ATOM     12  O   LIG    1       40.500   0.256  13.306  0.00  0.00    -0.422 OA
ATOM     13  C   LIG    1       40.840  -1.021  13.760  0.00  0.00    +0.341 A 
ATOM     14  O   LIG    1       41.482  -1.790  13.053  0.00  0.00    -0.245 OA
ATOM     15  C   LIG    1       40.378  -1.410  15.120  0.00  0.00    +0.041 A 
ENDROOT
BRANCH   6  16
ATOM     16  C   LIG    1       35.901   3.410  16.937  0.00  0.00    -0.014 A 
ATOM     17  C   LIG    1       36.265   2.845  18.160  0.00  0.00    +0.008 A 
ATOM     18  C   LIG    1       35.321   2.718  19.190  0.00  0.00    +0.001 A 
ATOM     19  C   LIG    1       34.004   3.142  19.008  0.00  0.00    +0.000 A 
ATOM     20  C   LIG    1       33.628   3.717  17.803  0.00  0.00    +0.001 A 
ATOM     21  C   LIG    1       34.575   3.867  16.788  0.00  0.00    +0.008 A 
ENDBRANCH   6  16
BRANCH  15  22
ATOM     22  C   LIG    1       40.542  -2.831  15.627  0.00  0.00    +0.054 C 
BRANCH  22  23
ATOM     23  C   LIG    1       41.855  -3.480  16.039  0.00  0.00    +0.128 C 
BRANCH  23  24
ATOM     24  C   LIG    1       42.838  -2.530  16.727  0.00  0.00    +0.332 C 
ATOM     25  O   LIG    1       42.529  -1.932  17.754  0.00  0.00    -0.249 OA
BRANCH  24  26
ATOM     26  O   LIG    1       44.126  -2.531  16.267  0.00  0.00    -0.337 OA
BRANCH  26  27
ATOM     27  N   LIG    1       44.985  -3.352  17.010  0.00  0.00    -0.064 N 
ATOM     28  C   LIG    1       45.843  -2.774  17.889  0.00  0.00    +0.255 C 
ATOM     29  O   LIG    1       45.976  -1.591  18.159  0.00  0.00    -0.272 OA
ATOM     30  C   LIG    1       46.614  -3.889  18.532  0.00  0.00    +0.109 C 
ATOM     31  C   LIG    1       46.581  -4.965  17.461  0.00  0.00    +0.109 C 
ATOM     32  C   LIG    1       45.518  -4.492  16.497  0.00  0.00    +0.255 C 
ATOM     33  O   LIG    1       45.284  -5.030  15.433  0.00  0.00    -0.272 OA
ENDBRANCH  26  27
ENDBRANCH  24  26
ENDBRANCH  23  24
ENDBRANCH  22  23
ENDBRANCH  15  22
TORSDOF 6
ENDMDL
