MODEL 1
REMARK VINA RESULT:      -8.7      0.000      0.000
REMARK  Name = 
REMARK                            x       y       z     vdW  Elec       q    Type
REMARK                         _______ _______ _______ _____ _____    ______ ____
ROOT
ATOM      1  C   LIG    1       20.967  26.288   8.897  0.00  0.00    +0.045 C 
ATOM      2  C   LIG    1       20.849  27.777   8.678  0.00  0.00    -0.030 A 
ATOM      3  C   LIG    1       21.883  28.372   7.827  0.00  0.00    +0.022 A 
ATOM      4  C   LIG    1       22.918  27.584   7.316  0.00  0.00    +0.024 A 
ATOM      5  C   LIG    1       24.093  28.197   6.869  0.00  0.00    +0.029 A 
ATOM      6  C   LIG    1       25.425  27.739   6.651  0.00  0.00    +0.028 A 
ATOM      7  C   LIG    1       26.108  28.846   6.190  0.00  0.00    +0.204 A 
ATOM      8  O   LIG    1       25.307  29.956   6.199  0.00  0.00    -0.462 OA
ATOM      9  C   LIG    1       24.092  29.570   6.686  0.00  0.00    +0.139 A 
ATOM     10  C   LIG    1       23.013  30.394   7.017  0.00  0.00    +0.093 A 
ATOM     11  C   LIG    1       21.940  29.750   7.659  0.00  0.00    +0.143 A 
ATOM     12  O   LIG    1       20.914  30.552   8.203  0.00  0.00    -0.422 OA
ATOM     13  C   LIG    1       19.915  30.031   9.028  0.00  0.00    +0.341 A 
ATOM     14  O   LIG    1       19.056  30.758   9.514  0.00  0.00    -0.245 OA
ATOM     15  C   LIG    1       19.946  28.568   9.301  0.00  0.00    +0.041 A 
ENDROOT
BRANCH   6  16
ATOM     16  C   LIG    1       26.016  26.449   7.012  0.00  0.00    -0.014 A 
ATOM     17  C   LIG    1       25.795  25.841   8.249  0.00  0.00    +0.008 A 
ATOM     18  C   LIG    1       26.386  24.604   8.546  0.00  0.00    +0.001 A 
ATOM     19  C   LIG    1       27.211  23.967   7.619  0.00  0.00    +0.000 A 
ATOM     20  C   LIG    1       27.432  24.551   6.380  0.00  0.00    +0.001 A 
ATOM     21  C   LIG    1       26.821  25.768   6.075  0.00  0.00    +0.008 A 
ENDBRANCH   6  16
BRANCH  15  22
ATOM     22  C   LIG    1       19.014  27.942  10.323  0.00  0.00    +0.054 C 
BRANCH  22  23
ATOM     23  C   LIG    1       19.446  27.170  11.561  0.00  0.00    +0.128 C 
BRANCH  23  24
ATOM     24  C   LIG    1       18.671  27.530  12.830  0.00  0.00    +0.332 C 
ATOM     25  O   LIG    1       18.035  26.680  13.447  0.00  0.00    -0.249 OA
BRANCH  24  26
ATOM     26  O   LIG    1       18.878  28.778  13.349  0.00  0.00    -0.337 OA
BRANCH  26  27
ATOM     27  N   LIG    1       20.117  28.919  13.988  0.00  0.00    -0.064 N 
ATOM     28  C   LIG    1       20.145  29.059  15.338  0.00  0.00    +0.255 C 
ATOM     29  O   LIG    1       19.210  29.063  16.123  0.00  0.00    -0.272 OA
ATOM     30  C   LIG    1       21.589  29.178  15.728  0.00  0.00    +0.109 C 
ATOM     31  C   LIG    1       22.215  29.766  14.475  0.00  0.00    +0.109 C 
ATOM     32  C   LIG    1       21.154  29.585  13.414  0.00  0.00    +0.255 C 
ATOM     33  O   LIG    1       21.235  30.047  12.293  0.00  0.00    -0.272 OA
ENDBRANCH  26  27
ENDBRANCH  24  26
ENDBRANCH  23  24
ENDBRANCH  22  23
ENDBRANCH  15  22
TORSDOF 6
ENDMDL
MODEL 2
REMARK VINA RESULT:      -8.6      3.786      6.655
REMARK  Name = 
REMARK                            x       y       z     vdW  Elec       q    Type
REMARK                         _______ _______ _______ _____ _____    ______ ____
ROOT
ATOM      1  C   LIG    1       22.202  30.573   6.001  0.00  0.00    +0.045 C 
ATOM      2  C   LIG    1       23.363  29.671   6.345  0.00  0.00    -0.030 A 
ATOM      3  C   LIG    1       24.671  30.114   5.855  0.00  0.00    +0.022 A 
ATOM      4  C   LIG    1       24.780  31.274   5.081  0.00  0.00    +0.024 A 
ATOM      5  C   LIG    1       25.916  31.467   4.289  0.00  0.00    +0.029 A 
ATOM      6  C   LIG    1       26.203  32.279   3.153  0.00  0.00    +0.028 A 
ATOM      7  C   LIG    1       27.523  32.013   2.852  0.00  0.00    +0.204 A 
ATOM      8  O   LIG    1       28.026  31.037   3.669  0.00  0.00    -0.462 OA
ATOM      9  C   LIG    1       27.016  30.651   4.502  0.00  0.00    +0.139 A 
ATOM     10  C   LIG    1       27.022  29.577   5.397  0.00  0.00    +0.093 A 
ATOM     11  C   LIG    1       25.786  29.300   6.010  0.00  0.00    +0.143 A 
ATOM     12  O   LIG    1       25.670  28.111   6.762  0.00  0.00    -0.422 OA
ATOM     13  C   LIG    1       24.443  27.645   7.240  0.00  0.00    +0.341 A 
ATOM     14  O   LIG    1       24.369  26.591   7.861  0.00  0.00    -0.245 OA
ATOM     15  C   LIG    1       23.238  28.469   6.952  0.00  0.00    +0.041 A 
ENDROOT
BRANCH   6  16
ATOM     16  C   LIG    1       25.276  33.072   2.343  0.00  0.00    -0.014 A 
ATOM     17  C   LIG    1       24.760  32.617   1.128  0.00  0.00    +0.008 A 
ATOM     18  C   LIG    1       23.876  33.417   0.390  0.00  0.00    +0.001 A 
ATOM     19  C   LIG    1       23.505  34.681   0.849  0.00  0.00    +0.000 A 
ATOM     20  C   LIG    1       23.999  35.144   2.060  0.00  0.00    +0.001 A 
ATOM     21  C   LIG    1       24.857  34.336   2.807  0.00  0.00    +0.008 A 
ENDBRANCH   6  16
BRANCH  15  22
ATOM     22  C   LIG    1       21.845  27.959   7.272  0.00  0.00    +0.054 C 
BRANCH  22  23
ATOM     23  C   LIG    1       21.220  27.897   8.658  0.00  0.00    +0.128 C 
BRANCH  23  24
ATOM     24  C   LIG    1       20.157  28.966   8.918  0.00  0.00    +0.332 C 
ATOM     25  O   LIG    1       20.377  30.150   8.680  0.00  0.00    -0.249 OA
BRANCH  24  26
ATOM     26  O   LIG    1       18.900  28.527   9.232  0.00  0.00    -0.337 OA
BRANCH  26  27
ATOM     27  N   LIG    1       17.966  29.561   9.373  0.00  0.00    -0.064 N 
ATOM     28  C   LIG    1       17.708  30.045  10.615  0.00  0.00    +0.255 C 
ATOM     29  O   LIG    1       18.203  29.713  11.681  0.00  0.00    -0.272 OA
ATOM     30  C   LIG    1       16.689  31.133  10.450  0.00  0.00    +0.109 C 
ATOM     31  C   LIG    1       15.965  30.710   9.183  0.00  0.00    +0.109 C 
ATOM     32  C   LIG    1       16.862  29.651   8.584  0.00  0.00    +0.255 C 
ATOM     33  O   LIG    1       16.560  28.979   7.618  0.00  0.00    -0.272 OA
ENDBRANCH  26  27
ENDBRANCH  24  26
ENDBRANCH  23  24
ENDBRANCH  22  23
ENDBRANCH  15  22
TORSDOF 6
ENDMDL
MODEL 3
REMARK VINA RESULT:      -8.2      4.094      9.988
REMARK  Name = 
REMARK                            x       y       z     vdW  Elec       q    Type
REMARK                         _______ _______ _______ _____ _____    ______ ____
ROOT
ATOM      1  C   LIG    1       21.394  30.776   6.873  0.00  0.00    +0.045 C 
ATOM      2  C   LIG    1       22.124  29.498   7.212  0.00  0.00    -0.030 A 
ATOM      3  C   LIG    1       21.413  28.586   8.112  0.00  0.00    +0.022 A 
ATOM      4  C   LIG    1       20.167  28.941   8.638  0.00  0.00    +0.024 A 
ATOM      5  C   LIG    1       19.693  28.291   9.782  0.00  0.00    +0.029 A 
ATOM      6  C   LIG    1       18.714  28.612  10.766  0.00  0.00    +0.028 A 
ATOM      7  C   LIG    1       18.717  27.536  11.632  0.00  0.00    +0.204 A 
ATOM      8  O   LIG    1       19.687  26.633  11.289  0.00  0.00    -0.462 OA
ATOM      9  C   LIG    1       20.334  27.134  10.197  0.00  0.00    +0.139 A 
ATOM     10  C   LIG    1       21.491  26.632   9.594  0.00  0.00    +0.093 A 
ATOM     11  C   LIG    1       22.043  27.442   8.585  0.00  0.00    +0.143 A 
ATOM     12  O   LIG    1       23.316  27.099   8.081  0.00  0.00    -0.422 OA
ATOM     13  C   LIG    1       24.035  27.942   7.229  0.00  0.00    +0.341 A 
ATOM     14  O   LIG    1       25.153  27.632   6.836  0.00  0.00    -0.245 OA
ATOM     15  C   LIG    1       23.395  29.226   6.836  0.00  0.00    +0.041 A 
ENDROOT
BRANCH   6  16
ATOM     16  C   LIG    1       17.995  29.873  10.959  0.00  0.00    -0.014 A 
ATOM     17  C   LIG    1       18.173  30.675  12.088  0.00  0.00    +0.008 A 
ATOM     18  C   LIG    1       17.459  31.873  12.225  0.00  0.00    +0.001 A 
ATOM     19  C   LIG    1       16.552  32.279  11.246  0.00  0.00    +0.000 A 
ATOM     20  C   LIG    1       16.371  31.501  10.112  0.00  0.00    +0.001 A 
ATOM     21  C   LIG    1       17.103  30.321   9.964  0.00  0.00    +0.008 A 
ENDBRANCH   6  16
BRANCH  15  22
ATOM     22  C   LIG    1       24.165  30.282   6.063  0.00  0.00    +0.054 C 
BRANCH  22  23
ATOM     23  C   LIG    1       23.970  30.624   4.594  0.00  0.00    +0.128 C 
BRANCH  23  24
ATOM     24  C   LIG    1       25.120  30.181   3.686  0.00  0.00    +0.332 C 
ATOM     25  O   LIG    1       25.284  28.998   3.401  0.00  0.00    -0.249 OA
BRANCH  24  26
ATOM     26  O   LIG    1       25.826  31.168   3.054  0.00  0.00    -0.337 OA
BRANCH  26  27
ATOM     27  N   LIG    1       25.022  32.036   2.304  0.00  0.00    -0.064 N 
ATOM     28  C   LIG    1       24.743  31.718   1.013  0.00  0.00    +0.255 C 
ATOM     29  O   LIG    1       25.088  30.733   0.380  0.00  0.00    -0.272 OA
ATOM     30  C   LIG    1       23.870  32.814   0.480  0.00  0.00    +0.109 C 
ATOM     31  C   LIG    1       24.283  34.002   1.331  0.00  0.00    +0.109 C 
ATOM     32  C   LIG    1       25.066  33.385   2.467  0.00  0.00    +0.255 C 
ATOM     33  O   LIG    1       25.672  34.032   3.298  0.00  0.00    -0.272 OA
ENDBRANCH  26  27
ENDBRANCH  24  26
ENDBRANCH  23  24
ENDBRANCH  22  23
ENDBRANCH  15  22
TORSDOF 6
ENDMDL
MODEL 4
REMARK VINA RESULT:      -8.2      3.818      6.661
REMARK  Name = 
REMARK                            x       y       z     vdW  Elec       q    Type
REMARK                         _______ _______ _______ _____ _____    ______ ____
ROOT
ATOM      1  C   LIG    1       22.411  30.574   5.644  0.00  0.00    +0.045 C 
ATOM      2  C   LIG    1       23.649  29.760   5.933  0.00  0.00    -0.030 A 
ATOM      3  C   LIG    1       24.909  30.341   5.460  0.00  0.00    +0.022 A 
ATOM      4  C   LIG    1       24.909  31.544   4.748  0.00  0.00    +0.024 A 
ATOM      5  C   LIG    1       26.015  31.877   3.960  0.00  0.00    +0.029 A 
ATOM      6  C   LIG    1       26.218  32.770   2.868  0.00  0.00    +0.028 A 
ATOM      7  C   LIG    1       27.553  32.637   2.546  0.00  0.00    +0.204 A 
ATOM      8  O   LIG    1       28.148  31.668   3.307  0.00  0.00    -0.462 OA
ATOM      9  C   LIG    1       27.184  31.151   4.123  0.00  0.00    +0.139 A 
ATOM     10  C   LIG    1       27.292  30.037   4.961  0.00  0.00    +0.093 A 
ATOM     11  C   LIG    1       26.092  29.620   5.565  0.00  0.00    +0.143 A 
ATOM     12  O   LIG    1       26.088  28.388   6.254  0.00  0.00    -0.422 OA
ATOM     13  C   LIG    1       24.911  27.792   6.713  0.00  0.00    +0.341 A 
ATOM     14  O   LIG    1       24.936  26.705   7.277  0.00  0.00    -0.245 OA
ATOM     15  C   LIG    1       23.636  28.521   6.476  0.00  0.00    +0.041 A 
ENDROOT
BRANCH   6  16
ATOM     16  C   LIG    1       25.217  33.520   2.107  0.00  0.00    -0.014 A 
ATOM     17  C   LIG    1       24.703  33.067   0.890  0.00  0.00    +0.008 A 
ATOM     18  C   LIG    1       23.746  33.825   0.200  0.00  0.00    +0.001 A 
ATOM     19  C   LIG    1       23.300  35.046   0.708  0.00  0.00    +0.000 A 
ATOM     20  C   LIG    1       23.791  35.505   1.921  0.00  0.00    +0.001 A 
ATOM     21  C   LIG    1       24.724  34.737   2.621  0.00  0.00    +0.008 A 
ENDBRANCH   6  16
BRANCH  15  22
ATOM     22  C   LIG    1       22.296  27.875   6.776  0.00  0.00    +0.054 C 
BRANCH  22  23
ATOM     23  C   LIG    1       21.744  27.581   8.163  0.00  0.00    +0.128 C 
BRANCH  23  24
ATOM     24  C   LIG    1       20.851  28.685   8.732  0.00  0.00    +0.332 C 
ATOM     25  O   LIG    1       21.181  29.866   8.666  0.00  0.00    -0.249 OA
BRANCH  24  26
ATOM     26  O   LIG    1       19.594  28.321   9.132  0.00  0.00    -0.337 OA
BRANCH  26  27
ATOM     27  N   LIG    1       19.194  28.920  10.333  0.00  0.00    -0.064 N 
ATOM     28  C   LIG    1       19.159  28.164  11.461  0.00  0.00    +0.255 C 
ATOM     29  O   LIG    1       19.455  26.987  11.599  0.00  0.00    -0.272 OA
ATOM     30  C   LIG    1       18.708  29.067  12.570  0.00  0.00    +0.109 C 
ATOM     31  C   LIG    1       17.883  30.105  11.828  0.00  0.00    +0.109 C 
ATOM     32  C   LIG    1       18.242  29.890  10.376  0.00  0.00    +0.255 C 
ATOM     33  O   LIG    1       17.688  30.453   9.453  0.00  0.00    -0.272 OA
ENDBRANCH  26  27
ENDBRANCH  24  26
ENDBRANCH  23  24
ENDBRANCH  22  23
ENDBRANCH  15  22
TORSDOF 6
ENDMDL
MODEL 5
REMARK VINA RESULT:      -8.2      3.504      8.946
REMARK  Name = 
REMARK                            x       y       z     vdW  Elec       q    Type
REMARK                         _______ _______ _______ _____ _____    ______ ____
ROOT
ATOM      1  C   LIG    1       21.434  30.601   6.818  0.00  0.00    +0.045 C 
ATOM      2  C   LIG    1       22.148  29.334   7.225  0.00  0.00    -0.030 A 
ATOM      3  C   LIG    1       21.409  28.463   8.143  0.00  0.00    +0.022 A 
ATOM      4  C   LIG    1       20.153  28.846   8.624  0.00  0.00    +0.024 A 
ATOM      5  C   LIG    1       19.647  28.244   9.781  0.00  0.00    +0.029 A 
ATOM      6  C   LIG    1       18.646  28.609  10.728  0.00  0.00    +0.028 A 
ATOM      7  C   LIG    1       18.621  27.569  11.635  0.00  0.00    +0.204 A 
ATOM      8  O   LIG    1       19.593  26.648  11.352  0.00  0.00    -0.462 OA
ATOM      9  C   LIG    1       20.269  27.101  10.257  0.00  0.00    +0.139 A 
ATOM     10  C   LIG    1       21.438  26.569   9.703  0.00  0.00    +0.093 A 
ATOM     11  C   LIG    1       22.019  27.334   8.676  0.00  0.00    +0.143 A 
ATOM     12  O   LIG    1       23.302  26.964   8.218  0.00  0.00    -0.422 OA
ATOM     13  C   LIG    1       24.046  27.768   7.351  0.00  0.00    +0.341 A 
ATOM     14  O   LIG    1       25.172  27.437   6.998  0.00  0.00    -0.245 OA
ATOM     15  C   LIG    1       23.425  29.040   6.892  0.00  0.00    +0.041 A 
ENDROOT
BRANCH   6  16
ATOM     16  C   LIG    1       17.932  29.881  10.853  0.00  0.00    -0.014 A 
ATOM     17  C   LIG    1       17.115  30.388   9.841  0.00  0.00    +0.008 A 
ATOM     18  C   LIG    1       16.453  31.612  10.011  0.00  0.00    +0.001 A 
ATOM     19  C   LIG    1       16.608  32.350  11.186  0.00  0.00    +0.000 A 
ATOM     20  C   LIG    1       17.406  31.856  12.207  0.00  0.00    +0.001 A 
ATOM     21  C   LIG    1       18.042  30.624  12.048  0.00  0.00    +0.008 A 
ENDBRANCH   6  16
BRANCH  15  22
ATOM     22  C   LIG    1       24.221  30.059   6.097  0.00  0.00    +0.054 C 
BRANCH  22  23
ATOM     23  C   LIG    1       25.557  30.658   6.511  0.00  0.00    +0.128 C 
BRANCH  23  24
ATOM     24  C   LIG    1       26.731  30.258   5.615  0.00  0.00    +0.332 C 
ATOM     25  O   LIG    1       26.545  29.823   4.482  0.00  0.00    -0.249 OA
BRANCH  24  26
ATOM     26  O   LIG    1       27.984  30.591   6.051  0.00  0.00    -0.337 OA
BRANCH  26  27
ATOM     27  N   LIG    1       28.238  30.202   7.372  0.00  0.00    -0.064 N 
ATOM     28  C   LIG    1       28.667  31.137   8.258  0.00  0.00    +0.255 C 
ATOM     29  O   LIG    1       28.859  32.329   8.076  0.00  0.00    -0.272 OA
ATOM     30  C   LIG    1       28.842  30.434   9.572  0.00  0.00    +0.109 C 
ATOM     31  C   LIG    1       29.132  29.007   9.141  0.00  0.00    +0.109 C 
ATOM     32  C   LIG    1       28.745  28.979   7.681  0.00  0.00    +0.255 C 
ATOM     33  O   LIG    1       28.950  28.033   6.947  0.00  0.00    -0.272 OA
ENDBRANCH  26  27
ENDBRANCH  24  26
ENDBRANCH  23  24
ENDBRANCH  22  23
ENDBRANCH  15  22
TORSDOF 6
ENDMDL
MODEL 6
REMARK VINA RESULT:      -8.2      2.002      3.055
REMARK  Name = 
REMARK                            x       y       z     vdW  Elec       q    Type
REMARK                         _______ _______ _______ _____ _____    ______ ____
ROOT
ATOM      1  C   LIG    1       21.911  26.429   8.645  0.00  0.00    +0.045 C 
ATOM      2  C   LIG    1       21.726  27.881   8.274  0.00  0.00    -0.030 A 
ATOM      3  C   LIG    1       22.550  28.357   7.160  0.00  0.00    +0.022 A 
ATOM      4  C   LIG    1       23.470  27.501   6.547  0.00  0.00    +0.024 A 
ATOM      5  C   LIG    1       24.517  28.043   5.794  0.00  0.00    +0.029 A 
ATOM      6  C   LIG    1       25.782  27.550   5.361  0.00  0.00    +0.028 A 
ATOM      7  C   LIG    1       26.336  28.585   4.636  0.00  0.00    +0.204 A 
ATOM      8  O   LIG    1       25.536  29.695   4.675  0.00  0.00    -0.462 OA
ATOM      9  C   LIG    1       24.455  29.384   5.447  0.00  0.00    +0.139 A 
ATOM     10  C   LIG    1       23.454  30.253   5.892  0.00  0.00    +0.093 A 
ATOM     11  C   LIG    1       22.549  29.703   6.817  0.00  0.00    +0.143 A 
ATOM     12  O   LIG    1       21.644  30.575   7.460  0.00  0.00    -0.422 OA
ATOM     13  C   LIG    1       20.847  30.169   8.532  0.00  0.00    +0.341 A 
ATOM     14  O   LIG    1       20.096  30.959   9.092  0.00  0.00    -0.245 OA
ATOM     15  C   LIG    1       20.958  28.751   8.969  0.00  0.00    +0.041 A 
ENDROOT
BRANCH   6  16
ATOM     16  C   LIG    1       26.456  26.309   5.747  0.00  0.00    -0.014 A 
ATOM     17  C   LIG    1       26.797  25.320   4.823  0.00  0.00    +0.008 A 
ATOM     18  C   LIG    1       27.441  24.148   5.245  0.00  0.00    +0.001 A 
ATOM     19  C   LIG    1       27.741  23.944   6.593  0.00  0.00    +0.000 A 
ATOM     20  C   LIG    1       27.419  24.922   7.523  0.00  0.00    +0.001 A 
ATOM     21  C   LIG    1       26.803  26.100   7.098  0.00  0.00    +0.008 A 
ENDBRANCH   6  16
BRANCH  15  22
ATOM     22  C   LIG    1       20.269  28.264  10.231  0.00  0.00    +0.054 C 
BRANCH  22  23
ATOM     23  C   LIG    1       20.673  28.618  11.655  0.00  0.00    +0.128 C 
BRANCH  23  24
ATOM     24  C   LIG    1       19.726  29.597  12.352  0.00  0.00    +0.332 C 
ATOM     25  O   LIG    1       20.151  30.615  12.891  0.00  0.00    -0.249 OA
BRANCH  24  26
ATOM     26  O   LIG    1       18.385  29.393  12.178  0.00  0.00    -0.337 OA
BRANCH  26  27
ATOM     27  N   LIG    1       17.750  30.421  11.469  0.00  0.00    -0.064 N 
ATOM     28  C   LIG    1       17.123  31.405  12.165  0.00  0.00    +0.255 C 
ATOM     29  O   LIG    1       17.039  31.547  13.375  0.00  0.00    -0.272 OA
ATOM     30  C   LIG    1       16.554  32.352  11.151  0.00  0.00    +0.109 C 
ATOM     31  C   LIG    1       16.344  31.451   9.947  0.00  0.00    +0.109 C 
ATOM     32  C   LIG    1       17.130  30.203  10.280  0.00  0.00    +0.255 C 
ATOM     33  O   LIG    1       17.105  29.192   9.608  0.00  0.00    -0.272 OA
ENDBRANCH  26  27
ENDBRANCH  24  26
ENDBRANCH  23  24
ENDBRANCH  22  23
ENDBRANCH  15  22
TORSDOF 6
ENDMDL
MODEL 7
REMARK VINA RESULT:      -8.1      3.459      8.767
REMARK  Name = 
REMARK                            x       y       z     vdW  Elec       q    Type
REMARK                         _______ _______ _______ _____ _____    ______ ____
ROOT
ATOM      1  C   LIG    1       21.424  30.672   6.926  0.00  0.00    +0.045 C 
ATOM      2  C   LIG    1       22.118  29.382   7.293  0.00  0.00    -0.030 A 
ATOM      3  C   LIG    1       21.369  28.498   8.190  0.00  0.00    +0.022 A 
ATOM      4  C   LIG    1       20.122  28.888   8.688  0.00  0.00    +0.024 A 
ATOM      5  C   LIG    1       19.612  28.262   9.830  0.00  0.00    +0.029 A 
ATOM      6  C   LIG    1       18.622  28.617  10.792  0.00  0.00    +0.028 A 
ATOM      7  C   LIG    1       18.584  27.552  11.669  0.00  0.00    +0.204 A 
ATOM      8  O   LIG    1       19.538  26.623  11.355  0.00  0.00    -0.462 OA
ATOM      9  C   LIG    1       20.217  27.096  10.270  0.00  0.00    +0.139 A 
ATOM     10  C   LIG    1       21.374  26.560   9.695  0.00  0.00    +0.093 A 
ATOM     11  C   LIG    1       21.963  27.345   8.687  0.00  0.00    +0.143 A 
ATOM     12  O   LIG    1       23.237  26.967   8.211  0.00  0.00    -0.422 OA
ATOM     13  C   LIG    1       23.991  27.782   7.364  0.00  0.00    +0.341 A 
ATOM     14  O   LIG    1       25.109  27.443   6.995  0.00  0.00    -0.245 OA
ATOM     15  C   LIG    1       23.388  29.076   6.944  0.00  0.00    +0.041 A 
ENDROOT
BRANCH   6  16
ATOM     16  C   LIG    1       17.930  29.896  10.958  0.00  0.00    -0.014 A 
ATOM     17  C   LIG    1       18.060  30.679  12.106  0.00  0.00    +0.008 A 
ATOM     18  C   LIG    1       17.373  31.897  12.215  0.00  0.00    +0.001 A 
ATOM     19  C   LIG    1       16.542  32.342  11.186  0.00  0.00    +0.000 A 
ATOM     20  C   LIG    1       16.410  31.582  10.033  0.00  0.00    +0.001 A 
ATOM     21  C   LIG    1       17.115  30.383   9.914  0.00  0.00    +0.008 A 
ENDBRANCH   6  16
BRANCH  15  22
ATOM     22  C   LIG    1       24.198  30.105   6.175  0.00  0.00    +0.054 C 
BRANCH  22  23
ATOM     23  C   LIG    1       25.646  29.946   5.738  0.00  0.00    +0.128 C 
BRANCH  23  24
ATOM     24  C   LIG    1       26.621  30.903   6.429  0.00  0.00    +0.332 C 
ATOM     25  O   LIG    1       27.080  31.877   5.839  0.00  0.00    -0.249 OA
BRANCH  24  26
ATOM     26  O   LIG    1       26.798  30.739   7.775  0.00  0.00    -0.337 OA
BRANCH  26  27
ATOM     27  N   LIG    1       28.104  30.373   8.127  0.00  0.00    -0.064 N 
ATOM     28  C   LIG    1       28.313  29.152   8.682  0.00  0.00    +0.255 C 
ATOM     29  O   LIG    1       27.500  28.272   8.917  0.00  0.00    -0.272 OA
ATOM     30  C   LIG    1       29.787  29.043   8.938  0.00  0.00    +0.109 C 
ATOM     31  C   LIG    1       30.194  30.496   9.114  0.00  0.00    +0.109 C 
ATOM     32  C   LIG    1       29.007  31.275   8.595  0.00  0.00    +0.255 C 
ATOM     33  O   LIG    1       28.901  32.482   8.684  0.00  0.00    -0.272 OA
ENDBRANCH  26  27
ENDBRANCH  24  26
ENDBRANCH  23  24
ENDBRANCH  22  23
ENDBRANCH  15  22
TORSDOF 6
ENDMDL
MODEL 8
REMARK VINA RESULT:      -7.9      2.657      3.650
REMARK  Name = 
REMARK                            x       y       z     vdW  Elec       q    Type
REMARK                         _______ _______ _______ _____ _____    ______ ____
ROOT
ATOM      1  C   LIG    1       21.796  26.454   8.668  0.00  0.00    +0.045 C 
ATOM      2  C   LIG    1       21.822  27.890   8.201  0.00  0.00    -0.030 A 
ATOM      3  C   LIG    1       22.812  28.197   7.165  0.00  0.00    +0.022 A 
ATOM      4  C   LIG    1       23.687  27.208   6.708  0.00  0.00    +0.024 A 
ATOM      5  C   LIG    1       24.865  27.581   6.053  0.00  0.00    +0.029 A 
ATOM      6  C   LIG    1       26.104  26.924   5.796  0.00  0.00    +0.028 A 
ATOM      7  C   LIG    1       26.850  27.842   5.085  0.00  0.00    +0.204 A 
ATOM      8  O   LIG    1       26.185  29.033   4.972  0.00  0.00    -0.462 OA
ATOM      9  C   LIG    1       24.998  28.894   5.630  0.00  0.00    +0.139 A 
ATOM     10  C   LIG    1       24.062  29.895   5.909  0.00  0.00    +0.093 A 
ATOM     11  C   LIG    1       23.004  29.510   6.752  0.00  0.00    +0.143 A 
ATOM     12  O   LIG    1       22.143  30.517   7.238  0.00  0.00    -0.422 OA
ATOM     13  C   LIG    1       21.192  30.272   8.232  0.00  0.00    +0.341 A 
ATOM     14  O   LIG    1       20.482  31.175   8.659  0.00  0.00    -0.245 OA
ATOM     15  C   LIG    1       21.090  28.883   8.755  0.00  0.00    +0.041 A 
ENDROOT
BRANCH   6  16
ATOM     16  C   LIG    1       26.583  25.645   6.323  0.00  0.00    -0.014 A 
ATOM     17  C   LIG    1       26.993  24.597   5.497  0.00  0.00    +0.008 A 
ATOM     18  C   LIG    1       27.443  23.391   6.053  0.00  0.00    +0.001 A 
ATOM     19  C   LIG    1       27.478  23.212   7.437  0.00  0.00    +0.000 A 
ATOM     20  C   LIG    1       27.085  24.247   8.273  0.00  0.00    +0.001 A 
ATOM     21  C   LIG    1       26.663  25.457   7.719  0.00  0.00    +0.008 A 
ENDBRANCH   6  16
BRANCH  15  22
ATOM     22  C   LIG    1       20.216  28.559   9.954  0.00  0.00    +0.054 C 
BRANCH  22  23
ATOM     23  C   LIG    1       18.909  27.782   9.914  0.00  0.00    +0.128 C 
BRANCH  23  24
ATOM     24  C   LIG    1       17.780  28.488   9.160  0.00  0.00    +0.332 C 
ATOM     25  O   LIG    1       16.743  27.897   8.872  0.00  0.00    -0.249 OA
BRANCH  24  26
ATOM     26  O   LIG    1       17.893  29.842   9.001  0.00  0.00    -0.337 OA
BRANCH  26  27
ATOM     27  N   LIG    1       17.082  30.577   9.876  0.00  0.00    -0.064 N 
ATOM     28  C   LIG    1       16.094  31.350   9.358  0.00  0.00    +0.255 C 
ATOM     29  O   LIG    1       15.774  31.496   8.189  0.00  0.00    -0.272 OA
ATOM     30  C   LIG    1       15.402  31.999  10.520  0.00  0.00    +0.109 C 
ATOM     31  C   LIG    1       16.502  32.048  11.566  0.00  0.00    +0.109 C 
ATOM     32  C   LIG    1       17.566  31.121  11.024  0.00  0.00    +0.255 C 
ATOM     33  O   LIG    1       18.665  30.991  11.524  0.00  0.00    -0.272 OA
ENDBRANCH  26  27
ENDBRANCH  24  26
ENDBRANCH  23  24
ENDBRANCH  22  23
ENDBRANCH  15  22
TORSDOF 6
ENDMDL
MODEL 9
REMARK VINA RESULT:      -7.8      4.565     10.163
REMARK  Name = 
REMARK                            x       y       z     vdW  Elec       q    Type
REMARK                         _______ _______ _______ _____ _____    ______ ____
ROOT
ATOM      1  C   LIG    1       22.243  30.871   5.423  0.00  0.00    +0.045 C 
ATOM      2  C   LIG    1       23.293  29.880   5.865  0.00  0.00    -0.030 A 
ATOM      3  C   LIG    1       22.816  28.803   6.736  0.00  0.00    +0.022 A 
ATOM      4  C   LIG    1       21.480  28.766   7.147  0.00  0.00    +0.024 A 
ATOM      5  C   LIG    1       21.126  28.013   8.271  0.00  0.00    +0.029 A 
ATOM      6  C   LIG    1       20.013  28.028   9.161  0.00  0.00    +0.028 A 
ATOM      7  C   LIG    1       20.266  27.013  10.061  0.00  0.00    +0.204 A 
ATOM      8  O   LIG    1       21.490  26.446   9.830  0.00  0.00    -0.462 OA
ATOM      9  C   LIG    1       22.048  27.110   8.777  0.00  0.00    +0.139 A 
ATOM     10  C   LIG    1       23.351  26.980   8.289  0.00  0.00    +0.093 A 
ATOM     11  C   LIG    1       23.718  27.909   7.299  0.00  0.00    +0.143 A 
ATOM     12  O   LIG    1       25.075  27.967   6.913  0.00  0.00    -0.422 OA
ATOM     13  C   LIG    1       25.576  28.980   6.093  0.00  0.00    +0.341 A 
ATOM     14  O   LIG    1       26.766  29.023   5.802  0.00  0.00    -0.245 OA
ATOM     15  C   LIG    1       24.615  30.005   5.603  0.00  0.00    +0.041 A 
ENDROOT
BRANCH   6  16
ATOM     16  C   LIG    1       18.932  29.012   9.250  0.00  0.00    -0.014 A 
ATOM     17  C   LIG    1       19.100  30.261   9.849  0.00  0.00    +0.008 A 
ATOM     18  C   LIG    1       18.031  31.167   9.910  0.00  0.00    +0.001 A 
ATOM     19  C   LIG    1       16.782  30.833   9.385  0.00  0.00    +0.000 A 
ATOM     20  C   LIG    1       16.600  29.600   8.776  0.00  0.00    +0.001 A 
ATOM     21  C   LIG    1       17.672  28.710   8.692  0.00  0.00    +0.008 A 
ENDBRANCH   6  16
BRANCH  15  22
ATOM     22  C   LIG    1       25.094  31.238   4.859  0.00  0.00    +0.054 C 
BRANCH  22  23
ATOM     23  C   LIG    1       25.146  31.397   3.347  0.00  0.00    +0.128 C 
BRANCH  23  24
ATOM     24  C   LIG    1       26.405  32.095   2.830  0.00  0.00    +0.332 C 
ATOM     25  O   LIG    1       27.504  31.876   3.331  0.00  0.00    -0.249 OA
BRANCH  24  26
ATOM     26  O   LIG    1       26.284  32.812   1.670  0.00  0.00    -0.337 OA
BRANCH  26  27
ATOM     27  N   LIG    1       25.333  33.838   1.744  0.00  0.00    -0.064 N 
ATOM     28  C   LIG    1       24.407  33.943   0.756  0.00  0.00    +0.255 C 
ATOM     29  O   LIG    1       24.258  33.235  -0.227  0.00  0.00    -0.272 OA
ATOM     30  C   LIG    1       23.534  35.111   1.109  0.00  0.00    +0.109 C 
ATOM     31  C   LIG    1       24.468  35.975   1.938  0.00  0.00    +0.109 C 
ATOM     32  C   LIG    1       25.627  35.060   2.260  0.00  0.00    +0.255 C 
ATOM     33  O   LIG    1       26.645  35.430   2.810  0.00  0.00    -0.272 OA
ENDBRANCH  26  27
ENDBRANCH  24  26
ENDBRANCH  23  24
ENDBRANCH  22  23
ENDBRANCH  15  22
TORSDOF 6
ENDMDL
