MODEL 1
REMARK VINA RESULT:      -9.3      0.000      0.000
REMARK  Name = 
REMARK                            x       y       z     vdW  Elec       q    Type
REMARK                         _______ _______ _______ _____ _____    ______ ____
ROOT
ATOM      1  C   LIG    1       29.951  -0.121  24.359  0.00  0.00    +0.045 C 
ATOM      2  C   LIG    1       30.905  -0.881  25.249  0.00  0.00    -0.030 A 
ATOM      3  C   LIG    1       31.933  -1.657  24.551  0.00  0.00    +0.022 A 
ATOM      4  C   LIG    1       31.957  -1.703  23.154  0.00  0.00    +0.024 A 
ATOM      5  C   LIG    1       32.647  -2.737  22.512  0.00  0.00    +0.029 A 
ATOM      6  C   LIG    1       32.589  -3.300  21.204  0.00  0.00    +0.028 A 
ATOM      7  C   LIG    1       33.547  -4.293  21.203  0.00  0.00    +0.204 A 
ATOM      8  O   LIG    1       34.117  -4.426  22.441  0.00  0.00    -0.462 OA
ATOM      9  C   LIG    1       33.511  -3.520  23.261  0.00  0.00    +0.139 A 
ATOM     10  C   LIG    1       33.659  -3.400  24.646  0.00  0.00    +0.093 A 
ATOM     11  C   LIG    1       32.785  -2.489  25.267  0.00  0.00    +0.143 A 
ATOM     12  O   LIG    1       32.739  -2.470  26.678  0.00  0.00    -0.422 OA
ATOM     13  C   LIG    1       31.771  -1.754  27.385  0.00  0.00    +0.341 A 
ATOM     14  O   LIG    1       31.735  -1.784  28.610  0.00  0.00    -0.245 OA
ATOM     15  C   LIG    1       30.785  -0.969  26.593  0.00  0.00    +0.041 A 
ENDROOT
BRANCH   6  16
ATOM     16  C   LIG    1       31.611  -3.044  20.144  0.00  0.00    -0.014 A 
ATOM     17  C   LIG    1       30.236  -3.194  20.337  0.00  0.00    +0.008 A 
ATOM     18  C   LIG    1       29.342  -2.937  19.289  0.00  0.00    +0.001 A 
ATOM     19  C   LIG    1       29.807  -2.540  18.035  0.00  0.00    +0.000 A 
ATOM     20  C   LIG    1       31.169  -2.374  17.828  0.00  0.00    +0.001 A 
ATOM     21  C   LIG    1       32.057  -2.604  18.881  0.00  0.00    +0.008 A 
ENDBRANCH   6  16
BRANCH  15  22
ATOM     22  C   LIG    1       29.593  -0.306  27.261  0.00  0.00    +0.054 C 
BRANCH  22  23
ATOM     23  C   LIG    1       29.537   1.134  27.748  0.00  0.00    +0.128 C 
BRANCH  23  24
ATOM     24  C   LIG    1       30.334   1.397  29.027  0.00  0.00    +0.332 C 
ATOM     25  O   LIG    1       30.092   0.784  30.063  0.00  0.00    -0.249 OA
BRANCH  24  26
ATOM     26  O   LIG    1       31.445   2.188  28.914  0.00  0.00    -0.337 OA
BRANCH  26  27
ATOM     27  N   LIG    1       32.619   1.469  28.657  0.00  0.00    -0.064 N 
ATOM     28  C   LIG    1       33.437   1.160  29.696  0.00  0.00    +0.255 C 
ATOM     29  O   LIG    1       33.289   1.409  30.883  0.00  0.00    -0.272 OA
ATOM     30  C   LIG    1       34.591   0.393  29.122  0.00  0.00    +0.109 C 
ATOM     31  C   LIG    1       34.652   0.919  27.698  0.00  0.00    +0.109 C 
ATOM     32  C   LIG    1       33.337   1.641  27.516  0.00  0.00    +0.255 C 
ATOM     33  O   LIG    1       33.063   2.307  26.537  0.00  0.00    -0.272 OA
ENDBRANCH  26  27
ENDBRANCH  24  26
ENDBRANCH  23  24
ENDBRANCH  22  23
ENDBRANCH  15  22
TORSDOF 6
ENDMDL
MODEL 2
REMARK VINA RESULT:      -7.9      4.181      7.040
REMARK  Name = 
REMARK                            x       y       z     vdW  Elec       q    Type
REMARK                         _______ _______ _______ _____ _____    ______ ____
ROOT
ATOM      1  C   LIG    1       34.705  -3.548  21.550  0.00  0.00    +0.045 C 
ATOM      2  C   LIG    1       33.636  -3.389  20.495  0.00  0.00    -0.030 A 
ATOM      3  C   LIG    1       34.121  -3.289  19.116  0.00  0.00    +0.022 A 
ATOM      4  C   LIG    1       35.494  -3.292  18.848  0.00  0.00    +0.024 A 
ATOM      5  C   LIG    1       35.957  -2.793  17.627  0.00  0.00    +0.029 A 
ATOM      6  C   LIG    1       37.219  -2.312  17.170  0.00  0.00    +0.028 A 
ATOM      7  C   LIG    1       37.012  -1.977  15.847  0.00  0.00    +0.204 A 
ATOM      8  O   LIG    1       35.698  -2.140  15.499  0.00  0.00    -0.462 OA
ATOM      9  C   LIG    1       35.038  -2.571  16.613  0.00  0.00    +0.139 A 
ATOM     10  C   LIG    1       33.658  -2.721  16.774  0.00  0.00    +0.093 A 
ATOM     11  C   LIG    1       33.234  -3.019  18.082  0.00  0.00    +0.143 A 
ATOM     12  O   LIG    1       31.850  -2.981  18.356  0.00  0.00    -0.422 OA
ATOM     13  C   LIG    1       31.342  -3.063  19.655  0.00  0.00    +0.341 A 
ATOM     14  O   LIG    1       30.137  -2.992  19.865  0.00  0.00    -0.245 OA
ATOM     15  C   LIG    1       32.321  -3.223  20.764  0.00  0.00    +0.041 A 
ENDROOT
BRANCH   6  16
ATOM     16  C   LIG    1       38.425  -2.034  17.952  0.00  0.00    -0.014 A 
ATOM     17  C   LIG    1       39.632  -1.655  17.364  0.00  0.00    +0.008 A 
ATOM     18  C   LIG    1       40.759  -1.401  18.159  0.00  0.00    +0.001 A 
ATOM     19  C   LIG    1       40.698  -1.534  19.546  0.00  0.00    +0.000 A 
ATOM     20  C   LIG    1       39.503  -1.899  20.149  0.00  0.00    +0.001 A 
ATOM     21  C   LIG    1       38.375  -2.125  19.359  0.00  0.00    +0.008 A 
ENDBRANCH   6  16
BRANCH  15  22
ATOM     22  C   LIG    1       31.881  -3.141  22.215  0.00  0.00    +0.054 C 
BRANCH  22  23
ATOM     23  C   LIG    1       32.049  -1.933  23.125  0.00  0.00    +0.128 C 
BRANCH  23  24
ATOM     24  C   LIG    1       32.466  -2.277  24.557  0.00  0.00    +0.332 C 
ATOM     25  O   LIG    1       33.071  -3.315  24.809  0.00  0.00    -0.249 OA
BRANCH  24  26
ATOM     26  O   LIG    1       32.315  -1.296  25.498  0.00  0.00    -0.337 OA
BRANCH  26  27
ATOM     27  N   LIG    1       31.391  -1.619  26.499  0.00  0.00    -0.064 N 
ATOM     28  C   LIG    1       30.142  -1.089  26.433  0.00  0.00    +0.255 C 
ATOM     29  O   LIG    1       29.673  -0.350  25.582  0.00  0.00    -0.272 OA
ATOM     30  C   LIG    1       29.388  -1.615  27.618  0.00  0.00    +0.109 C 
ATOM     31  C   LIG    1       30.500  -1.876  28.620  0.00  0.00    +0.109 C 
ATOM     32  C   LIG    1       31.763  -1.811  27.793  0.00  0.00    +0.255 C 
ATOM     33  O   LIG    1       32.881  -1.848  28.265  0.00  0.00    -0.272 OA
ENDBRANCH  26  27
ENDBRANCH  24  26
ENDBRANCH  23  24
ENDBRANCH  22  23
ENDBRANCH  15  22
TORSDOF 6
ENDMDL
MODEL 3
REMARK VINA RESULT:      -7.8      7.788     10.838
REMARK  Name = 
REMARK                            x       y       z     vdW  Elec       q    Type
REMARK                         _______ _______ _______ _____ _____    ______ ____
ROOT
ATOM      1  C   LIG    1       37.865  -4.990  17.599  0.00  0.00    +0.045 C 
ATOM      2  C   LIG    1       37.128  -3.980  18.446  0.00  0.00    -0.030 A 
ATOM      3  C   LIG    1       35.668  -4.109  18.451  0.00  0.00    +0.022 A 
ATOM      4  C   LIG    1       35.042  -5.083  17.668  0.00  0.00    +0.024 A 
ATOM      5  C   LIG    1       33.686  -4.946  17.354  0.00  0.00    +0.029 A 
ATOM      6  C   LIG    1       32.846  -5.492  16.339  0.00  0.00    +0.028 A 
ATOM      7  C   LIG    1       31.597  -4.963  16.592  0.00  0.00    +0.204 A 
ATOM      8  O   LIG    1       31.642  -4.072  17.630  0.00  0.00    -0.462 OA
ATOM      9  C   LIG    1       32.939  -4.007  18.048  0.00  0.00    +0.139 A 
ATOM     10  C   LIG    1       33.486  -3.118  18.978  0.00  0.00    +0.093 A 
ATOM     11  C   LIG    1       34.887  -3.159  19.097  0.00  0.00    +0.143 A 
ATOM     12  O   LIG    1       35.518  -2.154  19.861  0.00  0.00    -0.422 OA
ATOM     13  C   LIG    1       36.905  -1.987  19.877  0.00  0.00    +0.341 A 
ATOM     14  O   LIG    1       37.422  -1.083  20.523  0.00  0.00    -0.245 OA
ATOM     15  C   LIG    1       37.719  -2.938  19.073  0.00  0.00    +0.041 A 
ENDROOT
BRANCH   6  16
ATOM     16  C   LIG    1       33.230  -6.277  15.164  0.00  0.00    -0.014 A 
ATOM     17  C   LIG    1       33.905  -5.721  14.077  0.00  0.00    +0.008 A 
ATOM     18  C   LIG    1       34.249  -6.517  12.974  0.00  0.00    +0.001 A 
ATOM     19  C   LIG    1       33.913  -7.871  12.939  0.00  0.00    +0.000 A 
ATOM     20  C   LIG    1       33.252  -8.442  14.017  0.00  0.00    +0.001 A 
ATOM     21  C   LIG    1       32.935  -7.655  15.125  0.00  0.00    +0.008 A 
ENDBRANCH   6  16
BRANCH  15  22
ATOM     22  C   LIG    1       39.211  -2.729  18.886  0.00  0.00    +0.054 C 
BRANCH  22  23
ATOM     23  C   LIG    1       39.854  -1.663  18.012  0.00  0.00    +0.128 C 
BRANCH  23  24
ATOM     24  C   LIG    1       39.781  -1.952  16.511  0.00  0.00    +0.332 C 
ATOM     25  O   LIG    1       40.340  -2.931  16.025  0.00  0.00    -0.249 OA
BRANCH  24  26
ATOM     26  O   LIG    1       38.912  -1.193  15.776  0.00  0.00    -0.337 OA
BRANCH  26  27
ATOM     27  N   LIG    1       37.651  -1.784  15.617  0.00  0.00    -0.064 N 
ATOM     28  C   LIG    1       37.367  -2.412  14.447  0.00  0.00    +0.255 C 
ATOM     29  O   LIG    1       38.083  -2.565  13.470  0.00  0.00    -0.272 OA
ATOM     30  C   LIG    1       35.970  -2.945  14.574  0.00  0.00    +0.109 C 
ATOM     31  C   LIG    1       35.346  -1.983  15.570  0.00  0.00    +0.109 C 
ATOM     32  C   LIG    1       36.527  -1.246  16.159  0.00  0.00    +0.255 C 
ATOM     33  O   LIG    1       36.424  -0.298  16.912  0.00  0.00    -0.272 OA
ENDBRANCH  26  27
ENDBRANCH  24  26
ENDBRANCH  23  24
ENDBRANCH  22  23
ENDBRANCH  15  22
TORSDOF 6
ENDMDL
MODEL 4
REMARK VINA RESULT:      -7.7      2.427      3.867
REMARK  Name = 
REMARK                            x       y       z     vdW  Elec       q    Type
REMARK                         _______ _______ _______ _____ _____    ______ ____
ROOT
ATOM      1  C   LIG    1       30.550   0.391  24.243  0.00  0.00    +0.045 C 
ATOM      2  C   LIG    1       31.439  -0.426  25.149  0.00  0.00    -0.030 A 
ATOM      3  C   LIG    1       32.292  -1.409  24.475  0.00  0.00    +0.022 A 
ATOM      4  C   LIG    1       32.214  -1.580  23.090  0.00  0.00    +0.024 A 
ATOM      5  C   LIG    1       32.698  -2.759  22.515  0.00  0.00    +0.029 A 
ATOM      6  C   LIG    1       32.469  -3.419  21.272  0.00  0.00    +0.028 A 
ATOM      7  C   LIG    1       33.268  -4.544  21.316  0.00  0.00    +0.204 A 
ATOM      8  O   LIG    1       33.894  -4.654  22.528  0.00  0.00    -0.462 OA
ATOM      9  C   LIG    1       33.486  -3.597  23.289  0.00  0.00    +0.139 A 
ATOM     10  C   LIG    1       33.743  -3.381  24.646  0.00  0.00    +0.093 A 
ATOM     11  C   LIG    1       33.058  -2.296  25.222  0.00  0.00    +0.143 A 
ATOM     12  O   LIG    1       33.111  -2.147  26.625  0.00  0.00    -0.422 OA
ATOM     13  C   LIG    1       32.309  -1.230  27.310  0.00  0.00    +0.341 A 
ATOM     14  O   LIG    1       32.352  -1.148  28.532  0.00  0.00    -0.245 OA
ATOM     15  C   LIG    1       31.399  -0.377  26.500  0.00  0.00    +0.041 A 
ENDROOT
BRANCH   6  16
ATOM     16  C   LIG    1       31.470  -3.110  20.247  0.00  0.00    -0.014 A 
ATOM     17  C   LIG    1       30.097  -3.202  20.483  0.00  0.00    +0.008 A 
ATOM     18  C   LIG    1       29.182  -2.896  19.466  0.00  0.00    +0.001 A 
ATOM     19  C   LIG    1       29.625  -2.506  18.201  0.00  0.00    +0.000 A 
ATOM     20  C   LIG    1       30.985  -2.397  17.953  0.00  0.00    +0.001 A 
ATOM     21  C   LIG    1       31.895  -2.676  18.974  0.00  0.00    +0.008 A 
ENDBRANCH   6  16
BRANCH  15  22
ATOM     22  C   LIG    1       30.366   0.517  27.164  0.00  0.00    +0.054 C 
BRANCH  22  23
ATOM     23  C   LIG    1       29.184   0.041  27.995  0.00  0.00    +0.128 C 
BRANCH  23  24
ATOM     24  C   LIG    1       27.829   0.175  27.297  0.00  0.00    +0.332 C 
ATOM     25  O   LIG    1       27.174   1.210  27.377  0.00  0.00    -0.249 OA
BRANCH  24  26
ATOM     26  O   LIG    1       27.479  -0.822  26.428  0.00  0.00    -0.337 OA
BRANCH  26  27
ATOM     27  N   LIG    1       27.221  -2.047  27.057  0.00  0.00    -0.064 N 
ATOM     28  C   LIG    1       26.298  -2.089  28.051  0.00  0.00    +0.255 C 
ATOM     29  O   LIG    1       25.609  -1.182  28.492  0.00  0.00    -0.272 OA
ATOM     30  C   LIG    1       26.235  -3.514  28.518  0.00  0.00    +0.109 C 
ATOM     31  C   LIG    1       27.626  -4.025  28.187  0.00  0.00    +0.109 C 
ATOM     32  C   LIG    1       28.196  -2.971  27.266  0.00  0.00    +0.255 C 
ATOM     33  O   LIG    1       29.348  -2.962  26.882  0.00  0.00    -0.272 OA
ENDBRANCH  26  27
ENDBRANCH  24  26
ENDBRANCH  23  24
ENDBRANCH  22  23
ENDBRANCH  15  22
TORSDOF 6
ENDMDL
MODEL 5
REMARK VINA RESULT:      -7.7      7.118     11.025
REMARK  Name = 
REMARK                            x       y       z     vdW  Elec       q    Type
REMARK                         _______ _______ _______ _____ _____    ______ ____
ROOT
ATOM      1  C   LIG    1       36.231  -0.295  17.215  0.00  0.00    +0.045 C 
ATOM      2  C   LIG    1       36.419  -1.159  15.992  0.00  0.00    -0.030 A 
ATOM      3  C   LIG    1       35.354  -2.133  15.738  0.00  0.00    +0.022 A 
ATOM      4  C   LIG    1       34.280  -2.252  16.626  0.00  0.00    +0.024 A 
ATOM      5  C   LIG    1       33.509  -3.419  16.618  0.00  0.00    +0.029 A 
ATOM      6  C   LIG    1       32.631  -4.030  17.561  0.00  0.00    +0.028 A 
ATOM      7  C   LIG    1       32.173  -5.169  16.930  0.00  0.00    +0.204 A 
ATOM      8  O   LIG    1       32.777  -5.333  15.713  0.00  0.00    -0.462 OA
ATOM      9  C   LIG    1       33.651  -4.298  15.555  0.00  0.00    +0.139 A 
ATOM     10  C   LIG    1       34.596  -4.135  14.538  0.00  0.00    +0.093 A 
ATOM     11  C   LIG    1       35.486  -3.059  14.711  0.00  0.00    +0.143 A 
ATOM     12  O   LIG    1       36.587  -2.961  13.834  0.00  0.00    -0.422 OA
ATOM     13  C   LIG    1       37.630  -2.056  14.042  0.00  0.00    +0.341 A 
ATOM     14  O   LIG    1       38.591  -2.018  13.282  0.00  0.00    -0.245 OA
ATOM     15  C   LIG    1       37.533  -1.158  15.224  0.00  0.00    +0.041 A 
ENDROOT
BRANCH   6  16
ATOM     16  C   LIG    1       32.402  -3.666  18.960  0.00  0.00    -0.014 A 
ATOM     17  C   LIG    1       31.144  -3.311  19.449  0.00  0.00    +0.008 A 
ATOM     18  C   LIG    1       30.979  -2.970  20.799  0.00  0.00    +0.001 A 
ATOM     19  C   LIG    1       32.066  -2.968  21.673  0.00  0.00    +0.000 A 
ATOM     20  C   LIG    1       33.322  -3.329  21.207  0.00  0.00    +0.001 A 
ATOM     21  C   LIG    1       33.481  -3.695  19.869  0.00  0.00    +0.008 A 
ENDBRANCH   6  16
BRANCH  15  22
ATOM     22  C   LIG    1       38.695  -0.270  15.632  0.00  0.00    +0.054 C 
BRANCH  22  23
ATOM     23  C   LIG    1       39.813  -0.657  16.588  0.00  0.00    +0.128 C 
BRANCH  23  24
ATOM     24  C   LIG    1       40.329  -2.086  16.407  0.00  0.00    +0.332 C 
ATOM     25  O   LIG    1       40.970  -2.408  15.411  0.00  0.00    -0.249 OA
BRANCH  24  26
ATOM     26  O   LIG    1       40.219  -2.925  17.483  0.00  0.00    -0.337 OA
BRANCH  26  27
ATOM     27  N   LIG    1       38.899  -3.110  17.914  0.00  0.00    -0.064 N 
ATOM     28  C   LIG    1       38.598  -2.880  19.218  0.00  0.00    +0.255 C 
ATOM     29  O   LIG    1       39.334  -2.499  20.114  0.00  0.00    -0.272 OA
ATOM     30  C   LIG    1       37.131  -3.150  19.374  0.00  0.00    +0.109 C 
ATOM     31  C   LIG    1       36.867  -4.160  18.271  0.00  0.00    +0.109 C 
ATOM     32  C   LIG    1       38.101  -4.085  17.401  0.00  0.00    +0.255 C 
ATOM     33  O   LIG    1       38.322  -4.840  16.476  0.00  0.00    -0.272 OA
ENDBRANCH  26  27
ENDBRANCH  24  26
ENDBRANCH  23  24
ENDBRANCH  22  23
ENDBRANCH  15  22
TORSDOF 6
ENDMDL
MODEL 6
REMARK VINA RESULT:      -7.6      4.316      6.903
REMARK  Name = 
REMARK                            x       y       z     vdW  Elec       q    Type
REMARK                         _______ _______ _______ _____ _____    ______ ____
ROOT
ATOM      1  C   LIG    1       35.484  -2.692  21.111  0.00  0.00    +0.045 C 
ATOM      2  C   LIG    1       34.192  -3.002  20.394  0.00  0.00    -0.030 A 
ATOM      3  C   LIG    1       34.321  -3.296  18.964  0.00  0.00    +0.022 A 
ATOM      4  C   LIG    1       35.569  -3.229  18.339  0.00  0.00    +0.024 A 
ATOM      5  C   LIG    1       35.635  -3.100  16.947  0.00  0.00    +0.029 A 
ATOM      6  C   LIG    1       36.642  -2.651  16.043  0.00  0.00    +0.028 A 
ATOM      7  C   LIG    1       36.077  -2.785  14.791  0.00  0.00    +0.204 A 
ATOM      8  O   LIG    1       34.775  -3.198  14.881  0.00  0.00    -0.462 OA
ATOM      9  C   LIG    1       34.484  -3.320  16.209  0.00  0.00    +0.139 A 
ATOM     10  C   LIG    1       33.232  -3.567  16.781  0.00  0.00    +0.093 A 
ATOM     11  C   LIG    1       33.185  -3.474  18.184  0.00  0.00    +0.143 A 
ATOM     12  O   LIG    1       31.920  -3.507  18.809  0.00  0.00    -0.422 OA
ATOM     13  C   LIG    1       31.748  -3.224  20.166  0.00  0.00    +0.341 A 
ATOM     14  O   LIG    1       30.633  -3.227  20.673  0.00  0.00    -0.245 OA
ATOM     15  C   LIG    1       32.967  -2.908  20.959  0.00  0.00    +0.041 A 
ENDROOT
BRANCH   6  16
ATOM     16  C   LIG    1       37.918  -2.002  16.350  0.00  0.00    -0.014 A 
ATOM     17  C   LIG    1       38.379  -0.885  15.653  0.00  0.00    +0.008 A 
ATOM     18  C   LIG    1       39.610  -0.301  15.985  0.00  0.00    +0.001 A 
ATOM     19  C   LIG    1       40.399  -0.831  17.007  0.00  0.00    +0.000 A 
ATOM     20  C   LIG    1       39.950  -1.935  17.719  0.00  0.00    +0.001 A 
ATOM     21  C   LIG    1       38.712  -2.498  17.405  0.00  0.00    +0.008 A 
ENDBRANCH   6  16
BRANCH  15  22
ATOM     22  C   LIG    1       32.864  -2.415  22.391  0.00  0.00    +0.054 C 
BRANCH  22  23
ATOM     23  C   LIG    1       32.689  -3.293  23.621  0.00  0.00    +0.128 C 
BRANCH  23  24
ATOM     24  C   LIG    1       32.312  -2.529  24.892  0.00  0.00    +0.332 C 
ATOM     25  O   LIG    1       32.675  -2.918  25.998  0.00  0.00    -0.249 OA
BRANCH  24  26
ATOM     26  O   LIG    1       31.730  -1.301  24.727  0.00  0.00    -0.337 OA
BRANCH  26  27
ATOM     27  N   LIG    1       31.439  -0.654  25.935  0.00  0.00    -0.064 N 
ATOM     28  C   LIG    1       30.166  -0.692  26.406  0.00  0.00    +0.255 C 
ATOM     29  O   LIG    1       29.191  -1.246  25.925  0.00  0.00    -0.272 OA
ATOM     30  C   LIG    1       30.165   0.069  27.699  0.00  0.00    +0.109 C 
ATOM     31  C   LIG    1       31.314   1.042  27.504  0.00  0.00    +0.109 C 
ATOM     32  C   LIG    1       32.054   0.501  26.302  0.00  0.00    +0.255 C 
ATOM     33  O   LIG    1       32.971   1.082  25.758  0.00  0.00    -0.272 OA
ENDBRANCH  26  27
ENDBRANCH  24  26
ENDBRANCH  23  24
ENDBRANCH  22  23
ENDBRANCH  15  22
TORSDOF 6
ENDMDL
MODEL 7
REMARK VINA RESULT:      -7.5      6.897     10.406
REMARK  Name = 
REMARK                            x       y       z     vdW  Elec       q    Type
REMARK                         _______ _______ _______ _____ _____    ______ ____
ROOT
ATOM      1  C   LIG    1       34.046  -1.505  16.632  0.00  0.00    +0.045 C 
ATOM      2  C   LIG    1       33.954  -1.943  18.074  0.00  0.00    -0.030 A 
ATOM      3  C   LIG    1       35.196  -1.839  18.845  0.00  0.00    +0.022 A 
ATOM      4  C   LIG    1       36.375  -1.407  18.229  0.00  0.00    +0.024 A 
ATOM      5  C   LIG    1       37.607  -1.695  18.825  0.00  0.00    +0.029 A 
ATOM      6  C   LIG    1       38.948  -1.751  18.345  0.00  0.00    +0.028 A 
ATOM      7  C   LIG    1       39.706  -2.084  19.450  0.00  0.00    +0.204 A 
ATOM      8  O   LIG    1       38.910  -2.316  20.538  0.00  0.00    -0.462 OA
ATOM      9  C   LIG    1       37.617  -2.149  20.134  0.00  0.00    +0.139 A 
ATOM     10  C   LIG    1       36.459  -2.433  20.863  0.00  0.00    +0.093 A 
ATOM     11  C   LIG    1       35.255  -2.328  20.143  0.00  0.00    +0.143 A 
ATOM     12  O   LIG    1       34.072  -2.796  20.756  0.00  0.00    -0.422 OA
ATOM     13  C   LIG    1       32.869  -2.922  20.058  0.00  0.00    +0.341 A 
ATOM     14  O   LIG    1       31.867  -3.365  20.608  0.00  0.00    -0.245 OA
ATOM     15  C   LIG    1       32.859  -2.513  18.628  0.00  0.00    +0.041 A 
ENDROOT
BRANCH   6  16
ATOM     16  C   LIG    1       39.425  -1.677  16.962  0.00  0.00    -0.014 A 
ATOM     17  C   LIG    1       40.019  -0.531  16.433  0.00  0.00    +0.008 A 
ATOM     18  C   LIG    1       40.458  -0.511  15.101  0.00  0.00    +0.001 A 
ATOM     19  C   LIG    1       40.298  -1.628  14.280  0.00  0.00    +0.000 A 
ATOM     20  C   LIG    1       39.719  -2.780  14.794  0.00  0.00    +0.001 A 
ATOM     21  C   LIG    1       39.308  -2.808  16.127  0.00  0.00    +0.008 A 
ENDBRANCH   6  16
BRANCH  15  22
ATOM     22  C   LIG    1       31.654  -2.779  17.744  0.00  0.00    +0.054 C 
BRANCH  22  23
ATOM     23  C   LIG    1       31.660  -3.589  16.457  0.00  0.00    +0.128 C 
BRANCH  23  24
ATOM     24  C   LIG    1       31.574  -5.103  16.665  0.00  0.00    +0.332 C 
ATOM     25  O   LIG    1       30.541  -5.631  17.066  0.00  0.00    -0.249 OA
BRANCH  24  26
ATOM     26  O   LIG    1       32.621  -5.852  16.201  0.00  0.00    -0.337 OA
BRANCH  26  27
ATOM     27  N   LIG    1       33.875  -5.348  16.568  0.00  0.00    -0.064 N 
ATOM     28  C   LIG    1       34.822  -5.186  15.608  0.00  0.00    +0.255 C 
ATOM     29  O   LIG    1       34.738  -5.406  14.410  0.00  0.00    -0.272 OA
ATOM     30  C   LIG    1       36.036  -4.632  16.292  0.00  0.00    +0.109 C 
ATOM     31  C   LIG    1       35.881  -5.159  17.708  0.00  0.00    +0.109 C 
ATOM     32  C   LIG    1       34.450  -5.642  17.765  0.00  0.00    +0.255 C 
ATOM     33  O   LIG    1       33.980  -6.249  18.706  0.00  0.00    -0.272 OA
ENDBRANCH  26  27
ENDBRANCH  24  26
ENDBRANCH  23  24
ENDBRANCH  22  23
ENDBRANCH  15  22
TORSDOF 6
ENDMDL
MODEL 8
REMARK VINA RESULT:      -7.5      7.585     11.288
REMARK  Name = 
REMARK                            x       y       z     vdW  Elec       q    Type
REMARK                         _______ _______ _______ _____ _____    ______ ____
ROOT
ATOM      1  C   LIG    1       37.212  -5.467  17.437  0.00  0.00    +0.045 C 
ATOM      2  C   LIG    1       36.502  -4.763  16.305  0.00  0.00    -0.030 A 
ATOM      3  C   LIG    1       37.236  -3.649  15.698  0.00  0.00    +0.022 A 
ATOM      4  C   LIG    1       38.483  -3.267  16.202  0.00  0.00    +0.024 A 
ATOM      5  C   LIG    1       38.979  -1.991  15.914  0.00  0.00    +0.029 A 
ATOM      6  C   LIG    1       39.966  -1.156  16.514  0.00  0.00    +0.028 A 
ATOM      7  C   LIG    1       39.987  -0.017  15.734  0.00  0.00    +0.204 A 
ATOM      8  O   LIG    1       39.026  -0.071  14.762  0.00  0.00    -0.462 OA
ATOM      9  C   LIG    1       38.359  -1.251  14.920  0.00  0.00    +0.139 A 
ATOM     10  C   LIG    1       37.201  -1.665  14.255  0.00  0.00    +0.093 A 
ATOM     11  C   LIG    1       36.627  -2.857  14.734  0.00  0.00    +0.143 A 
ATOM     12  O   LIG    1       35.353  -3.221  14.248  0.00  0.00    -0.422 OA
ATOM     13  C   LIG    1       34.613  -4.268  14.802  0.00  0.00    +0.341 A 
ATOM     14  O   LIG    1       33.494  -4.539  14.382  0.00  0.00    -0.245 OA
ATOM     15  C   LIG    1       35.231  -5.025  15.924  0.00  0.00    +0.041 A 
ENDROOT
BRANCH   6  16
ATOM     16  C   LIG    1       40.670  -1.346  17.784  0.00  0.00    -0.014 A 
ATOM     17  C   LIG    1       41.930  -0.799  18.034  0.00  0.00    +0.008 A 
ATOM     18  C   LIG    1       42.562  -1.012  19.267  0.00  0.00    +0.001 A 
ATOM     19  C   LIG    1       41.951  -1.781  20.259  0.00  0.00    +0.000 A 
ATOM     20  C   LIG    1       40.694  -2.322  20.032  0.00  0.00    +0.001 A 
ATOM     21  C   LIG    1       40.054  -2.086  18.814  0.00  0.00    +0.008 A 
ENDBRANCH   6  16
BRANCH  15  22
ATOM     22  C   LIG    1       34.437  -6.058  16.705  0.00  0.00    +0.054 C 
BRANCH  22  23
ATOM     23  C   LIG    1       33.619  -5.785  17.958  0.00  0.00    +0.128 C 
BRANCH  23  24
ATOM     24  C   LIG    1       32.872  -4.450  17.944  0.00  0.00    +0.332 C 
ATOM     25  O   LIG    1       31.895  -4.277  17.220  0.00  0.00    -0.249 OA
BRANCH  24  26
ATOM     26  O   LIG    1       33.213  -3.539  18.906  0.00  0.00    -0.337 OA
BRANCH  26  27
ATOM     27  N   LIG    1       34.410  -2.864  18.637  0.00  0.00    -0.064 N 
ATOM     28  C   LIG    1       35.315  -2.713  19.639  0.00  0.00    +0.255 C 
ATOM     29  O   LIG    1       35.250  -3.111  20.791  0.00  0.00    -0.272 OA
ATOM     30  C   LIG    1       36.480  -1.970  19.056  0.00  0.00    +0.109 C 
ATOM     31  C   LIG    1       35.833  -1.180  17.933  0.00  0.00    +0.109 C 
ATOM     32  C   LIG    1       34.471  -1.817  17.773  0.00  0.00    +0.255 C 
ATOM     33  O   LIG    1       33.602  -1.377  17.047  0.00  0.00    -0.272 OA
ENDBRANCH  26  27
ENDBRANCH  24  26
ENDBRANCH  23  24
ENDBRANCH  22  23
ENDBRANCH  15  22
TORSDOF 6
ENDMDL
MODEL 9
REMARK VINA RESULT:      -7.5      8.442     10.642
REMARK  Name = 
REMARK                            x       y       z     vdW  Elec       q    Type
REMARK                         _______ _______ _______ _____ _____    ______ ____
ROOT
ATOM      1  C   LIG    1       33.891  -4.355  14.124  0.00  0.00    +0.045 C 
ATOM      2  C   LIG    1       35.034  -4.791  15.011  0.00  0.00    -0.030 A 
ATOM      3  C   LIG    1       34.912  -6.135  15.580  0.00  0.00    +0.022 A 
ATOM      4  C   LIG    1       33.772  -6.906  15.333  0.00  0.00    +0.024 A 
ATOM      5  C   LIG    1       33.470  -7.978  16.180  0.00  0.00    +0.029 A 
ATOM      6  C   LIG    1       32.281  -8.711  16.462  0.00  0.00    +0.028 A 
ATOM      7  C   LIG    1       32.660  -9.658  17.390  0.00  0.00    +0.204 A 
ATOM      8  O   LIG    1       33.970  -9.494  17.752  0.00  0.00    -0.462 OA
ATOM      9  C   LIG    1       34.445  -8.416  17.064  0.00  0.00    +0.139 A 
ATOM     10  C   LIG    1       35.680  -7.783  17.228  0.00  0.00    +0.093 A 
ATOM     11  C   LIG    1       35.845  -6.588  16.505  0.00  0.00    +0.143 A 
ATOM     12  O   LIG    1       36.980  -5.795  16.781  0.00  0.00    -0.422 OA
ATOM     13  C   LIG    1       37.133  -4.505  16.269  0.00  0.00    +0.341 A 
ATOM     14  O   LIG    1       38.113  -3.827  16.555  0.00  0.00    -0.245 OA
ATOM     15  C   LIG    1       36.057  -3.987  15.381  0.00  0.00    +0.041 A 
ENDROOT
BRANCH   6  16
ATOM     16  C   LIG    1       30.911  -8.422  16.034  0.00  0.00    -0.014 A 
ATOM     17  C   LIG    1       30.239  -9.198  15.088  0.00  0.00    +0.008 A 
ATOM     18  C   LIG    1       28.927  -8.878  14.711  0.00  0.00    +0.001 A 
ATOM     19  C   LIG    1       28.275  -7.775  15.264  0.00  0.00    +0.000 A 
ATOM     20  C   LIG    1       28.923  -6.999  16.215  0.00  0.00    +0.001 A 
ATOM     21  C   LIG    1       30.219  -7.335  16.609  0.00  0.00    +0.008 A 
ENDBRANCH   6  16
BRANCH  15  22
ATOM     22  C   LIG    1       36.047  -2.540  14.924  0.00  0.00    +0.054 C 
BRANCH  22  23
ATOM     23  C   LIG    1       35.319  -1.397  15.615  0.00  0.00    +0.128 C 
BRANCH  23  24
ATOM     24  C   LIG    1       35.535  -1.337  17.128  0.00  0.00    +0.332 C 
ATOM     25  O   LIG    1       36.623  -1.023  17.602  0.00  0.00    -0.249 OA
BRANCH  24  26
ATOM     26  O   LIG    1       34.423  -1.450  17.917  0.00  0.00    -0.337 OA
BRANCH  26  27
ATOM     27  N   LIG    1       33.739  -2.661  17.749  0.00  0.00    -0.064 N 
ATOM     28  C   LIG    1       32.400  -2.630  17.525  0.00  0.00    +0.255 C 
ATOM     29  O   LIG    1       31.666  -1.660  17.425  0.00  0.00    -0.272 OA
ATOM     30  C   LIG    1       31.956  -4.056  17.378  0.00  0.00    +0.109 C 
ATOM     31  C   LIG    1       32.990  -4.803  18.202  0.00  0.00    +0.109 C 
ATOM     32  C   LIG    1       34.087  -3.788  18.424  0.00  0.00    +0.255 C 
ATOM     33  O   LIG    1       35.042  -3.975  19.152  0.00  0.00    -0.272 OA
ENDBRANCH  26  27
ENDBRANCH  24  26
ENDBRANCH  23  24
ENDBRANCH  22  23
ENDBRANCH  15  22
TORSDOF 6
ENDMDL
