MODEL 1
REMARK VINA RESULT:      -4.4      0.000      0.000
REMARK  Name = 
REMARK                            x       y       z     vdW  Elec       q    Type
REMARK                         _______ _______ _______ _____ _____    ______ ____
ROOT
ATOM      1  C   LIG    1       69.796  46.317  95.273  0.00  0.00    +0.045 C 
ATOM      2  C   LIG    1       69.959  47.817  95.333  0.00  0.00    -0.030 A 
ATOM      3  C   LIG    1       69.691  48.428  96.638  0.00  0.00    +0.022 A 
ATOM      4  C   LIG    1       69.265  47.641  97.712  0.00  0.00    +0.024 A 
ATOM      5  C   LIG    1       68.627  48.248  98.799  0.00  0.00    +0.029 A 
ATOM      6  C   LIG    1       67.771  47.772  99.835  0.00  0.00    +0.028 A 
ATOM      7  C   LIG    1       67.495  48.884 100.604  0.00  0.00    +0.204 A 
ATOM      8  O   LIG    1       68.051  50.009 100.058  0.00  0.00    -0.462 OA
ATOM      9  C   LIG    1       68.683  49.628  98.910  0.00  0.00    +0.139 A 
ATOM     10  C   LIG    1       69.256  50.460  97.944  0.00  0.00    +0.093 A 
ATOM     11  C   LIG    1       69.692  49.810  96.774  0.00  0.00    +0.143 A 
ATOM     12  O   LIG    1       70.089  50.609  95.680  0.00  0.00    -0.422 OA
ATOM     13  C   LIG    1       70.344  50.071  94.416  0.00  0.00    +0.341 A 
ATOM     14  O   LIG    1       70.654  50.794  93.476  0.00  0.00    -0.245 OA
ATOM     15  C   LIG    1       70.212  48.598  94.258  0.00  0.00    +0.041 A 
ENDROOT
BRANCH   6  16
ATOM     16  C   LIG    1       67.146  46.455  99.967  0.00  0.00    -0.014 A 
ATOM     17  C   LIG    1       65.763  46.282 100.031  0.00  0.00    +0.008 A 
ATOM     18  C   LIG    1       65.214  44.998 100.159  0.00  0.00    +0.001 A 
ATOM     19  C   LIG    1       66.039  43.874 100.236  0.00  0.00    +0.000 A 
ATOM     20  C   LIG    1       67.416  44.026 100.161  0.00  0.00    +0.001 A 
ATOM     21  C   LIG    1       67.959  45.303 100.007  0.00  0.00    +0.008 A 
ENDBRANCH   6  16
BRANCH  15  22
ATOM     22  C   LIG    1       70.293  47.945  92.890  0.00  0.00    +0.054 C 
BRANCH  22  23
ATOM     23  C   LIG    1       69.133  47.764  91.924  0.00  0.00    +0.128 C 
BRANCH  23  24
ATOM     24  C   LIG    1       67.959  48.716  92.163  0.00  0.00    +0.332 C 
ATOM     25  O   LIG    1       68.034  49.903  91.859  0.00  0.00    -0.249 OA
BRANCH  24  26
ATOM     26  O   LIG    1       66.771  48.152  92.539  0.00  0.00    -0.337 OA
BRANCH  26  27
ATOM     27  N   LIG    1       66.718  47.813  93.897  0.00  0.00    -0.064 N 
ATOM     28  C   LIG    1       66.214  46.602  94.249  0.00  0.00    +0.255 C 
ATOM     29  O   LIG    1       65.795  45.712  93.526  0.00  0.00    -0.272 OA
ATOM     30  C   LIG    1       66.295  46.522  95.745  0.00  0.00    +0.109 C 
ATOM     31  C   LIG    1       66.227  47.984  96.152  0.00  0.00    +0.109 C 
ATOM     32  C   LIG    1       66.472  48.736  94.864  0.00  0.00    +0.255 C 
ATOM     33  O   LIG    1       66.371  49.941  94.757  0.00  0.00    -0.272 OA
ENDBRANCH  26  27
ENDBRANCH  24  26
ENDBRANCH  23  24
ENDBRANCH  22  23
ENDBRANCH  15  22
TORSDOF 6
ENDMDL
MODEL 2
REMARK VINA RESULT:      -2.7      1.929      4.656
REMARK  Name = 
REMARK                            x       y       z     vdW  Elec       q    Type
REMARK                         _______ _______ _______ _____ _____    ______ ____
ROOT
ATOM      1  C   LIG    1       66.895  49.486  95.772  0.00  0.00    +0.045 C 
ATOM      2  C   LIG    1       66.532  48.032  95.589  0.00  0.00    -0.030 A 
ATOM      3  C   LIG    1       66.573  47.214  96.805  0.00  0.00    +0.022 A 
ATOM      4  C   LIG    1       66.978  47.775  98.020  0.00  0.00    +0.024 A 
ATOM      5  C   LIG    1       67.408  46.938  99.054  0.00  0.00    +0.029 A 
ATOM      6  C   LIG    1       68.199  47.137 100.223  0.00  0.00    +0.028 A 
ATOM      7  C   LIG    1       68.242  45.901 100.836  0.00  0.00    +0.204 A 
ATOM      8  O   LIG    1       67.607  44.955 100.078  0.00  0.00    -0.462 OA
ATOM      9  C   LIG    1       67.160  45.578  98.949  0.00  0.00    +0.139 A 
ATOM     10  C   LIG    1       66.592  44.980  97.820  0.00  0.00    +0.093 A 
ATOM     11  C   LIG    1       66.376  45.841  96.729  0.00  0.00    +0.143 A 
ATOM     12  O   LIG    1       66.001  45.268  95.495  0.00  0.00    -0.422 OA
ATOM     13  C   LIG    1       65.958  46.006  94.310  0.00  0.00    +0.341 A 
ATOM     14  O   LIG    1       65.662  45.472  93.247  0.00  0.00    -0.245 OA
ATOM     15  C   LIG    1       66.298  47.452  94.390  0.00  0.00    +0.041 A 
ENDROOT
BRANCH   6  16
ATOM     16  C   LIG    1       68.973  48.318 100.609  0.00  0.00    -0.014 A 
ATOM     17  C   LIG    1       69.020  48.790 101.922  0.00  0.00    +0.008 A 
ATOM     18  C   LIG    1       69.776  49.928 102.238  0.00  0.00    +0.001 A 
ATOM     19  C   LIG    1       70.481  50.614 101.249  0.00  0.00    +0.000 A 
ATOM     20  C   LIG    1       70.455  50.153  99.941  0.00  0.00    +0.001 A 
ATOM     21  C   LIG    1       69.725  49.004  99.632  0.00  0.00    +0.008 A 
ENDBRANCH   6  16
BRANCH  15  22
ATOM     22  C   LIG    1       66.453  48.292  93.135  0.00  0.00    +0.054 C 
BRANCH  22  23
ATOM     23  C   LIG    1       67.346  47.958  91.949  0.00  0.00    +0.128 C 
BRANCH  23  24
ATOM     24  C   LIG    1       68.608  48.817  91.849  0.00  0.00    +0.332 C 
ATOM     25  O   LIG    1       68.564  49.959  91.402  0.00  0.00    -0.249 OA
BRANCH  24  26
ATOM     26  O   LIG    1       69.734  48.336  92.459  0.00  0.00    -0.337 OA
BRANCH  26  27
ATOM     27  N   LIG    1       69.717  48.471  93.853  0.00  0.00    -0.064 N 
ATOM     28  C   LIG    1       70.225  49.602  94.407  0.00  0.00    +0.255 C 
ATOM     29  O   LIG    1       70.702  50.577  93.847  0.00  0.00    -0.272 OA
ATOM     30  C   LIG    1       70.062  49.464  95.891  0.00  0.00    +0.109 C 
ATOM     31  C   LIG    1       70.077  47.958  96.080  0.00  0.00    +0.109 C 
ATOM     32  C   LIG    1       69.889  47.410  94.684  0.00  0.00    +0.255 C 
ATOM     33  O   LIG    1       69.971  46.230  94.406  0.00  0.00    -0.272 OA
ENDBRANCH  26  27
ENDBRANCH  24  26
ENDBRANCH  23  24
ENDBRANCH  22  23
ENDBRANCH  15  22
TORSDOF 6
ENDMDL
MODEL 3
REMARK VINA RESULT:      -2.3      2.527      7.098
REMARK  Name = 
REMARK                            x       y       z     vdW  Elec       q    Type
REMARK                         _______ _______ _______ _____ _____    ______ ____
ROOT
ATOM      1  C   LIG    1       70.208  47.134  98.733  0.00  0.00    +0.045 C 
ATOM      2  C   LIG    1       69.005  46.310  99.125  0.00  0.00    -0.030 A 
ATOM      3  C   LIG    1       68.196  45.806  98.012  0.00  0.00    +0.022 A 
ATOM      4  C   LIG    1       68.526  46.135  96.693  0.00  0.00    +0.024 A 
ATOM      5  C   LIG    1       67.557  46.013  95.692  0.00  0.00    +0.029 A 
ATOM      6  C   LIG    1       67.407  46.572  94.389  0.00  0.00    +0.028 A 
ATOM      7  C   LIG    1       66.230  46.036  93.908  0.00  0.00    +0.204 A 
ATOM      8  O   LIG    1       65.617  45.266  94.859  0.00  0.00    -0.462 OA
ATOM      9  C   LIG    1       66.396  45.313  95.978  0.00  0.00    +0.139 A 
ATOM     10  C   LIG    1       66.091  44.805  97.244  0.00  0.00    +0.093 A 
ATOM     11  C   LIG    1       67.002  45.141  98.262  0.00  0.00    +0.143 A 
ATOM     12  O   LIG    1       66.650  44.838  99.595  0.00  0.00    -0.422 OA
ATOM     13  C   LIG    1       67.385  45.305 100.687  0.00  0.00    +0.341 A 
ATOM     14  O   LIG    1       67.035  45.054 101.834  0.00  0.00    -0.245 OA
ATOM     15  C   LIG    1       68.592  46.127 100.400  0.00  0.00    +0.041 A 
ENDROOT
BRANCH   6  16
ATOM     16  C   LIG    1       68.197  47.629  93.754  0.00  0.00    -0.014 A 
ATOM     17  C   LIG    1       67.764  48.310  92.615  0.00  0.00    +0.008 A 
ATOM     18  C   LIG    1       68.560  49.314  92.046  0.00  0.00    +0.001 A 
ATOM     19  C   LIG    1       69.799  49.642  92.597  0.00  0.00    +0.000 A 
ATOM     20  C   LIG    1       70.240  48.983  93.736  0.00  0.00    +0.001 A 
ATOM     21  C   LIG    1       69.435  48.003  94.318  0.00  0.00    +0.008 A 
ENDBRANCH   6  16
BRANCH  15  22
ATOM     22  C   LIG    1       69.348  46.825 101.516  0.00  0.00    +0.054 C 
BRANCH  22  23
ATOM     23  C   LIG    1       68.979  48.165 102.133  0.00  0.00    +0.128 C 
BRANCH  23  24
ATOM     24  C   LIG    1       69.346  49.377 101.275  0.00  0.00    +0.332 C 
ATOM     25  O   LIG    1       70.519  49.659 101.043  0.00  0.00    -0.249 OA
BRANCH  24  26
ATOM     26  O   LIG    1       68.322  50.006 100.620  0.00  0.00    -0.337 OA
BRANCH  26  27
ATOM     27  N   LIG    1       68.293  49.743  99.245  0.00  0.00    -0.064 N 
ATOM     28  C   LIG    1       68.786  50.675  98.390  0.00  0.00    +0.255 C 
ATOM     29  O   LIG    1       69.293  51.755  98.650  0.00  0.00    -0.272 OA
ATOM     30  C   LIG    1       68.628  50.116  97.007  0.00  0.00    +0.109 C 
ATOM     31  C   LIG    1       67.439  49.185  97.167  0.00  0.00    +0.109 C 
ATOM     32  C   LIG    1       67.281  49.046  98.664  0.00  0.00    +0.255 C 
ATOM     33  O   LIG    1       66.350  48.472  99.193  0.00  0.00    -0.272 OA
ENDBRANCH  26  27
ENDBRANCH  24  26
ENDBRANCH  23  24
ENDBRANCH  22  23
ENDBRANCH  15  22
TORSDOF 6
ENDMDL
