MODEL 1
REMARK VINA RESULT:     -10.6      0.000      0.000
REMARK  Name = 
REMARK                            x       y       z     vdW  Elec       q    Type
REMARK                         _______ _______ _______ _____ _____    ______ ____
ROOT
ATOM      1  C   LIG    1       38.373  30.084  10.385  0.00  0.00    +0.045 C 
ATOM      2  C   LIG    1       39.139  30.269   9.097  0.00  0.00    -0.030 A 
ATOM      3  C   LIG    1       40.102  29.210   8.779  0.00  0.00    +0.022 A 
ATOM      4  C   LIG    1       40.300  28.147   9.665  0.00  0.00    +0.024 A 
ATOM      5  C   LIG    1       41.471  27.387   9.575  0.00  0.00    +0.029 A 
ATOM      6  C   LIG    1       42.161  26.525  10.477  0.00  0.00    +0.028 A 
ATOM      7  C   LIG    1       43.254  26.071   9.765  0.00  0.00    +0.204 A 
ATOM      8  O   LIG    1       43.318  26.664   8.533  0.00  0.00    -0.462 OA
ATOM      9  C   LIG    1       42.264  27.527   8.447  0.00  0.00    +0.139 A 
ATOM     10  C   LIG    1       42.014  28.460   7.437  0.00  0.00    +0.093 A 
ATOM     11  C   LIG    1       40.945  29.341   7.683  0.00  0.00    +0.143 A 
ATOM     12  O   LIG    1       40.769  30.432   6.806  0.00  0.00    -0.422 OA
ATOM     13  C   LIG    1       39.872  31.469   7.073  0.00  0.00    +0.341 A 
ATOM     14  O   LIG    1       39.766  32.422   6.309  0.00  0.00    -0.245 OA
ATOM     15  C   LIG    1       39.067  31.375   8.321  0.00  0.00    +0.041 A 
ENDROOT
BRANCH   6  16
ATOM     16  C   LIG    1       41.908  26.307  11.902  0.00  0.00    -0.014 A 
ATOM     17  C   LIG    1       41.889  25.034  12.476  0.00  0.00    +0.008 A 
ATOM     18  C   LIG    1       41.640  24.880  13.847  0.00  0.00    +0.001 A 
ATOM     19  C   LIG    1       41.398  25.989  14.658  0.00  0.00    +0.000 A 
ATOM     20  C   LIG    1       41.425  27.262  14.107  0.00  0.00    +0.001 A 
ATOM     21  C   LIG    1       41.699  27.417  12.747  0.00  0.00    +0.008 A 
ENDBRANCH   6  16
BRANCH  15  22
ATOM     22  C   LIG    1       38.202  32.532   8.785  0.00  0.00    +0.054 C 
BRANCH  22  23
ATOM     23  C   LIG    1       37.200  33.290   7.927  0.00  0.00    +0.128 C 
BRANCH  23  24
ATOM     24  C   LIG    1       37.491  34.786   7.791  0.00  0.00    +0.332 C 
ATOM     25  O   LIG    1       37.131  35.583   8.653  0.00  0.00    -0.249 OA
BRANCH  24  26
ATOM     26  O   LIG    1       38.334  35.163   6.781  0.00  0.00    -0.337 OA
BRANCH  26  27
ATOM     27  N   LIG    1       37.680  35.795   5.715  0.00  0.00    -0.064 N 
ATOM     28  C   LIG    1       37.191  35.031   4.704  0.00  0.00    +0.255 C 
ATOM     29  O   LIG    1       37.218  33.817   4.584  0.00  0.00    -0.272 OA
ATOM     30  C   LIG    1       36.548  35.972   3.728  0.00  0.00    +0.109 C 
ATOM     31  C   LIG    1       37.325  37.257   3.957  0.00  0.00    +0.109 C 
ATOM     32  C   LIG    1       38.061  37.015   5.254  0.00  0.00    +0.255 C 
ATOM     33  O   LIG    1       38.893  37.775   5.710  0.00  0.00    -0.272 OA
ENDBRANCH  26  27
ENDBRANCH  24  26
ENDBRANCH  23  24
ENDBRANCH  22  23
ENDBRANCH  15  22
TORSDOF 6
ENDMDL
MODEL 2
REMARK VINA RESULT:      -9.4      2.381      3.351
REMARK  Name = 
REMARK                            x       y       z     vdW  Elec       q    Type
REMARK                         _______ _______ _______ _____ _____    ______ ____
ROOT
ATOM      1  C   LIG    1       39.166  31.721  10.532  0.00  0.00    +0.045 C 
ATOM      2  C   LIG    1       38.523  30.459  10.009  0.00  0.00    -0.030 A 
ATOM      3  C   LIG    1       39.041  29.209  10.571  0.00  0.00    +0.022 A 
ATOM      4  C   LIG    1       40.096  29.230  11.488  0.00  0.00    +0.024 A 
ATOM      5  C   LIG    1       40.846  28.068  11.700  0.00  0.00    +0.029 A 
ATOM      6  C   LIG    1       42.143  27.813  12.234  0.00  0.00    +0.028 A 
ATOM      7  C   LIG    1       42.284  26.441  12.178  0.00  0.00    +0.204 A 
ATOM      8  O   LIG    1       41.204  25.861  11.571  0.00  0.00    -0.462 OA
ATOM      9  C   LIG    1       40.356  26.868  11.212  0.00  0.00    +0.139 A 
ATOM     10  C   LIG    1       39.201  26.764  10.430  0.00  0.00    +0.093 A 
ATOM     11  C   LIG    1       38.607  27.987  10.071  0.00  0.00    +0.143 A 
ATOM     12  O   LIG    1       37.565  27.965   9.119  0.00  0.00    -0.422 OA
ATOM     13  C   LIG    1       37.048  29.130   8.549  0.00  0.00    +0.341 A 
ATOM     14  O   LIG    1       36.167  29.077   7.699  0.00  0.00    -0.245 OA
ATOM     15  C   LIG    1       37.618  30.427   9.004  0.00  0.00    +0.041 A 
ENDROOT
BRANCH   6  16
ATOM     16  C   LIG    1       43.190  28.775  12.582  0.00  0.00    -0.014 A 
ATOM     17  C   LIG    1       44.179  29.170  11.680  0.00  0.00    +0.008 A 
ATOM     18  C   LIG    1       45.160  30.095  12.065  0.00  0.00    +0.001 A 
ATOM     19  C   LIG    1       45.174  30.626  13.355  0.00  0.00    +0.000 A 
ATOM     20  C   LIG    1       44.191  30.254  14.262  0.00  0.00    +0.001 A 
ATOM     21  C   LIG    1       43.199  29.354  13.869  0.00  0.00    +0.008 A 
ENDBRANCH   6  16
BRANCH  15  22
ATOM     22  C   LIG    1       37.249  31.730   8.318  0.00  0.00    +0.054 C 
BRANCH  22  23
ATOM     23  C   LIG    1       38.176  32.920   8.117  0.00  0.00    +0.128 C 
BRANCH  23  24
ATOM     24  C   LIG    1       38.419  33.288   6.652  0.00  0.00    +0.332 C 
ATOM     25  O   LIG    1       39.450  32.951   6.076  0.00  0.00    -0.249 OA
BRANCH  24  26
ATOM     26  O   LIG    1       37.365  33.827   5.965  0.00  0.00    -0.337 OA
BRANCH  26  27
ATOM     27  N   LIG    1       37.641  35.086   5.417  0.00  0.00    -0.064 N 
ATOM     28  C   LIG    1       37.743  36.154   6.250  0.00  0.00    +0.255 C 
ATOM     29  O   LIG    1       37.645  36.183   7.467  0.00  0.00    -0.272 OA
ATOM     30  C   LIG    1       38.047  37.343   5.389  0.00  0.00    +0.109 C 
ATOM     31  C   LIG    1       37.426  36.948   4.060  0.00  0.00    +0.109 C 
ATOM     32  C   LIG    1       37.160  35.468   4.204  0.00  0.00    +0.255 C 
ATOM     33  O   LIG    1       36.549  34.809   3.386  0.00  0.00    -0.272 OA
ENDBRANCH  26  27
ENDBRANCH  24  26
ENDBRANCH  23  24
ENDBRANCH  22  23
ENDBRANCH  15  22
TORSDOF 6
ENDMDL
MODEL 3
REMARK VINA RESULT:      -9.1      3.077      9.949
REMARK  Name = 
REMARK                            x       y       z     vdW  Elec       q    Type
REMARK                         _______ _______ _______ _____ _____    ______ ____
ROOT
ATOM      1  C   LIG    1       40.267  30.126   6.529  0.00  0.00    +0.045 C 
ATOM      2  C   LIG    1       40.297  30.112   8.038  0.00  0.00    -0.030 A 
ATOM      3  C   LIG    1       39.359  31.026   8.695  0.00  0.00    +0.022 A 
ATOM      4  C   LIG    1       38.546  31.872   7.934  0.00  0.00    +0.024 A 
ATOM      5  C   LIG    1       37.976  32.999   8.534  0.00  0.00    +0.029 A 
ATOM      6  C   LIG    1       37.438  34.220   8.032  0.00  0.00    +0.028 A 
ATOM      7  C   LIG    1       37.022  34.911   9.152  0.00  0.00    +0.204 A 
ATOM      8  O   LIG    1       37.349  34.233  10.296  0.00  0.00    -0.462 OA
ATOM      9  C   LIG    1       38.000  33.096   9.916  0.00  0.00    +0.139 A 
ATOM     10  C   LIG    1       38.652  32.178  10.744  0.00  0.00    +0.093 A 
ATOM     11  C   LIG    1       39.388  31.182  10.075  0.00  0.00    +0.143 A 
ATOM     12  O   LIG    1       40.233  30.353  10.844  0.00  0.00    -0.422 OA
ATOM     13  C   LIG    1       41.150  29.475  10.261  0.00  0.00    +0.341 A 
ATOM     14  O   LIG    1       41.895  28.792  10.954  0.00  0.00    -0.245 OA
ATOM     15  C   LIG    1       41.193  29.416   8.775  0.00  0.00    +0.041 A 
ENDROOT
BRANCH   6  16
ATOM     16  C   LIG    1       37.483  34.741   6.665  0.00  0.00    -0.014 A 
ATOM     17  C   LIG    1       37.243  33.941   5.546  0.00  0.00    +0.008 A 
ATOM     18  C   LIG    1       37.301  34.490   4.257  0.00  0.00    +0.001 A 
ATOM     19  C   LIG    1       37.609  35.838   4.068  0.00  0.00    +0.000 A 
ATOM     20  C   LIG    1       37.839  36.650   5.169  0.00  0.00    +0.001 A 
ATOM     21  C   LIG    1       37.755  36.109   6.453  0.00  0.00    +0.008 A 
ENDBRANCH   6  16
BRANCH  15  22
ATOM     22  C   LIG    1       42.272  28.630   8.052  0.00  0.00    +0.054 C 
BRANCH  22  23
ATOM     23  C   LIG    1       42.367  27.113   7.980  0.00  0.00    +0.128 C 
BRANCH  23  24
ATOM     24  C   LIG    1       43.179  26.479   9.111  0.00  0.00    +0.332 C 
ATOM     25  O   LIG    1       44.189  27.022   9.549  0.00  0.00    -0.249 OA
BRANCH  24  26
ATOM     26  O   LIG    1       42.626  25.396   9.738  0.00  0.00    -0.337 OA
BRANCH  26  27
ATOM     27  N   LIG    1       41.868  25.732  10.868  0.00  0.00    -0.064 N 
ATOM     28  C   LIG    1       42.287  25.304  12.087  0.00  0.00    +0.255 C 
ATOM     29  O   LIG    1       43.282  24.653  12.366  0.00  0.00    -0.272 OA
ATOM     30  C   LIG    1       41.294  25.818  13.087  0.00  0.00    +0.109 C 
ATOM     31  C   LIG    1       40.028  25.934  12.256  0.00  0.00    +0.109 C 
ATOM     32  C   LIG    1       40.513  25.820  10.829  0.00  0.00    +0.255 C 
ATOM     33  O   LIG    1       39.772  25.743   9.870  0.00  0.00    -0.272 OA
ENDBRANCH  26  27
ENDBRANCH  24  26
ENDBRANCH  23  24
ENDBRANCH  22  23
ENDBRANCH  15  22
TORSDOF 6
ENDMDL
MODEL 4
REMARK VINA RESULT:      -8.6      2.774      4.643
REMARK  Name = 
REMARK                            x       y       z     vdW  Elec       q    Type
REMARK                         _______ _______ _______ _____ _____    ______ ____
ROOT
ATOM      1  C   LIG    1       39.014  31.775  10.569  0.00  0.00    +0.045 C 
ATOM      2  C   LIG    1       38.372  30.537   9.989  0.00  0.00    -0.030 A 
ATOM      3  C   LIG    1       38.877  29.263  10.509  0.00  0.00    +0.022 A 
ATOM      4  C   LIG    1       39.921  29.244  11.440  0.00  0.00    +0.024 A 
ATOM      5  C   LIG    1       40.663  28.072  11.616  0.00  0.00    +0.029 A 
ATOM      6  C   LIG    1       41.952  27.790  12.155  0.00  0.00    +0.028 A 
ATOM      7  C   LIG    1       42.089  26.421  12.048  0.00  0.00    +0.204 A 
ATOM      8  O   LIG    1       41.014  25.869  11.406  0.00  0.00    -0.462 OA
ATOM      9  C   LIG    1       40.174  26.893  11.076  0.00  0.00    +0.139 A 
ATOM     10  C   LIG    1       39.029  26.825  10.277  0.00  0.00    +0.093 A 
ATOM     11  C   LIG    1       38.444  28.064   9.958  0.00  0.00    +0.143 A 
ATOM     12  O   LIG    1       37.414  28.083   8.993  0.00  0.00    -0.422 OA
ATOM     13  C   LIG    1       36.909  29.272   8.462  0.00  0.00    +0.341 A 
ATOM     14  O   LIG    1       36.039  29.256   7.599  0.00  0.00    -0.245 OA
ATOM     15  C   LIG    1       37.479  30.548   8.973  0.00  0.00    +0.041 A 
ENDROOT
BRANCH   6  16
ATOM     16  C   LIG    1       42.999  28.734  12.554  0.00  0.00    -0.014 A 
ATOM     17  C   LIG    1       44.025  29.126  11.693  0.00  0.00    +0.008 A 
ATOM     18  C   LIG    1       45.005  30.032  12.125  0.00  0.00    +0.001 A 
ATOM     19  C   LIG    1       44.978  30.547  13.421  0.00  0.00    +0.000 A 
ATOM     20  C   LIG    1       43.958  30.178  14.286  0.00  0.00    +0.001 A 
ATOM     21  C   LIG    1       42.969  29.297  13.847  0.00  0.00    +0.008 A 
ENDBRANCH   6  16
BRANCH  15  22
ATOM     22  C   LIG    1       37.124  31.877   8.333  0.00  0.00    +0.054 C 
BRANCH  22  23
ATOM     23  C   LIG    1       38.074  33.050   8.139  0.00  0.00    +0.128 C 
BRANCH  23  24
ATOM     24  C   LIG    1       39.082  32.863   7.004  0.00  0.00    +0.332 C 
ATOM     25  O   LIG    1       38.780  33.110   5.840  0.00  0.00    -0.249 OA
BRANCH  24  26
ATOM     26  O   LIG    1       40.377  32.603   7.361  0.00  0.00    -0.337 OA
BRANCH  26  27
ATOM     27  N   LIG    1       40.783  31.292   7.078  0.00  0.00    -0.064 N 
ATOM     28  C   LIG    1       41.331  30.548   8.073  0.00  0.00    +0.255 C 
ATOM     29  O   LIG    1       41.517  30.855   9.240  0.00  0.00    -0.272 OA
ATOM     30  C   LIG    1       41.653  29.208   7.480  0.00  0.00    +0.109 C 
ATOM     31  C   LIG    1       41.866  29.546   6.015  0.00  0.00    +0.109 C 
ATOM     32  C   LIG    1       41.304  30.941   5.873  0.00  0.00    +0.255 C 
ATOM     33  O   LIG    1       41.405  31.610   4.863  0.00  0.00    -0.272 OA
ENDBRANCH  26  27
ENDBRANCH  24  26
ENDBRANCH  23  24
ENDBRANCH  22  23
ENDBRANCH  15  22
TORSDOF 6
ENDMDL
