MODEL 1
REMARK VINA RESULT:      -9.3      0.000      0.000
REMARK  Name = 
REMARK                            x       y       z     vdW  Elec       q    Type
REMARK                         _______ _______ _______ _____ _____    ______ ____
ROOT
ATOM      1  C   LIG    1       11.008  -4.251  30.441  0.00  0.00    +0.045 C 
ATOM      2  C   LIG    1        9.508  -4.330  30.288  0.00  0.00    -0.030 A 
ATOM      3  C   LIG    1        9.020  -4.450  28.912  0.00  0.00    +0.022 A 
ATOM      4  C   LIG    1        9.918  -4.436  27.840  0.00  0.00    +0.024 A 
ATOM      5  C   LIG    1        9.451  -4.137  26.556  0.00  0.00    +0.029 A 
ATOM      6  C   LIG    1       10.077  -3.684  25.357  0.00  0.00    +0.028 A 
ATOM      7  C   LIG    1        9.053  -3.597  24.436  0.00  0.00    +0.204 A 
ATOM      8  O   LIG    1        7.845  -3.880  25.015  0.00  0.00    -0.462 OA
ATOM      9  C   LIG    1        8.083  -4.139  26.334  0.00  0.00    +0.139 A 
ATOM     10  C   LIG    1        7.136  -4.324  27.345  0.00  0.00    +0.093 A 
ATOM     11  C   LIG    1        7.657  -4.408  28.649  0.00  0.00    +0.143 A 
ATOM     12  O   LIG    1        6.748  -4.387  29.729  0.00  0.00    -0.422 OA
ATOM     13  C   LIG    1        7.167  -4.264  31.056  0.00  0.00    +0.341 A 
ATOM     14  O   LIG    1        6.353  -4.214  31.970  0.00  0.00    -0.245 OA
ATOM     15  C   LIG    1        8.631  -4.181  31.307  0.00  0.00    +0.041 A 
ENDROOT
BRANCH   6  16
ATOM     16  C   LIG    1       11.451  -3.217  25.168  0.00  0.00    -0.014 A 
ATOM     17  C   LIG    1       12.260  -3.667  24.123  0.00  0.00    +0.008 A 
ATOM     18  C   LIG    1       13.571  -3.189  23.987  0.00  0.00    +0.001 A 
ATOM     19  C   LIG    1       14.093  -2.267  24.895  0.00  0.00    +0.000 A 
ATOM     20  C   LIG    1       13.299  -1.800  25.932  0.00  0.00    +0.001 A 
ATOM     21  C   LIG    1       11.985  -2.256  26.051  0.00  0.00    +0.008 A 
ENDBRANCH   6  16
BRANCH  15  22
ATOM     22  C   LIG    1        9.172  -3.867  32.691  0.00  0.00    +0.054 C 
BRANCH  22  23
ATOM     23  C   LIG    1        9.470  -2.477  33.232  0.00  0.00    +0.128 C 
BRANCH  23  24
ATOM     24  C   LIG    1       10.958  -2.185  33.433  0.00  0.00    +0.332 C 
ATOM     25  O   LIG    1       11.721  -3.045  33.862  0.00  0.00    -0.249 OA
BRANCH  24  26
ATOM     26  O   LIG    1       11.431  -1.002  32.932  0.00  0.00    -0.337 OA
BRANCH  26  27
ATOM     27  N   LIG    1       11.632  -1.024  31.546  0.00  0.00    -0.064 N 
ATOM     28  C   LIG    1       12.902  -1.097  31.071  0.00  0.00    +0.255 C 
ATOM     29  O   LIG    1       13.948  -1.168  31.698  0.00  0.00    -0.272 OA
ATOM     30  C   LIG    1       12.801  -1.111  29.574  0.00  0.00    +0.109 C 
ATOM     31  C   LIG    1       11.499  -0.368  29.331  0.00  0.00    +0.109 C 
ATOM     32  C   LIG    1       10.838  -0.329  30.689  0.00  0.00    +0.255 C 
ATOM     33  O   LIG    1        9.824   0.296  30.929  0.00  0.00    -0.272 OA
ENDBRANCH  26  27
ENDBRANCH  24  26
ENDBRANCH  23  24
ENDBRANCH  22  23
ENDBRANCH  15  22
TORSDOF 6
ENDMDL
MODEL 2
REMARK VINA RESULT:      -8.4      3.930      9.063
REMARK  Name = 
REMARK                            x       y       z     vdW  Elec       q    Type
REMARK                         _______ _______ _______ _____ _____    ______ ____
ROOT
ATOM      1  C   LIG    1        8.525  -3.684  26.888  0.00  0.00    +0.045 C 
ATOM      2  C   LIG    1        9.858  -3.639  26.181  0.00  0.00    -0.030 A 
ATOM      3  C   LIG    1       10.975  -3.121  26.975  0.00  0.00    +0.022 A 
ATOM      4  C   LIG    1       10.763  -2.662  28.279  0.00  0.00    +0.024 A 
ATOM      5  C   LIG    1       11.702  -1.810  28.870  0.00  0.00    +0.029 A 
ATOM      6  C   LIG    1       11.656  -0.893  29.960  0.00  0.00    +0.028 A 
ATOM      7  C   LIG    1       12.932  -0.373  30.038  0.00  0.00    +0.204 A 
ATOM      8  O   LIG    1       13.717  -0.844  29.021  0.00  0.00    -0.462 OA
ATOM      9  C   LIG    1       12.939  -1.669  28.262  0.00  0.00    +0.139 A 
ATOM     10  C   LIG    1       13.270  -2.252  27.035  0.00  0.00    +0.093 A 
ATOM     11  C   LIG    1       12.217  -2.922  26.385  0.00  0.00    +0.143 A 
ATOM     12  O   LIG    1       12.425  -3.353  25.057  0.00  0.00    -0.422 OA
ATOM     13  C   LIG    1       11.388  -3.844  24.260  0.00  0.00    +0.341 A 
ATOM     14  O   LIG    1       11.592  -4.178  23.099  0.00  0.00    -0.245 OA
ATOM     15  C   LIG    1       10.034  -3.929  24.871  0.00  0.00    +0.041 A 
ENDROOT
BRANCH   6  16
ATOM     16  C   LIG    1       10.489  -0.435  30.717  0.00  0.00    -0.014 A 
ATOM     17  C   LIG    1        9.682  -1.304  31.454  0.00  0.00    +0.008 A 
ATOM     18  C   LIG    1        8.575  -0.814  32.160  0.00  0.00    +0.001 A 
ATOM     19  C   LIG    1        8.253   0.543  32.131  0.00  0.00    +0.000 A 
ATOM     20  C   LIG    1        9.051   1.423  31.413  0.00  0.00    +0.001 A 
ATOM     21  C   LIG    1       10.169   0.938  30.733  0.00  0.00    +0.008 A 
ENDBRANCH   6  16
BRANCH  15  22
ATOM     22  C   LIG    1        8.817  -4.278  24.035  0.00  0.00    +0.054 C 
BRANCH  22  23
ATOM     23  C   LIG    1        8.301  -3.483  22.845  0.00  0.00    +0.128 C 
BRANCH  23  24
ATOM     24  C   LIG    1        8.465  -4.189  21.497  0.00  0.00    +0.332 C 
ATOM     25  O   LIG    1        8.941  -5.318  21.426  0.00  0.00    -0.249 OA
BRANCH  24  26
ATOM     26  O   LIG    1        7.880  -3.595  20.412  0.00  0.00    -0.337 OA
BRANCH  26  27
ATOM     27  N   LIG    1        8.637  -2.547  19.873  0.00  0.00    -0.064 N 
ATOM     28  C   LIG    1        8.051  -1.334  19.708  0.00  0.00    +0.255 C 
ATOM     29  O   LIG    1        6.912  -0.993  19.989  0.00  0.00    -0.272 OA
ATOM     30  C   LIG    1        9.096  -0.427  19.128  0.00  0.00    +0.109 C 
ATOM     31  C   LIG    1        9.999  -1.402  18.393  0.00  0.00    +0.109 C 
ATOM     32  C   LIG    1        9.585  -2.757  18.921  0.00  0.00    +0.255 C 
ATOM     33  O   LIG    1        9.999  -3.809  18.477  0.00  0.00    -0.272 OA
ENDBRANCH  26  27
ENDBRANCH  24  26
ENDBRANCH  23  24
ENDBRANCH  22  23
ENDBRANCH  15  22
TORSDOF 6
ENDMDL
MODEL 3
REMARK VINA RESULT:      -8.4      2.629      5.935
REMARK  Name = 
REMARK                            x       y       z     vdW  Elec       q    Type
REMARK                         _______ _______ _______ _____ _____    ______ ____
ROOT
ATOM      1  C   LIG    1       11.226  -3.573  25.260  0.00  0.00    +0.045 C 
ATOM      2  C   LIG    1       11.908  -2.966  26.463  0.00  0.00    -0.030 A 
ATOM      3  C   LIG    1       13.168  -2.270  26.188  0.00  0.00    +0.022 A 
ATOM      4  C   LIG    1       13.691  -2.242  24.892  0.00  0.00    +0.024 A 
ATOM      5  C   LIG    1       15.048  -1.956  24.703  0.00  0.00    +0.029 A 
ATOM      6  C   LIG    1       15.969  -2.190  23.642  0.00  0.00    +0.028 A 
ATOM      7  C   LIG    1       17.160  -1.647  24.081  0.00  0.00    +0.204 A 
ATOM      8  O   LIG    1       17.044  -1.182  25.362  0.00  0.00    -0.462 OA
ATOM      9  C   LIG    1       15.767  -1.439  25.769  0.00  0.00    +0.139 A 
ATOM     10  C   LIG    1       15.240  -1.280  27.054  0.00  0.00    +0.093 A 
ATOM     11  C   LIG    1       13.939  -1.782  27.236  0.00  0.00    +0.143 A 
ATOM     12  O   LIG    1       13.427  -1.840  28.551  0.00  0.00    -0.422 OA
ATOM     13  C   LIG    1       12.236  -2.501  28.861  0.00  0.00    +0.341 A 
ATOM     14  O   LIG    1       11.835  -2.564  30.017  0.00  0.00    -0.245 OA
ATOM     15  C   LIG    1       11.489  -3.131  27.739  0.00  0.00    +0.041 A 
ENDROOT
BRANCH   6  16
ATOM     16  C   LIG    1       15.781  -2.996  22.434  0.00  0.00    -0.014 A 
ATOM     17  C   LIG    1       14.673  -3.824  22.248  0.00  0.00    +0.008 A 
ATOM     18  C   LIG    1       14.541  -4.577  21.072  0.00  0.00    +0.001 A 
ATOM     19  C   LIG    1       15.517  -4.521  20.075  0.00  0.00    +0.000 A 
ATOM     20  C   LIG    1       16.619  -3.694  20.239  0.00  0.00    +0.001 A 
ATOM     21  C   LIG    1       16.735  -2.925  21.397  0.00  0.00    +0.008 A 
ENDBRANCH   6  16
BRANCH  15  22
ATOM     22  C   LIG    1       10.286  -4.019  27.999  0.00  0.00    +0.054 C 
BRANCH  22  23
ATOM     23  C   LIG    1       10.133  -4.986  29.162  0.00  0.00    +0.128 C 
BRANCH  23  24
ATOM     24  C   LIG    1        8.805  -4.864  29.912  0.00  0.00    +0.332 C 
ATOM     25  O   LIG    1        7.739  -4.794  29.308  0.00  0.00    -0.249 OA
BRANCH  24  26
ATOM     26  O   LIG    1        8.842  -5.037  31.269  0.00  0.00    -0.337 OA
BRANCH  26  27
ATOM     27  N   LIG    1        8.669  -3.847  31.989  0.00  0.00    -0.064 N 
ATOM     28  C   LIG    1        9.701  -3.380  32.738  0.00  0.00    +0.255 C 
ATOM     29  O   LIG    1       10.819  -3.852  32.873  0.00  0.00    -0.272 OA
ATOM     30  C   LIG    1        9.229  -2.107  33.374  0.00  0.00    +0.109 C 
ATOM     31  C   LIG    1        7.727  -2.321  33.451  0.00  0.00    +0.109 C 
ATOM     32  C   LIG    1        7.478  -3.506  32.547  0.00  0.00    +0.255 C 
ATOM     33  O   LIG    1        6.402  -4.061  32.443  0.00  0.00    -0.272 OA
ENDBRANCH  26  27
ENDBRANCH  24  26
ENDBRANCH  23  24
ENDBRANCH  22  23
ENDBRANCH  15  22
TORSDOF 6
ENDMDL
MODEL 4
REMARK VINA RESULT:      -8.3      2.991      6.476
REMARK  Name = 
REMARK                            x       y       z     vdW  Elec       q    Type
REMARK                         _______ _______ _______ _____ _____    ______ ____
ROOT
ATOM      1  C   LIG    1       13.254  -1.690  28.682  0.00  0.00    +0.045 C 
ATOM      2  C   LIG    1       13.144  -2.099  27.233  0.00  0.00    -0.030 A 
ATOM      3  C   LIG    1       11.820  -2.560  26.807  0.00  0.00    +0.022 A 
ATOM      4  C   LIG    1       10.773  -2.649  27.730  0.00  0.00    +0.024 A 
ATOM      5  C   LIG    1        9.667  -3.455  27.439  0.00  0.00    +0.029 A 
ATOM      6  C   LIG    1        8.649  -4.059  28.233  0.00  0.00    +0.028 A 
ATOM      7  C   LIG    1        7.843  -4.721  27.329  0.00  0.00    +0.204 A 
ATOM      8  O   LIG    1        8.351  -4.633  26.061  0.00  0.00    -0.462 OA
ATOM      9  C   LIG    1        9.510  -3.918  26.142  0.00  0.00    +0.139 A 
ATOM     10  C   LIG    1       10.448  -3.708  25.127  0.00  0.00    +0.093 A 
ATOM     11  C   LIG    1       11.638  -3.075  25.530  0.00  0.00    +0.143 A 
ATOM     12  O   LIG    1       12.705  -3.018  24.607  0.00  0.00    -0.422 OA
ATOM     13  C   LIG    1       13.985  -2.595  24.970  0.00  0.00    +0.341 A 
ATOM     14  O   LIG    1       14.901  -2.589  24.155  0.00  0.00    -0.245 OA
ATOM     15  C   LIG    1       14.193  -2.168  26.380  0.00  0.00    +0.041 A 
ENDROOT
BRANCH   6  16
ATOM     16  C   LIG    1        8.561  -4.144  29.692  0.00  0.00    -0.014 A 
ATOM     17  C   LIG    1        9.677  -4.368  30.500  0.00  0.00    +0.008 A 
ATOM     18  C   LIG    1        9.539  -4.443  31.893  0.00  0.00    +0.001 A 
ATOM     19  C   LIG    1        8.287  -4.306  32.495  0.00  0.00    +0.000 A 
ATOM     20  C   LIG    1        7.169  -4.071  31.708  0.00  0.00    +0.001 A 
ATOM     21  C   LIG    1        7.312  -3.970  30.323  0.00  0.00    +0.008 A 
ENDBRANCH   6  16
BRANCH  15  22
ATOM     22  C   LIG    1       15.582  -1.864  26.912  0.00  0.00    +0.054 C 
BRANCH  22  23
ATOM     23  C   LIG    1       16.660  -2.894  27.215  0.00  0.00    +0.128 C 
BRANCH  23  24
ATOM     24  C   LIG    1       16.953  -3.078  28.706  0.00  0.00    +0.332 C 
ATOM     25  O   LIG    1       16.742  -4.150  29.266  0.00  0.00    -0.249 OA
BRANCH  24  26
ATOM     26  O   LIG    1       17.638  -2.072  29.331  0.00  0.00    -0.337 OA
BRANCH  26  27
ATOM     27  N   LIG    1       16.823  -1.243  30.113  0.00  0.00    -0.064 N 
ATOM     28  C   LIG    1       16.727   0.072  29.789  0.00  0.00    +0.255 C 
ATOM     29  O   LIG    1       17.253   0.669  28.863  0.00  0.00    -0.272 OA
ATOM     30  C   LIG    1       15.792   0.692  30.785  0.00  0.00    +0.109 C 
ATOM     31  C   LIG    1       15.966  -0.207  31.996  0.00  0.00    +0.109 C 
ATOM     32  C   LIG    1       16.689  -1.419  31.454  0.00  0.00    +0.255 C 
ATOM     33  O   LIG    1       17.119  -2.315  32.151  0.00  0.00    -0.272 OA
ENDBRANCH  26  27
ENDBRANCH  24  26
ENDBRANCH  23  24
ENDBRANCH  22  23
ENDBRANCH  15  22
TORSDOF 6
ENDMDL
MODEL 5
REMARK VINA RESULT:      -8.2      3.925      6.034
REMARK  Name = 
REMARK                            x       y       z     vdW  Elec       q    Type
REMARK                         _______ _______ _______ _____ _____    ______ ____
ROOT
ATOM      1  C   LIG    1       11.866  -4.341  22.991  0.00  0.00    +0.045 C 
ATOM      2  C   LIG    1       10.548  -4.132  23.698  0.00  0.00    -0.030 A 
ATOM      3  C   LIG    1        9.378  -4.005  22.824  0.00  0.00    +0.022 A 
ATOM      4  C   LIG    1        9.528  -4.029  21.435  0.00  0.00    +0.024 A 
ATOM      5  C   LIG    1        8.515  -3.506  20.624  0.00  0.00    +0.029 A 
ATOM      6  C   LIG    1        8.468  -3.039  19.278  0.00  0.00    +0.028 A 
ATOM      7  C   LIG    1        7.155  -2.664  19.080  0.00  0.00    +0.204 A 
ATOM      8  O   LIG    1        6.429  -2.790  20.234  0.00  0.00    -0.462 OA
ATOM      9  C   LIG    1        7.283  -3.237  21.199  0.00  0.00    +0.139 A 
ATOM     10  C   LIG    1        7.023  -3.364  22.567  0.00  0.00    +0.093 A 
ATOM     11  C   LIG    1        8.137  -3.688  23.362  0.00  0.00    +0.143 A 
ATOM     12  O   LIG    1        7.990  -3.629  24.765  0.00  0.00    -0.422 OA
ATOM     13  C   LIG    1        9.078  -3.736  25.636  0.00  0.00    +0.341 A 
ATOM     14  O   LIG    1        8.924  -3.646  26.848  0.00  0.00    -0.245 OA
ATOM     15  C   LIG    1       10.421  -3.946  25.032  0.00  0.00    +0.041 A 
ENDROOT
BRANCH   6  16
ATOM     16  C   LIG    1        9.581  -2.807  18.355  0.00  0.00    -0.014 A 
ATOM     17  C   LIG    1       10.272  -3.849  17.735  0.00  0.00    +0.008 A 
ATOM     18  C   LIG    1       11.332  -3.573  16.859  0.00  0.00    +0.001 A 
ATOM     19  C   LIG    1       11.721  -2.257  16.602  0.00  0.00    +0.000 A 
ATOM     20  C   LIG    1       11.037  -1.209  17.201  0.00  0.00    +0.001 A 
ATOM     21  C   LIG    1        9.965  -1.484  18.051  0.00  0.00    +0.008 A 
ENDBRANCH   6  16
BRANCH  15  22
ATOM     22  C   LIG    1       11.679  -3.895  25.880  0.00  0.00    +0.054 C 
BRANCH  22  23
ATOM     23  C   LIG    1       12.424  -2.632  26.285  0.00  0.00    +0.128 C 
BRANCH  23  24
ATOM     24  C   LIG    1       12.088  -2.125  27.689  0.00  0.00    +0.332 C 
ATOM     25  O   LIG    1       11.294  -1.204  27.858  0.00  0.00    -0.249 OA
BRANCH  24  26
ATOM     26  O   LIG    1       12.550  -2.866  28.742  0.00  0.00    -0.337 OA
BRANCH  26  27
ATOM     27  N   LIG    1       11.629  -2.983  29.791  0.00  0.00    -0.064 N 
ATOM     28  C   LIG    1       11.938  -2.441  30.997  0.00  0.00    +0.255 C 
ATOM     29  O   LIG    1       12.939  -1.821  31.320  0.00  0.00    -0.272 OA
ATOM     30  C   LIG    1       10.774  -2.714  31.902  0.00  0.00    +0.109 C 
ATOM     31  C   LIG    1       10.186  -3.979  31.301  0.00  0.00    +0.109 C 
ATOM     32  C   LIG    1       10.845  -4.082  29.945  0.00  0.00    +0.255 C 
ATOM     33  O   LIG    1       10.722  -5.039  29.207  0.00  0.00    -0.272 OA
ENDBRANCH  26  27
ENDBRANCH  24  26
ENDBRANCH  23  24
ENDBRANCH  22  23
ENDBRANCH  15  22
TORSDOF 6
ENDMDL
MODEL 6
REMARK VINA RESULT:      -8.1      4.155      9.197
REMARK  Name = 
REMARK                            x       y       z     vdW  Elec       q    Type
REMARK                         _______ _______ _______ _____ _____    ______ ____
ROOT
ATOM      1  C   LIG    1        7.955  -4.004  26.796  0.00  0.00    +0.045 C 
ATOM      2  C   LIG    1        9.144  -3.991  25.865  0.00  0.00    -0.030 A 
ATOM      3  C   LIG    1       10.406  -3.545  26.462  0.00  0.00    +0.022 A 
ATOM      4  C   LIG    1       10.447  -3.120  27.794  0.00  0.00    +0.024 A 
ATOM      5  C   LIG    1       11.513  -2.328  28.230  0.00  0.00    +0.029 A 
ATOM      6  C   LIG    1       11.702  -1.445  29.334  0.00  0.00    +0.028 A 
ATOM      7  C   LIG    1       12.995  -0.981  29.198  0.00  0.00    +0.204 A 
ATOM      8  O   LIG    1       13.567  -1.452  28.048  0.00  0.00    -0.462 OA
ATOM      9  C   LIG    1       12.630  -2.218  27.417  0.00  0.00    +0.139 A 
ATOM     10  C   LIG    1       12.714  -2.775  26.138  0.00  0.00    +0.093 A 
ATOM     11  C   LIG    1       11.533  -3.379  25.668  0.00  0.00    +0.143 A 
ATOM     12  O   LIG    1       11.485  -3.776  24.314  0.00  0.00    -0.422 OA
ATOM     13  C   LIG    1       10.303  -4.198  23.700  0.00  0.00    +0.341 A 
ATOM     14  O   LIG    1       10.285  -4.503  22.513  0.00  0.00    -0.245 OA
ATOM     15  C   LIG    1        9.075  -4.246  24.539  0.00  0.00    +0.041 A 
ENDROOT
BRANCH   6  16
ATOM     16  C   LIG    1       10.709  -0.964  30.295  0.00  0.00    -0.014 A 
ATOM     17  C   LIG    1        9.937  -1.827  31.076  0.00  0.00    +0.008 A 
ATOM     18  C   LIG    1        8.998  -1.314  31.982  0.00  0.00    +0.001 A 
ATOM     19  C   LIG    1        8.809   0.062  32.111  0.00  0.00    +0.000 A 
ATOM     20  C   LIG    1        9.575   0.935  31.352  0.00  0.00    +0.001 A 
ATOM     21  C   LIG    1       10.529   0.424  30.470  0.00  0.00    +0.008 A 
ENDBRANCH   6  16
BRANCH  15  22
ATOM     22  C   LIG    1        7.714  -4.517  23.922  0.00  0.00    +0.054 C 
BRANCH  22  23
ATOM     23  C   LIG    1        7.417  -4.599  22.432  0.00  0.00    +0.128 C 
BRANCH  23  24
ATOM     24  C   LIG    1        6.888  -3.299  21.823  0.00  0.00    +0.332 C 
ATOM     25  O   LIG    1        7.521  -2.251  21.916  0.00  0.00    -0.249 OA
BRANCH  24  26
ATOM     26  O   LIG    1        5.792  -3.397  21.010  0.00  0.00    -0.337 OA
BRANCH  26  27
ATOM     27  N   LIG    1        5.385  -2.170  20.471  0.00  0.00    -0.064 N 
ATOM     28  C   LIG    1        4.132  -1.721  20.740  0.00  0.00    +0.255 C 
ATOM     29  O   LIG    1        3.268  -2.239  21.430  0.00  0.00    -0.272 OA
ATOM     30  C   LIG    1        3.991  -0.399  20.045  0.00  0.00    +0.109 C 
ATOM     31  C   LIG    1        4.962  -0.537  18.886  0.00  0.00    +0.109 C 
ATOM     32  C   LIG    1        5.793  -1.748  19.245  0.00  0.00    +0.255 C 
ATOM     33  O   LIG    1        6.605  -2.254  18.497  0.00  0.00    -0.272 OA
ENDBRANCH  26  27
ENDBRANCH  24  26
ENDBRANCH  23  24
ENDBRANCH  22  23
ENDBRANCH  15  22
TORSDOF 6
ENDMDL
MODEL 7
REMARK VINA RESULT:      -8.0      3.394      5.323
REMARK  Name = 
REMARK                            x       y       z     vdW  Elec       q    Type
REMARK                         _______ _______ _______ _____ _____    ______ ____
ROOT
ATOM      1  C   LIG    1       12.380  -2.917  24.935  0.00  0.00    +0.045 C 
ATOM      2  C   LIG    1       11.279  -3.240  25.917  0.00  0.00    -0.030 A 
ATOM      3  C   LIG    1       10.105  -3.909  25.350  0.00  0.00    +0.022 A 
ATOM      4  C   LIG    1       10.032  -4.164  23.977  0.00  0.00    +0.024 A 
ATOM      5  C   LIG    1        8.787  -4.410  23.389  0.00  0.00    +0.029 A 
ATOM      6  C   LIG    1        8.294  -4.341  22.054  0.00  0.00    +0.028 A 
ATOM      7  C   LIG    1        6.971  -4.724  22.145  0.00  0.00    +0.204 A 
ATOM      8  O   LIG    1        6.610  -4.934  23.448  0.00  0.00    -0.462 OA
ATOM      9  C   LIG    1        7.706  -4.669  24.217  0.00  0.00    +0.139 A 
ATOM     10  C   LIG    1        7.765  -4.600  25.612  0.00  0.00    +0.093 A 
ATOM     11  C   LIG    1        8.986  -4.141  26.139  0.00  0.00    +0.143 A 
ATOM     12  O   LIG    1        9.046  -3.853  27.520  0.00  0.00    -0.422 OA
ATOM     13  C   LIG    1       10.139  -3.207  28.102  0.00  0.00    +0.341 A 
ATOM     14  O   LIG    1       10.148  -2.939  29.297  0.00  0.00    -0.245 OA
ATOM     15  C   LIG    1       11.277  -2.850  27.212  0.00  0.00    +0.041 A 
ENDROOT
BRANCH   6  16
ATOM     16  C   LIG    1        8.955  -3.799  20.865  0.00  0.00    -0.014 A 
ATOM     17  C   LIG    1       10.131  -4.343  20.345  0.00  0.00    +0.008 A 
ATOM     18  C   LIG    1       10.725  -3.785  19.204  0.00  0.00    +0.001 A 
ATOM     19  C   LIG    1       10.162  -2.673  18.577  0.00  0.00    +0.000 A 
ATOM     20  C   LIG    1        8.987  -2.126  19.074  0.00  0.00    +0.001 A 
ATOM     21  C   LIG    1        8.381  -2.699  20.193  0.00  0.00    +0.008 A 
ENDBRANCH   6  16
BRANCH  15  22
ATOM     22  C   LIG    1       12.425  -1.992  27.714  0.00  0.00    +0.054 C 
BRANCH  22  23
ATOM     23  C   LIG    1       13.291  -2.292  28.929  0.00  0.00    +0.128 C 
BRANCH  23  24
ATOM     24  C   LIG    1       14.400  -1.268  29.179  0.00  0.00    +0.332 C 
ATOM     25  O   LIG    1       14.167  -0.206  29.749  0.00  0.00    -0.249 OA
BRANCH  24  26
ATOM     26  O   LIG    1       15.683  -1.670  28.924  0.00  0.00    -0.337 OA
BRANCH  26  27
ATOM     27  N   LIG    1       16.227  -1.100  27.766  0.00  0.00    -0.064 N 
ATOM     28  C   LIG    1       16.263  -1.839  26.628  0.00  0.00    +0.255 C 
ATOM     29  O   LIG    1       15.856  -2.976  26.444  0.00  0.00    -0.272 OA
ATOM     30  C   LIG    1       16.883  -0.972  25.572  0.00  0.00    +0.109 C 
ATOM     31  C   LIG    1       17.757  -0.039  26.392  0.00  0.00    +0.109 C 
ATOM     32  C   LIG    1       17.275  -0.235  27.811  0.00  0.00    +0.255 C 
ATOM     33  O   LIG    1       17.818   0.253  28.781  0.00  0.00    -0.272 OA
ENDBRANCH  26  27
ENDBRANCH  24  26
ENDBRANCH  23  24
ENDBRANCH  22  23
ENDBRANCH  15  22
TORSDOF 6
ENDMDL
MODEL 8
REMARK VINA RESULT:      -7.7      5.463      9.371
REMARK  Name = 
REMARK                            x       y       z     vdW  Elec       q    Type
REMARK                         _______ _______ _______ _____ _____    ______ ____
ROOT
ATOM      1  C   LIG    1        7.444  -3.261  23.072  0.00  0.00    +0.045 C 
ATOM      2  C   LIG    1        7.965  -3.097  21.664  0.00  0.00    -0.030 A 
ATOM      3  C   LIG    1        7.192  -2.194  20.808  0.00  0.00    +0.022 A 
ATOM      4  C   LIG    1        6.028  -1.588  21.289  0.00  0.00    +0.024 A 
ATOM      5  C   LIG    1        5.093  -1.078  20.382  0.00  0.00    +0.029 A 
ATOM      6  C   LIG    1        3.708  -0.752  20.469  0.00  0.00    +0.028 A 
ATOM      7  C   LIG    1        3.377  -0.279  19.216  0.00  0.00    +0.204 A 
ATOM      8  O   LIG    1        4.438  -0.378  18.357  0.00  0.00    -0.462 OA
ATOM      9  C   LIG    1        5.468  -0.938  19.056  0.00  0.00    +0.139 A 
ATOM     10  C   LIG    1        6.698  -1.370  18.550  0.00  0.00    +0.093 A 
ATOM     11  C   LIG    1        7.512  -2.065  19.462  0.00  0.00    +0.143 A 
ATOM     12  O   LIG    1        8.668  -2.705  18.965  0.00  0.00    -0.422 OA
ATOM     13  C   LIG    1        9.429  -3.582  19.742  0.00  0.00    +0.341 A 
ATOM     14  O   LIG    1       10.409  -4.149  19.272  0.00  0.00    -0.245 OA
ATOM     15  C   LIG    1        8.995  -3.806  21.147  0.00  0.00    +0.041 A 
ENDROOT
BRANCH   6  16
ATOM     16  C   LIG    1        2.774  -1.031  21.561  0.00  0.00    -0.014 A 
ATOM     17  C   LIG    1        2.394  -2.327  21.914  0.00  0.00    +0.008 A 
ATOM     18  C   LIG    1        1.494  -2.540  22.968  0.00  0.00    +0.001 A 
ATOM     19  C   LIG    1        0.954  -1.464  23.674  0.00  0.00    +0.000 A 
ATOM     20  C   LIG    1        1.330  -0.169  23.345  0.00  0.00    +0.001 A 
ATOM     21  C   LIG    1        2.247   0.040  22.314  0.00  0.00    +0.008 A 
ENDBRANCH   6  16
BRANCH  15  22
ATOM     22  C   LIG    1        9.648  -4.872  22.009  0.00  0.00    +0.054 C 
BRANCH  22  23
ATOM     23  C   LIG    1       11.109  -4.896  22.434  0.00  0.00    +0.128 C 
BRANCH  23  24
ATOM     24  C   LIG    1       11.414  -4.073  23.687  0.00  0.00    +0.332 C 
ATOM     25  O   LIG    1       12.559  -3.715  23.948  0.00  0.00    -0.249 OA
BRANCH  24  26
ATOM     26  O   LIG    1       10.342  -3.590  24.387  0.00  0.00    -0.337 OA
BRANCH  26  27
ATOM     27  N   LIG    1       10.482  -3.709  25.776  0.00  0.00    -0.064 N 
ATOM     28  C   LIG    1        9.483  -4.294  26.486  0.00  0.00    +0.255 C 
ATOM     29  O   LIG    1        8.436  -4.772  26.077  0.00  0.00    -0.272 OA
ATOM     30  C   LIG    1        9.915  -4.286  27.922  0.00  0.00    +0.109 C 
ATOM     31  C   LIG    1       10.843  -3.085  27.975  0.00  0.00    +0.109 C 
ATOM     32  C   LIG    1       11.113  -2.765  26.523  0.00  0.00    +0.255 C 
ATOM     33  O   LIG    1       11.721  -1.781  26.150  0.00  0.00    -0.272 OA
ENDBRANCH  26  27
ENDBRANCH  24  26
ENDBRANCH  23  24
ENDBRANCH  22  23
ENDBRANCH  15  22
TORSDOF 6
ENDMDL
MODEL 9
REMARK VINA RESULT:      -7.5      5.307      8.840
REMARK  Name = 
REMARK                            x       y       z     vdW  Elec       q    Type
REMARK                         _______ _______ _______ _____ _____    ______ ____
ROOT
ATOM      1  C   LIG    1        7.678  -2.854  23.479  0.00  0.00    +0.045 C 
ATOM      2  C   LIG    1        8.240  -3.044  22.090  0.00  0.00    -0.030 A 
ATOM      3  C   LIG    1        7.481  -2.407  21.011  0.00  0.00    +0.022 A 
ATOM      4  C   LIG    1        6.293  -1.725  21.290  0.00  0.00    +0.024 A 
ATOM      5  C   LIG    1        5.378  -1.485  20.259  0.00  0.00    +0.029 A 
ATOM      6  C   LIG    1        3.987  -1.180  20.223  0.00  0.00    +0.028 A 
ATOM      7  C   LIG    1        3.688  -1.050  18.882  0.00  0.00    +0.204 A 
ATOM      8  O   LIG    1        4.777  -1.341  18.106  0.00  0.00    -0.462 OA
ATOM      9  C   LIG    1        5.793  -1.680  18.951  0.00  0.00    +0.139 A 
ATOM     10  C   LIG    1        7.044  -2.199  18.605  0.00  0.00    +0.093 A 
ATOM     11  C   LIG    1        7.840  -2.620  19.686  0.00  0.00    +0.143 A 
ATOM     12  O   LIG    1        9.021  -3.338  19.401  0.00  0.00    -0.422 OA
ATOM     13  C   LIG    1        9.771  -3.970  20.396  0.00  0.00    +0.341 A 
ATOM     14  O   LIG    1       10.773  -4.616  20.113  0.00  0.00    -0.245 OA
ATOM     15  C   LIG    1        9.296  -3.838  21.800  0.00  0.00    +0.041 A 
ENDROOT
BRANCH   6  16
ATOM     16  C   LIG    1        3.023  -1.191  21.325  0.00  0.00    -0.014 A 
ATOM     17  C   LIG    1        2.463  -2.369  21.822  0.00  0.00    +0.008 A 
ATOM     18  C   LIG    1        1.543  -2.325  22.879  0.00  0.00    +0.001 A 
ATOM     19  C   LIG    1        1.162  -1.107  23.444  0.00  0.00    +0.000 A 
ATOM     20  C   LIG    1        1.718   0.073  22.971  0.00  0.00    +0.001 A 
ATOM     21  C   LIG    1        2.655   0.025  21.937  0.00  0.00    +0.008 A 
ENDBRANCH   6  16
BRANCH  15  22
ATOM     22  C   LIG    1        9.938  -4.632  22.923  0.00  0.00    +0.054 C 
BRANCH  22  23
ATOM     23  C   LIG    1       11.144  -4.195  23.741  0.00  0.00    +0.128 C 
BRANCH  23  24
ATOM     24  C   LIG    1       10.800  -3.664  25.134  0.00  0.00    +0.332 C 
ATOM     25  O   LIG    1       10.283  -4.388  25.979  0.00  0.00    -0.249 OA
BRANCH  24  26
ATOM     26  O   LIG    1       11.273  -2.421  25.457  0.00  0.00    -0.337 OA
BRANCH  26  27
ATOM     27  N   LIG    1       12.374  -2.449  26.323  0.00  0.00    -0.064 N 
ATOM     28  C   LIG    1       12.260  -1.868  27.545  0.00  0.00    +0.255 C 
ATOM     29  O   LIG    1       11.291  -1.312  28.036  0.00  0.00    -0.272 OA
ATOM     30  C   LIG    1       13.576  -2.063  28.237  0.00  0.00    +0.109 C 
ATOM     31  C   LIG    1       14.545  -2.162  27.072  0.00  0.00    +0.109 C 
ATOM     32  C   LIG    1       13.653  -2.368  25.869  0.00  0.00    +0.255 C 
ATOM     33  O   LIG    1       14.055  -2.369  24.723  0.00  0.00    -0.272 OA
ENDBRANCH  26  27
ENDBRANCH  24  26
ENDBRANCH  23  24
ENDBRANCH  22  23
ENDBRANCH  15  22
TORSDOF 6
ENDMDL
