MODEL 1
REMARK VINA RESULT:     -11.3      0.000      0.000
REMARK  Name = 
REMARK                            x       y       z     vdW  Elec       q    Type
REMARK                         _______ _______ _______ _____ _____    ______ ____
ROOT
ATOM      1  C   LIG    1        8.135   0.697  30.572  0.00  0.00    +0.045 C 
ATOM      2  C   LIG    1        8.897   1.556  29.592  0.00  0.00    -0.030 A 
ATOM      3  C   LIG    1       10.214   2.011  30.044  0.00  0.00    +0.022 A 
ATOM      4  C   LIG    1       10.670   1.690  31.326  0.00  0.00    +0.024 A 
ATOM      5  C   LIG    1       11.702   2.442  31.898  0.00  0.00    +0.029 A 
ATOM      6  C   LIG    1       12.150   2.649  33.235  0.00  0.00    +0.028 A 
ATOM      7  C   LIG    1       13.231   3.500  33.117  0.00  0.00    +0.204 A 
ATOM      8  O   LIG    1       13.411   3.888  31.818  0.00  0.00    -0.462 OA
ATOM      9  C   LIG    1       12.426   3.296  31.081  0.00  0.00    +0.139 A 
ATOM     10  C   LIG    1       12.121   3.525  29.737  0.00  0.00    +0.093 A 
ATOM     11  C   LIG    1       10.946   2.905  29.273  0.00  0.00    +0.143 A 
ATOM     12  O   LIG    1       10.470   3.258  27.992  0.00  0.00    -0.422 OA
ATOM     13  C   LIG    1        9.218   2.857  27.523  0.00  0.00    +0.341 A 
ATOM     14  O   LIG    1        8.817   3.208  26.419  0.00  0.00    -0.245 OA
ATOM     15  C   LIG    1        8.392   2.003  28.419  0.00  0.00    +0.041 A 
ENDROOT
BRANCH   6  16
ATOM     16  C   LIG    1       11.512   2.232  34.484  0.00  0.00    -0.014 A 
ATOM     17  C   LIG    1       10.245   1.647  34.523  0.00  0.00    +0.008 A 
ATOM     18  C   LIG    1        9.677   1.266  35.747  0.00  0.00    +0.001 A 
ATOM     19  C   LIG    1       10.360   1.475  36.946  0.00  0.00    +0.000 A 
ATOM     20  C   LIG    1       11.625   2.045  36.926  0.00  0.00    +0.001 A 
ATOM     21  C   LIG    1       12.201   2.398  35.704  0.00  0.00    +0.008 A 
ENDBRANCH   6  16
BRANCH  15  22
ATOM     22  C   LIG    1        6.952   1.667  28.073  0.00  0.00    +0.054 C 
BRANCH  22  23
ATOM     23  C   LIG    1        6.192   2.169  26.855  0.00  0.00    +0.128 C 
BRANCH  23  24
ATOM     24  C   LIG    1        5.508   3.523  27.053  0.00  0.00    +0.332 C 
ATOM     25  O   LIG    1        4.499   3.822  26.422  0.00  0.00    -0.249 OA
BRANCH  24  26
ATOM     26  O   LIG    1        5.949   4.293  28.094  0.00  0.00    -0.337 OA
BRANCH  26  27
ATOM     27  N   LIG    1        5.612   5.647  27.970  0.00  0.00    -0.064 N 
ATOM     28  C   LIG    1        6.518   6.499  27.426  0.00  0.00    +0.255 C 
ATOM     29  O   LIG    1        7.631   6.252  26.989  0.00  0.00    -0.272 OA
ATOM     30  C   LIG    1        5.880   7.857  27.417  0.00  0.00    +0.109 C 
ATOM     31  C   LIG    1        4.908   7.765  28.580  0.00  0.00    +0.109 C 
ATOM     32  C   LIG    1        4.842   6.287  28.889  0.00  0.00    +0.255 C 
ATOM     33  O   LIG    1        4.257   5.824  29.847  0.00  0.00    -0.272 OA
ENDBRANCH  26  27
ENDBRANCH  24  26
ENDBRANCH  23  24
ENDBRANCH  22  23
ENDBRANCH  15  22
TORSDOF 6
ENDMDL
MODEL 2
REMARK VINA RESULT:     -11.2      0.622      1.488
REMARK  Name = 
REMARK                            x       y       z     vdW  Elec       q    Type
REMARK                         _______ _______ _______ _____ _____    ______ ____
ROOT
ATOM      1  C   LIG    1        8.067   0.783  30.510  0.00  0.00    +0.045 C 
ATOM      2  C   LIG    1        8.831   1.641  29.531  0.00  0.00    -0.030 A 
ATOM      3  C   LIG    1       10.159   2.074  29.975  0.00  0.00    +0.022 A 
ATOM      4  C   LIG    1       10.623   1.733  31.249  0.00  0.00    +0.024 A 
ATOM      5  C   LIG    1       11.671   2.466  31.817  0.00  0.00    +0.029 A 
ATOM      6  C   LIG    1       12.135   2.653  33.152  0.00  0.00    +0.028 A 
ATOM      7  C   LIG    1       13.226   3.491  33.032  0.00  0.00    +0.204 A 
ATOM      8  O   LIG    1       13.398   3.890  31.734  0.00  0.00    -0.462 OA
ATOM      9  C   LIG    1       12.398   3.318  31.002  0.00  0.00    +0.139 A 
ATOM     10  C   LIG    1       12.082   3.565  29.663  0.00  0.00    +0.093 A 
ATOM     11  C   LIG    1       10.895   2.966  29.205  0.00  0.00    +0.143 A 
ATOM     12  O   LIG    1       10.411   3.338  27.933  0.00  0.00    -0.422 OA
ATOM     13  C   LIG    1        9.148   2.958  27.472  0.00  0.00    +0.341 A 
ATOM     14  O   LIG    1        8.742   3.326  26.376  0.00  0.00    -0.245 OA
ATOM     15  C   LIG    1        8.320   2.107  28.368  0.00  0.00    +0.041 A 
ENDROOT
BRANCH   6  16
ATOM     16  C   LIG    1       11.504   2.232  34.404  0.00  0.00    -0.014 A 
ATOM     17  C   LIG    1       10.238   1.644  34.447  0.00  0.00    +0.008 A 
ATOM     18  C   LIG    1        9.677   1.260  35.673  0.00  0.00    +0.001 A 
ATOM     19  C   LIG    1       10.366   1.467  36.869  0.00  0.00    +0.000 A 
ATOM     20  C   LIG    1       11.629   2.039  36.844  0.00  0.00    +0.001 A 
ATOM     21  C   LIG    1       12.198   2.397  35.620  0.00  0.00    +0.008 A 
ENDBRANCH   6  16
BRANCH  15  22
ATOM     22  C   LIG    1        6.873   1.793  28.034  0.00  0.00    +0.054 C 
BRANCH  22  23
ATOM     23  C   LIG    1        5.950   2.660  27.190  0.00  0.00    +0.128 C 
BRANCH  23  24
ATOM     24  C   LIG    1        5.457   3.926  27.893  0.00  0.00    +0.332 C 
ATOM     25  O   LIG    1        5.478   4.021  29.117  0.00  0.00    -0.249 OA
BRANCH  24  26
ATOM     26  O   LIG    1        5.185   5.008  27.102  0.00  0.00    -0.337 OA
BRANCH  26  27
ATOM     27  N   LIG    1        5.650   6.219  27.632  0.00  0.00    -0.064 N 
ATOM     28  C   LIG    1        4.786   7.004  28.325  0.00  0.00    +0.255 C 
ATOM     29  O   LIG    1        3.611   6.798  28.587  0.00  0.00    -0.272 OA
ATOM     30  C   LIG    1        5.561   8.209  28.769  0.00  0.00    +0.109 C 
ATOM     31  C   LIG    1        6.641   8.309  27.705  0.00  0.00    +0.109 C 
ATOM     32  C   LIG    1        6.582   6.977  26.994  0.00  0.00    +0.255 C 
ATOM     33  O   LIG    1        7.216   6.718  25.991  0.00  0.00    -0.272 OA
ENDBRANCH  26  27
ENDBRANCH  24  26
ENDBRANCH  23  24
ENDBRANCH  22  23
ENDBRANCH  15  22
TORSDOF 6
ENDMDL
MODEL 3
REMARK VINA RESULT:     -10.2      2.611      8.882
REMARK  Name = 
REMARK                            x       y       z     vdW  Elec       q    Type
REMARK                         _______ _______ _______ _____ _____    ______ ____
ROOT
ATOM      1  C   LIG    1       10.990   4.625  28.891  0.00  0.00    +0.045 C 
ATOM      2  C   LIG    1       10.415   3.241  29.072  0.00  0.00    -0.030 A 
ATOM      3  C   LIG    1        9.261   2.923  28.227  0.00  0.00    +0.022 A 
ATOM      4  C   LIG    1        8.731   3.886  27.363  0.00  0.00    +0.024 A 
ATOM      5  C   LIG    1        7.426   3.736  26.883  0.00  0.00    +0.029 A 
ATOM      6  C   LIG    1        6.467   4.633  26.327  0.00  0.00    +0.028 A 
ATOM      7  C   LIG    1        5.370   3.845  26.043  0.00  0.00    +0.204 A 
ATOM      8  O   LIG    1        5.566   2.559  26.467  0.00  0.00    -0.462 OA
ATOM      9  C   LIG    1        6.799   2.511  27.048  0.00  0.00    +0.139 A 
ATOM     10  C   LIG    1        7.359   1.444  27.758  0.00  0.00    +0.093 A 
ATOM     11  C   LIG    1        8.580   1.724  28.398  0.00  0.00    +0.143 A 
ATOM     12  O   LIG    1        9.095   0.764  29.296  0.00  0.00    -0.422 OA
ATOM     13  C   LIG    1       10.185   1.026  30.128  0.00  0.00    +0.341 A 
ATOM     14  O   LIG    1       10.588   0.184  30.922  0.00  0.00    -0.245 OA
ATOM     15  C   LIG    1       10.822   2.366  30.020  0.00  0.00    +0.041 A 
ENDROOT
BRANCH   6  16
ATOM     16  C   LIG    1        6.526   6.093  26.249  0.00  0.00    -0.014 A 
ATOM     17  C   LIG    1        6.987   6.767  25.116  0.00  0.00    +0.008 A 
ATOM     18  C   LIG    1        7.024   8.169  25.093  0.00  0.00    +0.001 A 
ATOM     19  C   LIG    1        6.612   8.913  26.199  0.00  0.00    +0.000 A 
ATOM     20  C   LIG    1        6.140   8.259  27.329  0.00  0.00    +0.001 A 
ATOM     21  C   LIG    1        6.078   6.865  27.341  0.00  0.00    +0.008 A 
ENDBRANCH   6  16
BRANCH  15  22
ATOM     22  C   LIG    1       11.893   2.807  31.002  0.00  0.00    +0.054 C 
BRANCH  22  23
ATOM     23  C   LIG    1       11.714   3.837  32.106  0.00  0.00    +0.128 C 
BRANCH  23  24
ATOM     24  C   LIG    1       12.590   3.600  33.338  0.00  0.00    +0.332 C 
ATOM     25  O   LIG    1       13.150   4.532  33.908  0.00  0.00    -0.249 OA
BRANCH  24  26
ATOM     26  O   LIG    1       12.560   2.347  33.887  0.00  0.00    -0.337 OA
BRANCH  26  27
ATOM     27  N   LIG    1       11.611   2.206  34.907  0.00  0.00    -0.064 N 
ATOM     28  C   LIG    1       12.036   1.894  36.158  0.00  0.00    +0.255 C 
ATOM     29  O   LIG    1       13.179   1.727  36.555  0.00  0.00    -0.272 OA
ATOM     30  C   LIG    1       10.812   1.821  37.022  0.00  0.00    +0.109 C 
ATOM     31  C   LIG    1        9.732   1.444  36.023  0.00  0.00    +0.109 C 
ATOM     32  C   LIG    1       10.374   1.690  34.677  0.00  0.00    +0.255 C 
ATOM     33  O   LIG    1        9.861   1.385  33.619  0.00  0.00    -0.272 OA
ENDBRANCH  26  27
ENDBRANCH  24  26
ENDBRANCH  23  24
ENDBRANCH  22  23
ENDBRANCH  15  22
TORSDOF 6
ENDMDL
MODEL 4
REMARK VINA RESULT:     -10.1      5.424      8.578
REMARK  Name = 
REMARK                            x       y       z     vdW  Elec       q    Type
REMARK                         _______ _______ _______ _____ _____    ______ ____
ROOT
ATOM      1  C   LIG    1       15.119   4.129  31.359  0.00  0.00    +0.045 C 
ATOM      2  C   LIG    1       14.634   3.490  30.080  0.00  0.00    -0.030 A 
ATOM      3  C   LIG    1       13.254   2.997  30.106  0.00  0.00    +0.022 A 
ATOM      4  C   LIG    1       12.495   3.086  31.277  0.00  0.00    +0.024 A 
ATOM      5  C   LIG    1       11.369   2.270  31.430  0.00  0.00    +0.029 A 
ATOM      6  C   LIG    1       10.613   1.829  32.555  0.00  0.00    +0.028 A 
ATOM      7  C   LIG    1        9.609   1.046  32.022  0.00  0.00    +0.204 A 
ATOM      8  O   LIG    1        9.757   0.914  30.667  0.00  0.00    -0.462 OA
ATOM      9  C   LIG    1       10.880   1.605  30.316  0.00  0.00    +0.139 A 
ATOM     10  C   LIG    1       11.507   1.622  29.067  0.00  0.00    +0.093 A 
ATOM     11  C   LIG    1       12.747   2.284  29.027  0.00  0.00    +0.143 A 
ATOM     12  O   LIG    1       13.526   2.164  27.856  0.00  0.00    -0.422 OA
ATOM     13  C   LIG    1       14.848   2.610  27.788  0.00  0.00    +0.341 A 
ATOM     14  O   LIG    1       15.511   2.460  26.768  0.00  0.00    -0.245 OA
ATOM     15  C   LIG    1       15.416   3.257  29.002  0.00  0.00    +0.041 A 
ENDROOT
BRANCH   6  16
ATOM     16  C   LIG    1       10.922   1.986  33.977  0.00  0.00    -0.014 A 
ATOM     17  C   LIG    1       12.070   2.637  34.430  0.00  0.00    +0.008 A 
ATOM     18  C   LIG    1       12.319   2.760  35.805  0.00  0.00    +0.001 A 
ATOM     19  C   LIG    1       11.434   2.225  36.741  0.00  0.00    +0.000 A 
ATOM     20  C   LIG    1       10.281   1.585  36.309  0.00  0.00    +0.001 A 
ATOM     21  C   LIG    1       10.021   1.487  34.941  0.00  0.00    +0.008 A 
ENDBRANCH   6  16
BRANCH  15  22
ATOM     22  C   LIG    1       16.891   3.610  29.084  0.00  0.00    +0.054 C 
BRANCH  22  23
ATOM     23  C   LIG    1       17.586   4.705  28.289  0.00  0.00    +0.128 C 
BRANCH  23  24
ATOM     24  C   LIG    1       18.261   4.219  27.005  0.00  0.00    +0.332 C 
ATOM     25  O   LIG    1       18.828   3.131  26.960  0.00  0.00    -0.249 OA
BRANCH  24  26
ATOM     26  O   LIG    1       18.035   4.949  25.871  0.00  0.00    -0.337 OA
BRANCH  26  27
ATOM     27  N   LIG    1       18.226   4.221  24.690  0.00  0.00    -0.064 N 
ATOM     28  C   LIG    1       19.394   4.368  24.013  0.00  0.00    +0.255 C 
ATOM     29  O   LIG    1       20.360   5.057  24.300  0.00  0.00    -0.272 OA
ATOM     30  C   LIG    1       19.312   3.470  22.814  0.00  0.00    +0.109 C 
ATOM     31  C   LIG    1       17.815   3.396  22.567  0.00  0.00    +0.109 C 
ATOM     32  C   LIG    1       17.206   3.952  23.833  0.00  0.00    +0.255 C 
ATOM     33  O   LIG    1       16.019   4.172  23.970  0.00  0.00    -0.272 OA
ENDBRANCH  26  27
ENDBRANCH  24  26
ENDBRANCH  23  24
ENDBRANCH  22  23
ENDBRANCH  15  22
TORSDOF 6
ENDMDL
MODEL 5
REMARK VINA RESULT:     -10.1      4.937      8.368
REMARK  Name = 
REMARK                            x       y       z     vdW  Elec       q    Type
REMARK                         _______ _______ _______ _____ _____    ______ ____
ROOT
ATOM      1  C   LIG    1       15.162   4.130  31.390  0.00  0.00    +0.045 C 
ATOM      2  C   LIG    1       14.675   3.511  30.101  0.00  0.00    -0.030 A 
ATOM      3  C   LIG    1       13.291   3.030  30.117  0.00  0.00    +0.022 A 
ATOM      4  C   LIG    1       12.528   3.111  31.286  0.00  0.00    +0.024 A 
ATOM      5  C   LIG    1       11.395   2.304  31.425  0.00  0.00    +0.029 A 
ATOM      6  C   LIG    1       10.631   1.856  32.543  0.00  0.00    +0.028 A 
ATOM      7  C   LIG    1        9.622   1.089  31.997  0.00  0.00    +0.204 A 
ATOM      8  O   LIG    1        9.773   0.971  30.641  0.00  0.00    -0.462 OA
ATOM      9  C   LIG    1       10.904   1.656  30.302  0.00  0.00    +0.139 A 
ATOM     10  C   LIG    1       11.535   1.684  29.056  0.00  0.00    +0.093 A 
ATOM     11  C   LIG    1       12.781   2.335  29.027  0.00  0.00    +0.143 A 
ATOM     12  O   LIG    1       13.563   2.222  27.858  0.00  0.00    -0.422 OA
ATOM     13  C   LIG    1       14.889   2.657  27.799  0.00  0.00    +0.341 A 
ATOM     14  O   LIG    1       15.554   2.514  26.780  0.00  0.00    -0.245 OA
ATOM     15  C   LIG    1       15.459   3.284  29.023  0.00  0.00    +0.041 A 
ENDROOT
BRANCH   6  16
ATOM     16  C   LIG    1       10.936   1.993  33.968  0.00  0.00    -0.014 A 
ATOM     17  C   LIG    1       12.076   2.651  34.433  0.00  0.00    +0.008 A 
ATOM     18  C   LIG    1       12.322   2.754  35.810  0.00  0.00    +0.001 A 
ATOM     19  C   LIG    1       11.443   2.192  36.736  0.00  0.00    +0.000 A 
ATOM     20  C   LIG    1       10.299   1.544  36.292  0.00  0.00    +0.001 A 
ATOM     21  C   LIG    1       10.041   1.467  34.922  0.00  0.00    +0.008 A 
ENDBRANCH   6  16
BRANCH  15  22
ATOM     22  C   LIG    1       16.936   3.624  29.114  0.00  0.00    +0.054 C 
BRANCH  22  23
ATOM     23  C   LIG    1       17.660   4.665  28.274  0.00  0.00    +0.128 C 
BRANCH  23  24
ATOM     24  C   LIG    1       17.621   6.080  28.854  0.00  0.00    +0.332 C 
ATOM     25  O   LIG    1       17.316   7.043  28.157  0.00  0.00    -0.249 OA
BRANCH  24  26
ATOM     26  O   LIG    1       17.743   6.197  30.212  0.00  0.00    -0.337 OA
BRANCH  26  27
ATOM     27  N   LIG    1       18.162   7.467  30.628  0.00  0.00    -0.064 N 
ATOM     28  C   LIG    1       19.476   7.663  30.910  0.00  0.00    +0.255 C 
ATOM     29  O   LIG    1       20.398   6.867  30.835  0.00  0.00    -0.272 OA
ATOM     30  C   LIG    1       19.618   9.100  31.314  0.00  0.00    +0.109 C 
ATOM     31  C   LIG    1       18.241   9.420  31.867  0.00  0.00    +0.109 C 
ATOM     32  C   LIG    1       17.380   8.269  31.399  0.00  0.00    +0.255 C 
ATOM     33  O   LIG    1       16.229   8.102  31.748  0.00  0.00    -0.272 OA
ENDBRANCH  26  27
ENDBRANCH  24  26
ENDBRANCH  23  24
ENDBRANCH  22  23
ENDBRANCH  15  22
TORSDOF 6
ENDMDL
MODEL 6
REMARK VINA RESULT:      -9.9      2.341      8.407
REMARK  Name = 
REMARK                            x       y       z     vdW  Elec       q    Type
REMARK                         _______ _______ _______ _____ _____    ______ ____
ROOT
ATOM      1  C   LIG    1       10.766   4.871  27.096  0.00  0.00    +0.045 C 
ATOM      2  C   LIG    1       10.097   3.625  27.624  0.00  0.00    -0.030 A 
ATOM      3  C   LIG    1        8.633   3.620  27.558  0.00  0.00    +0.022 A 
ATOM      4  C   LIG    1        7.944   4.737  27.079  0.00  0.00    +0.024 A 
ATOM      5  C   LIG    1        6.590   4.897  27.394  0.00  0.00    +0.029 A 
ATOM      6  C   LIG    1        5.704   6.014  27.408  0.00  0.00    +0.028 A 
ATOM      7  C   LIG    1        4.488   5.495  27.803  0.00  0.00    +0.204 A 
ATOM      8  O   LIG    1        4.598   4.166  28.111  0.00  0.00    -0.462 OA
ATOM      9  C   LIG    1        5.905   3.819  27.930  0.00  0.00    +0.139 A 
ATOM     10  C   LIG    1        6.514   2.607  28.268  0.00  0.00    +0.093 A 
ATOM     11  C   LIG    1        7.913   2.577  28.128  0.00  0.00    +0.143 A 
ATOM     12  O   LIG    1        8.609   1.462  28.644  0.00  0.00    -0.422 OA
ATOM     13  C   LIG    1       10.002   1.427  28.736  0.00  0.00    +0.341 A 
ATOM     14  O   LIG    1       10.576   0.459  29.221  0.00  0.00    -0.245 OA
ATOM     15  C   LIG    1       10.752   2.612  28.237  0.00  0.00    +0.041 A 
ENDROOT
BRANCH   6  16
ATOM     16  C   LIG    1        6.024   7.433  27.243  0.00  0.00    -0.014 A 
ATOM     17  C   LIG    1        5.913   8.355  28.285  0.00  0.00    +0.008 A 
ATOM     18  C   LIG    1        6.231   9.704  28.073  0.00  0.00    +0.001 A 
ATOM     19  C   LIG    1        6.652  10.151  26.820  0.00  0.00    +0.000 A 
ATOM     20  C   LIG    1        6.780   9.245  25.776  0.00  0.00    +0.001 A 
ATOM     21  C   LIG    1        6.489   7.898  25.995  0.00  0.00    +0.008 A 
ENDBRANCH   6  16
BRANCH  15  22
ATOM     22  C   LIG    1       12.248   2.742  28.457  0.00  0.00    +0.054 C 
BRANCH  22  23
ATOM     23  C   LIG    1       12.918   3.212  29.739  0.00  0.00    +0.128 C 
BRANCH  23  24
ATOM     24  C   LIG    1       11.994   3.240  30.959  0.00  0.00    +0.332 C 
ATOM     25  O   LIG    1       11.251   4.194  31.170  0.00  0.00    -0.249 OA
BRANCH  24  26
ATOM     26  O   LIG    1       11.889   2.084  31.683  0.00  0.00    -0.337 OA
BRANCH  26  27
ATOM     27  N   LIG    1       11.317   2.268  32.949  0.00  0.00    -0.064 N 
ATOM     28  C   LIG    1       12.137   2.466  34.013  0.00  0.00    +0.255 C 
ATOM     29  O   LIG    1       13.356   2.530  34.035  0.00  0.00    -0.272 OA
ATOM     30  C   LIG    1       11.250   2.636  35.211  0.00  0.00    +0.109 C 
ATOM     31  C   LIG    1       10.013   1.850  34.814  0.00  0.00    +0.109 C 
ATOM     32  C   LIG    1       10.182   1.625  33.329  0.00  0.00    +0.255 C 
ATOM     33  O   LIG    1        9.448   0.920  32.666  0.00  0.00    -0.272 OA
ENDBRANCH  26  27
ENDBRANCH  24  26
ENDBRANCH  23  24
ENDBRANCH  22  23
ENDBRANCH  15  22
TORSDOF 6
ENDMDL
MODEL 7
REMARK VINA RESULT:      -9.3      6.558     10.255
REMARK  Name = 
REMARK                            x       y       z     vdW  Elec       q    Type
REMARK                         _______ _______ _______ _____ _____    ______ ____
ROOT
ATOM      1  C   LIG    1       14.984   2.352  26.228  0.00  0.00    +0.045 C 
ATOM      2  C   LIG    1       15.609   3.162  27.338  0.00  0.00    -0.030 A 
ATOM      3  C   LIG    1       16.739   4.007  26.942  0.00  0.00    +0.022 A 
ATOM      4  C   LIG    1       17.205   3.991  25.624  0.00  0.00    +0.024 A 
ATOM      5  C   LIG    1       18.494   4.455  25.345  0.00  0.00    +0.029 A 
ATOM      6  C   LIG    1       19.402   4.261  24.263  0.00  0.00    +0.028 A 
ATOM      7  C   LIG    1       20.512   5.011  24.594  0.00  0.00    +0.204 A 
ATOM      8  O   LIG    1       20.373   5.572  25.834  0.00  0.00    -0.462 OA
ATOM      9  C   LIG    1       19.165   5.169  26.325  0.00  0.00    +0.139 A 
ATOM     10  C   LIG    1       18.667   5.368  27.615  0.00  0.00    +0.093 A 
ATOM     11  C   LIG    1       17.463   4.699  27.904  0.00  0.00    +0.143 A 
ATOM     12  O   LIG    1       17.014   4.689  29.243  0.00  0.00    -0.422 OA
ATOM     13  C   LIG    1       15.949   3.892  29.668  0.00  0.00    +0.341 A 
ATOM     14  O   LIG    1       15.604   3.879  30.843  0.00  0.00    -0.245 OA
ATOM     15  C   LIG    1       15.266   3.057  28.643  0.00  0.00    +0.041 A 
ENDROOT
BRANCH   6  16
ATOM     16  C   LIG    1       19.295   3.327  23.141  0.00  0.00    -0.014 A 
ATOM     17  C   LIG    1       19.517   3.713  21.817  0.00  0.00    +0.008 A 
ATOM     18  C   LIG    1       19.400   2.778  20.778  0.00  0.00    +0.001 A 
ATOM     19  C   LIG    1       19.049   1.454  21.045  0.00  0.00    +0.000 A 
ATOM     20  C   LIG    1       18.837   1.050  22.355  0.00  0.00    +0.001 A 
ATOM     21  C   LIG    1       18.980   1.975  23.391  0.00  0.00    +0.008 A 
ENDBRANCH   6  16
BRANCH  15  22
ATOM     22  C   LIG    1       14.220   2.030  29.038  0.00  0.00    +0.054 C 
BRANCH  22  23
ATOM     23  C   LIG    1       12.715   2.246  29.022  0.00  0.00    +0.128 C 
BRANCH  23  24
ATOM     24  C   LIG    1       12.196   3.150  30.142  0.00  0.00    +0.332 C 
ATOM     25  O   LIG    1       11.260   3.921  29.953  0.00  0.00    -0.249 OA
BRANCH  24  26
ATOM     26  O   LIG    1       12.682   2.918  31.400  0.00  0.00    -0.337 OA
BRANCH  26  27
ATOM     27  N   LIG    1       11.681   2.698  32.354  0.00  0.00    -0.064 N 
ATOM     28  C   LIG    1       11.826   3.238  33.592  0.00  0.00    +0.255 C 
ATOM     29  O   LIG    1       12.733   3.937  34.016  0.00  0.00    -0.272 OA
ATOM     30  C   LIG    1       10.611   2.844  34.378  0.00  0.00    +0.109 C 
ATOM     31  C   LIG    1       10.197   1.546  33.707  0.00  0.00    +0.109 C 
ATOM     32  C   LIG    1       10.987   1.530  32.419  0.00  0.00    +0.255 C 
ATOM     33  O   LIG    1       11.020   0.583  31.659  0.00  0.00    -0.272 OA
ENDBRANCH  26  27
ENDBRANCH  24  26
ENDBRANCH  23  24
ENDBRANCH  22  23
ENDBRANCH  15  22
TORSDOF 6
ENDMDL
MODEL 8
REMARK VINA RESULT:      -9.3      5.943      9.652
REMARK  Name = 
REMARK                            x       y       z     vdW  Elec       q    Type
REMARK                         _______ _______ _______ _____ _____    ______ ____
ROOT
ATOM      1  C   LIG    1       15.739   2.774  27.920  0.00  0.00    +0.045 C 
ATOM      2  C   LIG    1       16.108   3.716  29.042  0.00  0.00    -0.030 A 
ATOM      3  C   LIG    1       15.223   3.683  30.209  0.00  0.00    +0.022 A 
ATOM      4  C   LIG    1       14.095   2.857  30.217  0.00  0.00    +0.024 A 
ATOM      5  C   LIG    1       13.055   3.121  31.115  0.00  0.00    +0.029 A 
ATOM      6  C   LIG    1       11.677   2.762  31.164  0.00  0.00    +0.028 A 
ATOM      7  C   LIG    1       11.204   3.336  32.327  0.00  0.00    +0.204 A 
ATOM      8  O   LIG    1       12.175   4.085  32.935  0.00  0.00    -0.462 OA
ATOM      9  C   LIG    1       13.289   4.012  32.151  0.00  0.00    +0.139 A 
ATOM     10  C   LIG    1       14.473   4.740  32.293  0.00  0.00    +0.093 A 
ATOM     11  C   LIG    1       15.398   4.593  31.243  0.00  0.00    +0.143 A 
ATOM     12  O   LIG    1       16.518   5.452  31.220  0.00  0.00    -0.422 OA
ATOM     13  C   LIG    1       17.383   5.524  30.126  0.00  0.00    +0.341 A 
ATOM     14  O   LIG    1       18.327   6.306  30.121  0.00  0.00    -0.245 OA
ATOM     15  C   LIG    1       17.102   4.630  28.970  0.00  0.00    +0.041 A 
ENDROOT
BRANCH   6  16
ATOM     16  C   LIG    1       10.869   2.107  30.134  0.00  0.00    -0.014 A 
ATOM     17  C   LIG    1       11.008   2.392  28.775  0.00  0.00    +0.008 A 
ATOM     18  C   LIG    1       10.207   1.737  27.828  0.00  0.00    +0.001 A 
ATOM     19  C   LIG    1        9.253   0.800  28.226  0.00  0.00    +0.000 A 
ATOM     20  C   LIG    1        9.110   0.495  29.572  0.00  0.00    +0.001 A 
ATOM     21  C   LIG    1        9.925   1.128  30.511  0.00  0.00    +0.008 A 
ENDBRANCH   6  16
BRANCH  15  22
ATOM     22  C   LIG    1       17.874   4.763  27.670  0.00  0.00    +0.054 C 
BRANCH  22  23
ATOM     23  C   LIG    1       17.882   5.986  26.765  0.00  0.00    +0.128 C 
BRANCH  23  24
ATOM     24  C   LIG    1       18.915   5.928  25.637  0.00  0.00    +0.332 C 
ATOM     25  O   LIG    1       20.119   5.911  25.880  0.00  0.00    -0.249 OA
BRANCH  24  26
ATOM     26  O   LIG    1       18.442   5.696  24.375  0.00  0.00    -0.337 OA
BRANCH  26  27
ATOM     27  N   LIG    1       18.363   4.336  24.049  0.00  0.00    -0.064 N 
ATOM     28  C   LIG    1       19.268   3.818  23.179  0.00  0.00    +0.255 C 
ATOM     29  O   LIG    1       20.199   4.380  22.624  0.00  0.00    -0.272 OA
ATOM     30  C   LIG    1       18.941   2.362  23.035  0.00  0.00    +0.109 C 
ATOM     31  C   LIG    1       17.452   2.333  23.331  0.00  0.00    +0.109 C 
ATOM     32  C   LIG    1       17.174   3.684  23.949  0.00  0.00    +0.255 C 
ATOM     33  O   LIG    1       16.059   4.090  24.210  0.00  0.00    -0.272 OA
ENDBRANCH  26  27
ENDBRANCH  24  26
ENDBRANCH  23  24
ENDBRANCH  22  23
ENDBRANCH  15  22
TORSDOF 6
ENDMDL
MODEL 9
REMARK VINA RESULT:      -9.0      9.971     12.370
REMARK  Name = 
REMARK                            x       y       z     vdW  Elec       q    Type
REMARK                         _______ _______ _______ _____ _____    ______ ____
ROOT
ATOM      1  C   LIG    1       18.053   6.746  30.868  0.00  0.00    +0.045 C 
ATOM      2  C   LIG    1       19.147   6.967  29.850  0.00  0.00    -0.030 A 
ATOM      3  C   LIG    1       20.316   7.706  30.333  0.00  0.00    +0.022 A 
ATOM      4  C   LIG    1       20.350   8.200  31.640  0.00  0.00    +0.024 A 
ATOM      5  C   LIG    1       21.242   9.227  31.965  0.00  0.00    +0.029 A 
ATOM      6  C   LIG    1       21.305  10.186  33.017  0.00  0.00    +0.028 A 
ATOM      7  C   LIG    1       22.452  10.911  32.767  0.00  0.00    +0.204 A 
ATOM      8  O   LIG    1       23.037  10.516  31.594  0.00  0.00    -0.462 OA
ATOM      9  C   LIG    1       22.252   9.532  31.066  0.00  0.00    +0.139 A 
ATOM     10  C   LIG    1       22.371   8.940  29.806  0.00  0.00    +0.093 A 
ATOM     11  C   LIG    1       21.324   8.070  29.449  0.00  0.00    +0.143 A 
ATOM     12  O   LIG    1       21.275   7.601  28.119  0.00  0.00    -0.422 OA
ATOM     13  C   LIG    1       20.177   6.902  27.613  0.00  0.00    +0.341 A 
ATOM     14  O   LIG    1       20.148   6.537  26.443  0.00  0.00    -0.245 OA
ATOM     15  C   LIG    1       19.047   6.633  28.543  0.00  0.00    +0.041 A 
ENDROOT
BRANCH   6  16
ATOM     16  C   LIG    1       20.296  10.491  34.033  0.00  0.00    -0.014 A 
ATOM     17  C   LIG    1       18.983  10.838  33.708  0.00  0.00    +0.008 A 
ATOM     18  C   LIG    1       18.055  11.122  34.720  0.00  0.00    +0.001 A 
ATOM     19  C   LIG    1       18.426  11.075  36.064  0.00  0.00    +0.000 A 
ATOM     20  C   LIG    1       19.724  10.720  36.405  0.00  0.00    +0.001 A 
ATOM     21  C   LIG    1       20.639  10.411  35.399  0.00  0.00    +0.008 A 
ENDBRANCH   6  16
BRANCH  15  22
ATOM     22  C   LIG    1       17.742   6.041  28.042  0.00  0.00    +0.054 C 
BRANCH  22  23
ATOM     23  C   LIG    1       17.456   4.559  27.851  0.00  0.00    +0.128 C 
BRANCH  23  24
ATOM     24  C   LIG    1       17.999   3.976  26.545  0.00  0.00    +0.332 C 
ATOM     25  O   LIG    1       18.979   3.237  26.539  0.00  0.00    -0.249 OA
BRANCH  24  26
ATOM     26  O   LIG    1       17.234   4.150  25.424  0.00  0.00    -0.337 OA
BRANCH  26  27
ATOM     27  N   LIG    1       17.911   3.855  24.234  0.00  0.00    -0.064 N 
ATOM     28  C   LIG    1       18.449   4.876  23.518  0.00  0.00    +0.255 C 
ATOM     29  O   LIG    1       18.450   6.070  23.774  0.00  0.00    -0.272 OA
ATOM     30  C   LIG    1       19.106   4.259  22.319  0.00  0.00    +0.109 C 
ATOM     31  C   LIG    1       18.297   2.989  22.123  0.00  0.00    +0.109 C 
ATOM     32  C   LIG    1       17.521   2.845  23.412  0.00  0.00    +0.255 C 
ATOM     33  O   LIG    1       16.660   2.007  23.591  0.00  0.00    -0.272 OA
ENDBRANCH  26  27
ENDBRANCH  24  26
ENDBRANCH  23  24
ENDBRANCH  22  23
ENDBRANCH  15  22
TORSDOF 6
ENDMDL
