MODEL 1
REMARK VINA RESULT:      -2.8      0.000      0.000
REMARK  Name = 
REMARK                            x       y       z     vdW  Elec       q    Type
REMARK                         _______ _______ _______ _____ _____    ______ ____
ROOT
ATOM      1  C   LIG    1       19.458   3.617  50.043  0.00  0.00    +0.045 C 
ATOM      2  C   LIG    1       20.181   3.917  51.335  0.00  0.00    -0.030 A 
ATOM      3  C   LIG    1       19.742   3.140  52.497  0.00  0.00    +0.022 A 
ATOM      4  C   LIG    1       18.686   2.231  52.382  0.00  0.00    +0.024 A 
ATOM      5  C   LIG    1       18.010   1.813  53.533  0.00  0.00    +0.029 A 
ATOM      6  C   LIG    1       16.730   1.232  53.771  0.00  0.00    +0.028 A 
ATOM      7  C   LIG    1       16.676   1.046  55.138  0.00  0.00    +0.204 A 
ATOM      8  O   LIG    1       17.792   1.551  55.747  0.00  0.00    -0.462 OA
ATOM      9  C   LIG    1       18.576   2.088  54.767  0.00  0.00    +0.139 A 
ATOM     10  C   LIG    1       19.737   2.849  54.934  0.00  0.00    +0.093 A 
ATOM     11  C   LIG    1       20.254   3.422  53.758  0.00  0.00    +0.143 A 
ATOM     12  O   LIG    1       21.297   4.365  53.881  0.00  0.00    -0.422 OA
ATOM     13  C   LIG    1       21.741   5.134  52.804  0.00  0.00    +0.341 A 
ATOM     14  O   LIG    1       22.625   5.970  52.949  0.00  0.00    -0.245 OA
ATOM     15  C   LIG    1       21.089   4.908  51.485  0.00  0.00    +0.041 A 
ENDROOT
BRANCH   6  16
ATOM     16  C   LIG    1       15.624   1.048  52.831  0.00  0.00    -0.014 A 
ATOM     17  C   LIG    1       14.866   2.114  52.343  0.00  0.00    +0.008 A 
ATOM     18  C   LIG    1       13.815   1.883  51.444  0.00  0.00    +0.001 A 
ATOM     19  C   LIG    1       13.501   0.588  51.030  0.00  0.00    +0.000 A 
ATOM     20  C   LIG    1       14.252  -0.483  51.495  0.00  0.00    +0.001 A 
ATOM     21  C   LIG    1       15.315  -0.249  52.369  0.00  0.00    +0.008 A 
ENDBRANCH   6  16
BRANCH  15  22
ATOM     22  C   LIG    1       21.376   5.815  50.302  0.00  0.00    +0.054 C 
BRANCH  22  23
ATOM     23  C   LIG    1       20.605   7.076  49.944  0.00  0.00    +0.128 C 
BRANCH  23  24
ATOM     24  C   LIG    1       20.319   7.998  51.131  0.00  0.00    +0.332 C 
ATOM     25  O   LIG    1       21.214   8.658  51.652  0.00  0.00    -0.249 OA
BRANCH  24  26
ATOM     26  O   LIG    1       19.005   8.205  51.453  0.00  0.00    -0.337 OA
BRANCH  26  27
ATOM     27  N   LIG    1       18.353   7.052  51.907  0.00  0.00    -0.064 N 
ATOM     28  C   LIG    1       17.227   6.642  51.266  0.00  0.00    +0.255 C 
ATOM     29  O   LIG    1       16.679   7.139  50.295  0.00  0.00    -0.272 OA
ATOM     30  C   LIG    1       16.767   5.396  51.962  0.00  0.00    +0.109 C 
ATOM     31  C   LIG    1       17.312   5.588  53.366  0.00  0.00    +0.109 C 
ATOM     32  C   LIG    1       18.303   6.720  53.224  0.00  0.00    +0.255 C 
ATOM     33  O   LIG    1       18.861   7.250  54.164  0.00  0.00    -0.272 OA
ENDBRANCH  26  27
ENDBRANCH  24  26
ENDBRANCH  23  24
ENDBRANCH  22  23
ENDBRANCH  15  22
TORSDOF 6
ENDMDL
MODEL 2
REMARK VINA RESULT:      -2.2      2.196      3.889
REMARK  Name = 
REMARK                            x       y       z     vdW  Elec       q    Type
REMARK                         _______ _______ _______ _____ _____    ______ ____
ROOT
ATOM      1  C   LIG    1       19.684   4.394  54.055  0.00  0.00    +0.045 C 
ATOM      2  C   LIG    1       19.301   5.854  54.092  0.00  0.00    -0.030 A 
ATOM      3  C   LIG    1       17.863   6.126  54.168  0.00  0.00    +0.022 A 
ATOM      4  C   LIG    1       16.943   5.074  54.152  0.00  0.00    +0.024 A 
ATOM      5  C   LIG    1       15.611   5.330  53.813  0.00  0.00    +0.029 A 
ATOM      6  C   LIG    1       14.535   4.518  53.349  0.00  0.00    +0.028 A 
ATOM      7  C   LIG    1       13.470   5.385  53.214  0.00  0.00    +0.204 A 
ATOM      8  O   LIG    1       13.849   6.673  53.479  0.00  0.00    -0.462 OA
ATOM      9  C   LIG    1       15.181   6.647  53.774  0.00  0.00    +0.139 A 
ATOM     10  C   LIG    1       16.029   7.743  53.957  0.00  0.00    +0.093 A 
ATOM     11  C   LIG    1       17.395   7.431  54.084  0.00  0.00    +0.143 A 
ATOM     12  O   LIG    1       18.324   8.495  54.065  0.00  0.00    -0.422 OA
ATOM     13  C   LIG    1       19.702   8.283  53.982  0.00  0.00    +0.341 A 
ATOM     14  O   LIG    1       20.481   9.227  53.932  0.00  0.00    -0.245 OA
ATOM     15  C   LIG    1       20.177   6.874  53.943  0.00  0.00    +0.041 A 
ENDROOT
BRANCH   6  16
ATOM     16  C   LIG    1       14.571   3.121  52.914  0.00  0.00    -0.014 A 
ATOM     17  C   LIG    1       15.579   2.615  52.093  0.00  0.00    +0.008 A 
ATOM     18  C   LIG    1       15.566   1.268  51.703  0.00  0.00    +0.001 A 
ATOM     19  C   LIG    1       14.543   0.414  52.118  0.00  0.00    +0.000 A 
ATOM     20  C   LIG    1       13.539   0.898  52.944  0.00  0.00    +0.001 A 
ATOM     21  C   LIG    1       13.568   2.232  53.353  0.00  0.00    +0.008 A 
ENDBRANCH   6  16
BRANCH  15  22
ATOM     22  C   LIG    1       21.635   6.545  53.675  0.00  0.00    +0.054 C 
BRANCH  22  23
ATOM     23  C   LIG    1       22.341   6.678  52.334  0.00  0.00    +0.128 C 
BRANCH  23  24
ATOM     24  C   LIG    1       22.054   5.538  51.355  0.00  0.00    +0.332 C 
ATOM     25  O   LIG    1       22.336   4.376  51.634  0.00  0.00    -0.249 OA
BRANCH  24  26
ATOM     26  O   LIG    1       21.297   5.842  50.256  0.00  0.00    -0.337 OA
BRANCH  26  27
ATOM     27  N   LIG    1       19.926   5.933  50.530  0.00  0.00    -0.064 N 
ATOM     28  C   LIG    1       19.145   4.842  50.325  0.00  0.00    +0.255 C 
ATOM     29  O   LIG    1       19.472   3.731  49.938  0.00  0.00    -0.272 OA
ATOM     30  C   LIG    1       17.749   5.236  50.708  0.00  0.00    +0.109 C 
ATOM     31  C   LIG    1       17.756   6.735  50.463  0.00  0.00    +0.109 C 
ATOM     32  C   LIG    1       19.221   7.076  50.317  0.00  0.00    +0.255 C 
ATOM     33  O   LIG    1       19.629   8.171  49.986  0.00  0.00    -0.272 OA
ENDBRANCH  26  27
ENDBRANCH  24  26
ENDBRANCH  23  24
ENDBRANCH  22  23
ENDBRANCH  15  22
TORSDOF 6
ENDMDL
MODEL 3
REMARK VINA RESULT:      -2.1      2.534      6.462
REMARK  Name = 
REMARK                            x       y       z     vdW  Elec       q    Type
REMARK                         _______ _______ _______ _____ _____    ______ ____
ROOT
ATOM      1  C   LIG    1       17.866   2.691  51.696  0.00  0.00    +0.045 C 
ATOM      2  C   LIG    1       17.939   4.191  51.543  0.00  0.00    -0.030 A 
ATOM      3  C   LIG    1       19.211   4.711  51.034  0.00  0.00    +0.022 A 
ATOM      4  C   LIG    1       20.275   3.842  50.771  0.00  0.00    +0.024 A 
ATOM      5  C   LIG    1       21.575   4.352  50.690  0.00  0.00    +0.029 A 
ATOM      6  C   LIG    1       22.872   3.773  50.807  0.00  0.00    +0.028 A 
ATOM      7  C   LIG    1       23.747   4.823  50.611  0.00  0.00    +0.204 A 
ATOM      8  O   LIG    1       23.071   6.005  50.473  0.00  0.00    -0.462 OA
ATOM      9  C   LIG    1       21.741   5.724  50.595  0.00  0.00    +0.139 A 
ATOM     10  C   LIG    1       20.687   6.639  50.677  0.00  0.00    +0.093 A 
ATOM     11  C   LIG    1       19.429   6.081  50.971  0.00  0.00    +0.143 A 
ATOM     12  O   LIG    1       18.367   6.961  51.269  0.00  0.00    -0.422 OA
ATOM     13  C   LIG    1       17.141   6.512  51.766  0.00  0.00    +0.341 A 
ATOM     14  O   LIG    1       16.249   7.303  52.049  0.00  0.00    -0.245 OA
ATOM     15  C   LIG    1       16.972   5.045  51.950  0.00  0.00    +0.041 A 
ENDROOT
BRANCH   6  16
ATOM     16  C   LIG    1       23.231   2.419  51.234  0.00  0.00    -0.014 A 
ATOM     17  C   LIG    1       23.942   1.537  50.419  0.00  0.00    +0.008 A 
ATOM     18  C   LIG    1       24.259   0.250  50.877  0.00  0.00    +0.001 A 
ATOM     19  C   LIG    1       23.862  -0.175  52.145  0.00  0.00    +0.000 A 
ATOM     20  C   LIG    1       23.164   0.693  52.973  0.00  0.00    +0.001 A 
ATOM     21  C   LIG    1       22.873   1.983  52.527  0.00  0.00    +0.008 A 
ENDBRANCH   6  16
BRANCH  15  22
ATOM     22  C   LIG    1       15.749   4.478  52.648  0.00  0.00    +0.054 C 
BRANCH  22  23
ATOM     23  C   LIG    1       15.467   4.552  54.141  0.00  0.00    +0.128 C 
BRANCH  23  24
ATOM     24  C   LIG    1       16.279   3.567  54.985  0.00  0.00    +0.332 C 
ATOM     25  O   LIG    1       16.196   2.356  54.802  0.00  0.00    -0.249 OA
BRANCH  24  26
ATOM     26  O   LIG    1       17.238   4.097  55.804  0.00  0.00    -0.337 OA
BRANCH  26  27
ATOM     27  N   LIG    1       18.436   4.394  55.142  0.00  0.00    -0.064 N 
ATOM     28  C   LIG    1       19.489   3.549  55.284  0.00  0.00    +0.255 C 
ATOM     29  O   LIG    1       19.549   2.507  55.918  0.00  0.00    -0.272 OA
ATOM     30  C   LIG    1       20.610   4.116  54.465  0.00  0.00    +0.109 C 
ATOM     31  C   LIG    1       20.291   5.601  54.464  0.00  0.00    +0.109 C 
ATOM     32  C   LIG    1       18.867   5.671  54.964  0.00  0.00    +0.255 C 
ATOM     33  O   LIG    1       18.293   6.711  55.221  0.00  0.00    -0.272 OA
ENDBRANCH  26  27
ENDBRANCH  24  26
ENDBRANCH  23  24
ENDBRANCH  22  23
ENDBRANCH  15  22
TORSDOF 6
ENDMDL
MODEL 4
REMARK VINA RESULT:      -2.1      2.831      6.817
REMARK  Name = 
REMARK                            x       y       z     vdW  Elec       q    Type
REMARK                         _______ _______ _______ _____ _____    ______ ____
ROOT
ATOM      1  C   LIG    1       16.750   4.374  55.938  0.00  0.00    +0.045 C 
ATOM      2  C   LIG    1       17.477   3.057  55.808  0.00  0.00    -0.030 A 
ATOM      3  C   LIG    1       18.580   3.039  54.843  0.00  0.00    +0.022 A 
ATOM      4  C   LIG    1       18.868   4.174  54.079  0.00  0.00    +0.024 A 
ATOM      5  C   LIG    1       19.615   4.041  52.904  0.00  0.00    +0.029 A 
ATOM      6  C   LIG    1       19.780   4.848  51.741  0.00  0.00    +0.028 A 
ATOM      7  C   LIG    1       20.670   4.150  50.950  0.00  0.00    +0.204 A 
ATOM      8  O   LIG    1       20.985   2.943  51.512  0.00  0.00    -0.462 OA
ATOM      9  C   LIG    1       20.279   2.845  52.676  0.00  0.00    +0.139 A 
ATOM     10  C   LIG    1       20.165   1.726  53.506  0.00  0.00    +0.093 A 
ATOM     11  C   LIG    1       19.235   1.849  54.555  0.00  0.00    +0.143 A 
ATOM     12  O   LIG    1       18.921   0.692  55.301  0.00  0.00    -0.422 OA
ATOM     13  C   LIG    1       17.873   0.660  56.224  0.00  0.00    +0.341 A 
ATOM     14  O   LIG    1       17.601  -0.369  56.832  0.00  0.00    -0.245 OA
ATOM     15  C   LIG    1       17.097   1.914  56.424  0.00  0.00    +0.041 A 
ENDROOT
BRANCH   6  16
ATOM     16  C   LIG    1       19.038   6.048  51.352  0.00  0.00    -0.014 A 
ATOM     17  C   LIG    1       19.482   7.337  51.652  0.00  0.00    +0.008 A 
ATOM     18  C   LIG    1       18.732   8.454  51.258  0.00  0.00    +0.001 A 
ATOM     19  C   LIG    1       17.527   8.299  50.572  0.00  0.00    +0.000 A 
ATOM     20  C   LIG    1       17.076   7.026  50.255  0.00  0.00    +0.001 A 
ATOM     21  C   LIG    1       17.837   5.915  50.624  0.00  0.00    +0.008 A 
ENDBRANCH   6  16
BRANCH  15  22
ATOM     22  C   LIG    1       15.834   1.929  57.267  0.00  0.00    +0.054 C 
BRANCH  22  23
ATOM     23  C   LIG    1       14.416   1.762  56.743  0.00  0.00    +0.128 C 
BRANCH  23  24
ATOM     24  C   LIG    1       14.253   0.642  55.713  0.00  0.00    +0.332 C 
ATOM     25  O   LIG    1       14.314  -0.538  56.045  0.00  0.00    -0.249 OA
BRANCH  24  26
ATOM     26  O   LIG    1       13.842   1.008  54.460  0.00  0.00    -0.337 OA
BRANCH  26  27
ATOM     27  N   LIG    1       14.824   1.683  53.725  0.00  0.00    -0.064 N 
ATOM     28  C   LIG    1       14.504   2.862  53.133  0.00  0.00    +0.255 C 
ATOM     29  O   LIG    1       13.442   3.464  53.160  0.00  0.00    -0.272 OA
ATOM     30  C   LIG    1       15.741   3.343  52.435  0.00  0.00    +0.109 C 
ATOM     31  C   LIG    1       16.474   2.046  52.142  0.00  0.00    +0.109 C 
ATOM     32  C   LIG    1       15.766   1.022  53.000  0.00  0.00    +0.255 C 
ATOM     33  O   LIG    1       15.987  -0.171  52.947  0.00  0.00    -0.272 OA
ENDBRANCH  26  27
ENDBRANCH  24  26
ENDBRANCH  23  24
ENDBRANCH  22  23
ENDBRANCH  15  22
TORSDOF 6
ENDMDL
MODEL 5
REMARK VINA RESULT:      -2.0      2.479      7.092
REMARK  Name = 
REMARK                            x       y       z     vdW  Elec       q    Type
REMARK                         _______ _______ _______ _____ _____    ______ ____
ROOT
ATOM      1  C   LIG    1       18.725   1.183  53.697  0.00  0.00    +0.045 C 
ATOM      2  C   LIG    1       17.728   2.208  53.212  0.00  0.00    -0.030 A 
ATOM      3  C   LIG    1       18.213   3.112  52.166  0.00  0.00    +0.022 A 
ATOM      4  C   LIG    1       19.534   3.027  51.715  0.00  0.00    +0.024 A 
ATOM      5  C   LIG    1       20.104   4.115  51.046  0.00  0.00    +0.029 A 
ATOM      6  C   LIG    1       21.444   4.524  50.788  0.00  0.00    +0.028 A 
ATOM      7  C   LIG    1       21.324   5.691  50.061  0.00  0.00    +0.204 A 
ATOM      8  O   LIG    1       20.011   6.060  49.938  0.00  0.00    -0.462 OA
ATOM      9  C   LIG    1       19.269   5.130  50.606  0.00  0.00    +0.139 A 
ATOM     10  C   LIG    1       17.899   5.179  50.880  0.00  0.00    +0.093 A 
ATOM     11  C   LIG    1       17.421   4.169  51.736  0.00  0.00    +0.143 A 
ATOM     12  O   LIG    1       16.098   4.278  52.216  0.00  0.00    -0.422 OA
ATOM     13  C   LIG    1       15.597   3.445  53.219  0.00  0.00    +0.341 A 
ATOM     14  O   LIG    1       14.455   3.586  53.641  0.00  0.00    -0.245 OA
ATOM     15  C   LIG    1       16.506   2.399  53.760  0.00  0.00    +0.041 A 
ENDROOT
BRANCH   6  16
ATOM     16  C   LIG    1       22.686   3.968  51.327  0.00  0.00    -0.014 A 
ATOM     17  C   LIG    1       23.122   2.675  51.031  0.00  0.00    +0.008 A 
ATOM     18  C   LIG    1       24.319   2.189  51.575  0.00  0.00    +0.001 A 
ATOM     19  C   LIG    1       25.089   2.981  52.427  0.00  0.00    +0.000 A 
ATOM     20  C   LIG    1       24.678   4.273  52.722  0.00  0.00    +0.001 A 
ATOM     21  C   LIG    1       23.500   4.765  52.159  0.00  0.00    +0.008 A 
ENDBRANCH   6  16
BRANCH  15  22
ATOM     22  C   LIG    1       16.115   1.568  54.969  0.00  0.00    +0.054 C 
BRANCH  22  23
ATOM     23  C   LIG    1       16.117   2.048  56.413  0.00  0.00    +0.128 C 
BRANCH  23  24
ATOM     24  C   LIG    1       17.499   2.057  57.071  0.00  0.00    +0.332 C 
ATOM     25  O   LIG    1       18.154   1.025  57.185  0.00  0.00    -0.249 OA
BRANCH  24  26
ATOM     26  O   LIG    1       18.048   3.281  57.341  0.00  0.00    -0.337 OA
BRANCH  26  27
ATOM     27  N   LIG    1       18.748   3.830  56.259  0.00  0.00    -0.064 N 
ATOM     28  C   LIG    1       20.105   3.793  56.272  0.00  0.00    +0.255 C 
ATOM     29  O   LIG    1       20.847   3.314  57.115  0.00  0.00    -0.272 OA
ATOM     30  C   LIG    1       20.564   4.439  54.998  0.00  0.00    +0.109 C 
ATOM     31  C   LIG    1       19.421   5.387  54.685  0.00  0.00    +0.109 C 
ATOM     32  C   LIG    1       18.304   4.929  55.594  0.00  0.00    +0.255 C 
ATOM     33  O   LIG    1       17.253   5.525  55.724  0.00  0.00    -0.272 OA
ENDBRANCH  26  27
ENDBRANCH  24  26
ENDBRANCH  23  24
ENDBRANCH  22  23
ENDBRANCH  15  22
TORSDOF 6
ENDMDL
MODEL 6
REMARK VINA RESULT:      -1.9      2.727      6.859
REMARK  Name = 
REMARK                            x       y       z     vdW  Elec       q    Type
REMARK                         _______ _______ _______ _____ _____    ______ ____
ROOT
ATOM      1  C   LIG    1       19.531   5.100  54.551  0.00  0.00    +0.045 C 
ATOM      2  C   LIG    1       19.423   3.625  54.243  0.00  0.00    -0.030 A 
ATOM      3  C   LIG    1       20.695   2.902  54.169  0.00  0.00    +0.022 A 
ATOM      4  C   LIG    1       21.906   3.584  54.329  0.00  0.00    +0.024 A 
ATOM      5  C   LIG    1       23.089   3.003  53.860  0.00  0.00    +0.029 A 
ATOM      6  C   LIG    1       24.375   3.516  53.522  0.00  0.00    +0.028 A 
ATOM      7  C   LIG    1       25.105   2.411  53.134  0.00  0.00    +0.204 A 
ATOM      8  O   LIG    1       24.328   1.285  53.132  0.00  0.00    -0.462 OA
ATOM      9  C   LIG    1       23.071   1.663  53.507  0.00  0.00    +0.139 A 
ATOM     10  C   LIG    1       21.913   0.881  53.496  0.00  0.00    +0.093 A 
ATOM     11  C   LIG    1       20.719   1.571  53.772  0.00  0.00    +0.143 A 
ATOM     12  O   LIG    1       19.498   0.890  53.576  0.00  0.00    -0.422 OA
ATOM     13  C   LIG    1       18.263   1.540  53.627  0.00  0.00    +0.341 A 
ATOM     14  O   LIG    1       17.221   0.929  53.418  0.00  0.00    -0.245 OA
ATOM     15  C   LIG    1       18.267   2.998  53.927  0.00  0.00    +0.041 A 
ENDROOT
BRANCH   6  16
ATOM     16  C   LIG    1       24.797   4.913  53.407  0.00  0.00    -0.014 A 
ATOM     17  C   LIG    1       25.224   5.662  54.505  0.00  0.00    +0.008 A 
ATOM     18  C   LIG    1       25.616   6.998  54.341  0.00  0.00    +0.001 A 
ATOM     19  C   LIG    1       25.577   7.605  53.085  0.00  0.00    +0.000 A 
ATOM     20  C   LIG    1       25.167   6.872  51.981  0.00  0.00    +0.001 A 
ATOM     21  C   LIG    1       24.802   5.534  52.141  0.00  0.00    +0.008 A 
ENDBRANCH   6  16
BRANCH  15  22
ATOM     22  C   LIG    1       16.997   3.822  53.827  0.00  0.00    +0.054 C 
BRANCH  22  23
ATOM     23  C   LIG    1       16.328   4.267  52.536  0.00  0.00    +0.128 C 
BRANCH  23  24
ATOM     24  C   LIG    1       16.909   5.548  51.934  0.00  0.00    +0.332 C 
ATOM     25  O   LIG    1       16.892   6.606  52.557  0.00  0.00    -0.249 OA
BRANCH  24  26
ATOM     26  O   LIG    1       17.618   5.420  50.771  0.00  0.00    -0.337 OA
BRANCH  26  27
ATOM     27  N   LIG    1       18.953   5.045  50.969  0.00  0.00    -0.064 N 
ATOM     28  C   LIG    1       19.916   6.001  50.911  0.00  0.00    +0.255 C 
ATOM     29  O   LIG    1       19.790   7.200  50.721  0.00  0.00    -0.272 OA
ATOM     30  C   LIG    1       21.223   5.310  51.167  0.00  0.00    +0.109 C 
ATOM     31  C   LIG    1       20.942   3.897  50.684  0.00  0.00    +0.109 C 
ATOM     32  C   LIG    1       19.438   3.848  50.546  0.00  0.00    +0.255 C 
ATOM     33  O   LIG    1       18.836   2.912  50.060  0.00  0.00    -0.272 OA
ENDBRANCH  26  27
ENDBRANCH  24  26
ENDBRANCH  23  24
ENDBRANCH  22  23
ENDBRANCH  15  22
TORSDOF 6
ENDMDL
MODEL 7
REMARK VINA RESULT:      -1.9      2.536      7.096
REMARK  Name = 
REMARK                            x       y       z     vdW  Elec       q    Type
REMARK                         _______ _______ _______ _____ _____    ______ ____
ROOT
ATOM      1  C   LIG    1       19.379   1.409  54.895  0.00  0.00    +0.045 C 
ATOM      2  C   LIG    1       18.492   1.728  53.716  0.00  0.00    -0.030 A 
ATOM      3  C   LIG    1       19.160   2.373  52.582  0.00  0.00    +0.022 A 
ATOM      4  C   LIG    1       20.517   2.699  52.654  0.00  0.00    +0.024 A 
ATOM      5  C   LIG    1       21.042   3.655  51.778  0.00  0.00    +0.029 A 
ATOM      6  C   LIG    1       22.209   4.473  51.793  0.00  0.00    +0.028 A 
ATOM      7  C   LIG    1       22.149   5.196  50.619  0.00  0.00    +0.204 A 
ATOM      8  O   LIG    1       20.989   4.936  49.942  0.00  0.00    -0.462 OA
ATOM      9  C   LIG    1       20.277   4.046  50.691  0.00  0.00    +0.139 A 
ATOM     10  C   LIG    1       18.966   3.613  50.473  0.00  0.00    +0.093 A 
ATOM     11  C   LIG    1       18.416   2.820  51.497  0.00  0.00    +0.143 A 
ATOM     12  O   LIG    1       17.037   2.522  51.439  0.00  0.00    -0.422 OA
ATOM     13  C   LIG    1       16.357   1.918  52.498  0.00  0.00    +0.341 A 
ATOM     14  O   LIG    1       15.152   1.704  52.432  0.00  0.00    -0.245 OA
ATOM     15  C   LIG    1       17.149   1.563  53.707  0.00  0.00    +0.041 A 
ENDROOT
BRANCH   6  16
ATOM     16  C   LIG    1       23.168   4.674  52.882  0.00  0.00    -0.014 A 
ATOM     17  C   LIG    1       24.439   4.097  52.880  0.00  0.00    +0.008 A 
ATOM     18  C   LIG    1       25.319   4.319  53.949  0.00  0.00    +0.001 A 
ATOM     19  C   LIG    1       24.938   5.108  55.035  0.00  0.00    +0.000 A 
ATOM     20  C   LIG    1       23.683   5.699  55.048  0.00  0.00    +0.001 A 
ATOM     21  C   LIG    1       22.818   5.499  53.971  0.00  0.00    +0.008 A 
ENDBRANCH   6  16
BRANCH  15  22
ATOM     22  C   LIG    1       16.470   1.070  54.972  0.00  0.00    +0.054 C 
BRANCH  22  23
ATOM     23  C   LIG    1       15.997   1.945  56.123  0.00  0.00    +0.128 C 
BRANCH  23  24
ATOM     24  C   LIG    1       15.247   3.206  55.689  0.00  0.00    +0.332 C 
ATOM     25  O   LIG    1       14.112   3.141  55.225  0.00  0.00    -0.249 OA
BRANCH  24  26
ATOM     26  O   LIG    1       15.810   4.408  56.022  0.00  0.00    -0.337 OA
BRANCH  26  27
ATOM     27  N   LIG    1       17.006   4.672  55.341  0.00  0.00    -0.064 N 
ATOM     28  C   LIG    1       18.114   4.980  56.063  0.00  0.00    +0.255 C 
ATOM     29  O   LIG    1       18.240   5.049  57.275  0.00  0.00    -0.272 OA
ATOM     30  C   LIG    1       19.222   5.200  55.075  0.00  0.00    +0.109 C 
ATOM     31  C   LIG    1       18.467   5.648  53.836  0.00  0.00    +0.109 C 
ATOM     32  C   LIG    1       17.028   5.298  54.135  0.00  0.00    +0.255 C 
ATOM     33  O   LIG    1       16.095   5.619  53.427  0.00  0.00    -0.272 OA
ENDBRANCH  26  27
ENDBRANCH  24  26
ENDBRANCH  23  24
ENDBRANCH  22  23
ENDBRANCH  15  22
TORSDOF 6
ENDMDL
MODEL 8
REMARK VINA RESULT:      -1.9      2.468      4.252
REMARK  Name = 
REMARK                            x       y       z     vdW  Elec       q    Type
REMARK                         _______ _______ _______ _____ _____    ______ ____
ROOT
ATOM      1  C   LIG    1       19.381   7.880  51.843  0.00  0.00    +0.045 C 
ATOM      2  C   LIG    1       19.983   6.623  51.263  0.00  0.00    -0.030 A 
ATOM      3  C   LIG    1       19.075   5.476  51.167  0.00  0.00    +0.022 A 
ATOM      4  C   LIG    1       17.764   5.572  51.643  0.00  0.00    +0.024 A 
ATOM      5  C   LIG    1       17.050   4.404  51.930  0.00  0.00    +0.029 A 
ATOM      6  C   LIG    1       15.908   4.115  52.732  0.00  0.00    +0.028 A 
ATOM      7  C   LIG    1       15.701   2.759  52.579  0.00  0.00    +0.204 A 
ATOM      8  O   LIG    1       16.685   2.196  51.813  0.00  0.00    -0.462 OA
ATOM      9  C   LIG    1       17.553   3.194  51.477  0.00  0.00    +0.139 A 
ATOM     10  C   LIG    1       18.787   3.062  50.834  0.00  0.00    +0.093 A 
ATOM     11  C   LIG    1       19.557   4.238  50.762  0.00  0.00    +0.143 A 
ATOM     12  O   LIG    1       20.891   4.132  50.314  0.00  0.00    -0.422 OA
ATOM     13  C   LIG    1       21.794   5.195  50.395  0.00  0.00    +0.341 A 
ATOM     14  O   LIG    1       22.956   5.062  50.030  0.00  0.00    -0.245 OA
ATOM     15  C   LIG    1       21.292   6.479  50.953  0.00  0.00    +0.041 A 
ENDROOT
BRANCH   6  16
ATOM     16  C   LIG    1       15.212   4.993  53.674  0.00  0.00    -0.014 A 
ATOM     17  C   LIG    1       14.220   5.891  53.274  0.00  0.00    +0.008 A 
ATOM     18  C   LIG    1       13.585   6.711  54.217  0.00  0.00    +0.001 A 
ATOM     19  C   LIG    1       13.938   6.654  55.566  0.00  0.00    +0.000 A 
ATOM     20  C   LIG    1       14.913   5.760  55.983  0.00  0.00    +0.001 A 
ATOM     21  C   LIG    1       15.526   4.925  55.048  0.00  0.00    +0.008 A 
ENDBRANCH   6  16
BRANCH  15  22
ATOM     22  C   LIG    1       22.238   7.630  51.246  0.00  0.00    +0.054 C 
BRANCH  22  23
ATOM     23  C   LIG    1       23.214   7.701  52.411  0.00  0.00    +0.128 C 
BRANCH  23  24
ATOM     24  C   LIG    1       22.568   8.046  53.754  0.00  0.00    +0.332 C 
ATOM     25  O   LIG    1       21.981   9.112  53.920  0.00  0.00    -0.249 OA
BRANCH  24  26
ATOM     26  O   LIG    1       22.500   7.046  54.684  0.00  0.00    -0.337 OA
BRANCH  26  27
ATOM     27  N   LIG    1       21.349   6.256  54.572  0.00  0.00    -0.064 N 
ATOM     28  C   LIG    1       20.323   6.468  55.437  0.00  0.00    +0.255 C 
ATOM     29  O   LIG    1       20.239   7.295  56.331  0.00  0.00    -0.272 OA
ATOM     30  C   LIG    1       19.244   5.492  55.071  0.00  0.00    +0.109 C 
ATOM     31  C   LIG    1       20.033   4.356  54.445  0.00  0.00    +0.109 C 
ATOM     32  C   LIG    1       21.402   4.949  54.202  0.00  0.00    +0.255 C 
ATOM     33  O   LIG    1       22.358   4.304  53.821  0.00  0.00    -0.272 OA
ENDBRANCH  26  27
ENDBRANCH  24  26
ENDBRANCH  23  24
ENDBRANCH  22  23
ENDBRANCH  15  22
TORSDOF 6
ENDMDL
MODEL 9
REMARK VINA RESULT:      -1.9      2.642      6.447
REMARK  Name = 
REMARK                            x       y       z     vdW  Elec       q    Type
REMARK                         _______ _______ _______ _____ _____    ______ ____
ROOT
ATOM      1  C   LIG    1       18.498   4.623  55.303  0.00  0.00    +0.045 C 
ATOM      2  C   LIG    1       18.457   3.114  55.346  0.00  0.00    -0.030 A 
ATOM      3  C   LIG    1       19.657   2.436  54.847  0.00  0.00    +0.022 A 
ATOM      4  C   LIG    1       20.722   3.178  54.328  0.00  0.00    +0.024 A 
ATOM      5  C   LIG    1       21.656   2.550  53.497  0.00  0.00    +0.029 A 
ATOM      6  C   LIG    1       22.598   3.021  52.536  0.00  0.00    +0.028 A 
ATOM      7  C   LIG    1       23.227   1.884  52.071  0.00  0.00    +0.204 A 
ATOM      8  O   LIG    1       22.673   0.758  52.617  0.00  0.00    -0.462 OA
ATOM      9  C   LIG    1       21.659   1.165  53.436  0.00  0.00    +0.139 A 
ATOM     10  C   LIG    1       20.717   0.360  54.081  0.00  0.00    +0.093 A 
ATOM     11  C   LIG    1       19.677   1.053  54.728  0.00  0.00    +0.143 A 
ATOM     12  O   LIG    1       18.587   0.304  55.221  0.00  0.00    -0.422 OA
ATOM     13  C   LIG    1       17.420   0.906  55.696  0.00  0.00    +0.341 A 
ATOM     14  O   LIG    1       16.475   0.229  56.085  0.00  0.00    -0.245 OA
ATOM     15  C   LIG    1       17.367   2.393  55.695  0.00  0.00    +0.041 A 
ENDROOT
BRANCH   6  16
ATOM     16  C   LIG    1       22.750   4.373  51.996  0.00  0.00    -0.014 A 
ATOM     17  C   LIG    1       23.399   5.393  52.694  0.00  0.00    +0.008 A 
ATOM     18  C   LIG    1       23.516   6.672  52.132  0.00  0.00    +0.001 A 
ATOM     19  C   LIG    1       22.978   6.952  50.875  0.00  0.00    +0.000 A 
ATOM     20  C   LIG    1       22.340   5.947  50.163  0.00  0.00    +0.001 A 
ATOM     21  C   LIG    1       22.248   4.667  50.711  0.00  0.00    +0.008 A 
ENDBRANCH   6  16
BRANCH  15  22
ATOM     22  C   LIG    1       16.082   3.132  56.022  0.00  0.00    +0.054 C 
BRANCH  22  23
ATOM     23  C   LIG    1       14.899   3.313  55.082  0.00  0.00    +0.128 C 
BRANCH  23  24
ATOM     24  C   LIG    1       15.033   4.497  54.122  0.00  0.00    +0.332 C 
ATOM     25  O   LIG    1       15.179   5.641  54.542  0.00  0.00    -0.249 OA
BRANCH  24  26
ATOM     26  O   LIG    1       15.183   4.204  52.794  0.00  0.00    -0.337 OA
BRANCH  26  27
ATOM     27  N   LIG    1       16.511   3.952  52.424  0.00  0.00    -0.064 N 
ATOM     28  C   LIG    1       17.209   4.929  51.791  0.00  0.00    +0.255 C 
ATOM     29  O   LIG    1       16.846   6.057  51.496  0.00  0.00    -0.272 OA
ATOM     30  C   LIG    1       18.580   4.379  51.533  0.00  0.00    +0.109 C 
ATOM     31  C   LIG    1       18.320   2.884  51.454  0.00  0.00    +0.109 C 
ATOM     32  C   LIG    1       16.927   2.724  52.018  0.00  0.00    +0.255 C 
ATOM     33  O   LIG    1       16.312   1.676  52.008  0.00  0.00    -0.272 OA
ENDBRANCH  26  27
ENDBRANCH  24  26
ENDBRANCH  23  24
ENDBRANCH  22  23
ENDBRANCH  15  22
TORSDOF 6
ENDMDL
