MODEL 1
REMARK VINA RESULT:      -3.7      0.000      0.000
REMARK  Name = 
REMARK                            x       y       z     vdW  Elec       q    Type
REMARK                         _______ _______ _______ _____ _____    ______ ____
ROOT
ATOM      1  C   LIG    1       26.745   0.081  19.133  0.00  0.00    +0.045 C 
ATOM      2  C   LIG    1       27.267   1.490  19.283  0.00  0.00    -0.030 A 
ATOM      3  C   LIG    1       28.612   1.607  19.852  0.00  0.00    +0.022 A 
ATOM      4  C   LIG    1       29.306   0.465  20.263  0.00  0.00    +0.024 A 
ATOM      5  C   LIG    1       30.373   0.594  21.159  0.00  0.00    +0.029 A 
ATOM      6  C   LIG    1       31.036  -0.306  22.042  0.00  0.00    +0.028 A 
ATOM      7  C   LIG    1       32.023   0.450  22.642  0.00  0.00    +0.204 A 
ATOM      8  O   LIG    1       31.946   1.758  22.249  0.00  0.00    -0.462 OA
ATOM      9  C   LIG    1       30.886   1.860  21.395  0.00  0.00    +0.139 A 
ATOM     10  C   LIG    1       30.335   3.030  20.866  0.00  0.00    +0.093 A 
ATOM     11  C   LIG    1       29.139   2.858  20.146  0.00  0.00    +0.143 A 
ATOM     12  O   LIG    1       28.423   4.013  19.763  0.00  0.00    -0.422 OA
ATOM     13  C   LIG    1       27.135   3.950  19.226  0.00  0.00    +0.341 A 
ATOM     14  O   LIG    1       26.524   4.973  18.935  0.00  0.00    -0.245 OA
ATOM     15  C   LIG    1       26.535   2.602  19.038  0.00  0.00    +0.041 A 
ENDROOT
BRANCH   6  16
ATOM     16  C   LIG    1       30.655  -1.673  22.404  0.00  0.00    -0.014 A 
ATOM     17  C   LIG    1       31.063  -2.787  21.669  0.00  0.00    +0.008 A 
ATOM     18  C   LIG    1       30.669  -4.075  22.058  0.00  0.00    +0.001 A 
ATOM     19  C   LIG    1       29.857  -4.266  23.176  0.00  0.00    +0.000 A 
ATOM     20  C   LIG    1       29.453  -3.171  23.926  0.00  0.00    +0.001 A 
ATOM     21  C   LIG    1       29.867  -1.892  23.554  0.00  0.00    +0.008 A 
ENDBRANCH   6  16
BRANCH  15  22
ATOM     22  C   LIG    1       25.081   2.439  18.632  0.00  0.00    +0.054 C 
BRANCH  22  23
ATOM     23  C   LIG    1       24.485   2.843  17.292  0.00  0.00    +0.128 C 
BRANCH  23  24
ATOM     24  C   LIG    1       25.468   2.782  16.121  0.00  0.00    +0.332 C 
ATOM     25  O   LIG    1       26.050   1.739  15.835  0.00  0.00    -0.249 OA
BRANCH  24  26
ATOM     26  O   LIG    1       25.516   3.871  15.295  0.00  0.00    -0.337 OA
BRANCH  26  27
ATOM     27  N   LIG    1       24.973   3.635  14.026  0.00  0.00    -0.064 N 
ATOM     28  C   LIG    1       25.709   3.952  12.930  0.00  0.00    +0.255 C 
ATOM     29  O   LIG    1       26.836   4.419  12.878  0.00  0.00    -0.272 OA
ATOM     30  C   LIG    1       24.881   3.584  11.735  0.00  0.00    +0.109 C 
ATOM     31  C   LIG    1       23.465   3.705  12.272  0.00  0.00    +0.109 C 
ATOM     32  C   LIG    1       23.645   3.776  13.771  0.00  0.00    +0.255 C 
ATOM     33  O   LIG    1       22.740   4.003  14.548  0.00  0.00    -0.272 OA
ENDBRANCH  26  27
ENDBRANCH  24  26
ENDBRANCH  23  24
ENDBRANCH  22  23
ENDBRANCH  15  22
TORSDOF 6
ENDMDL
MODEL 2
REMARK VINA RESULT:      -2.0      3.379      9.400
REMARK  Name = 
REMARK                            x       y       z     vdW  Elec       q    Type
REMARK                         _______ _______ _______ _____ _____    ______ ____
ROOT
ATOM      1  C   LIG    1       27.125  -1.153  18.106  0.00  0.00    +0.045 C 
ATOM      2  C   LIG    1       27.260  -0.566  19.490  0.00  0.00    -0.030 A 
ATOM      3  C   LIG    1       26.538   0.688  19.717  0.00  0.00    +0.022 A 
ATOM      4  C   LIG    1       25.826   1.291  18.675  0.00  0.00    +0.024 A 
ATOM      5  C   LIG    1       25.497   2.648  18.763  0.00  0.00    +0.029 A 
ATOM      6  C   LIG    1       25.136   3.641  17.806  0.00  0.00    +0.028 A 
ATOM      7  C   LIG    1       24.924   4.786  18.548  0.00  0.00    +0.204 A 
ATOM      8  O   LIG    1       25.214   4.575  19.869  0.00  0.00    -0.462 OA
ATOM      9  C   LIG    1       25.636   3.283  19.987  0.00  0.00    +0.139 A 
ATOM     10  C   LIG    1       26.183   2.671  21.118  0.00  0.00    +0.093 A 
ATOM     11  C   LIG    1       26.692   1.376  20.914  0.00  0.00    +0.143 A 
ATOM     12  O   LIG    1       27.439   0.784  21.955  0.00  0.00    -0.422 OA
ATOM     13  C   LIG    1       28.151  -0.405  21.782  0.00  0.00    +0.341 A 
ATOM     14  O   LIG    1       28.819  -0.876  22.696  0.00  0.00    -0.245 OA
ATOM     15  C   LIG    1       28.077  -1.060  20.449  0.00  0.00    +0.041 A 
ENDROOT
BRANCH   6  16
ATOM     16  C   LIG    1       25.171   3.554  16.345  0.00  0.00    -0.014 A 
ATOM     17  C   LIG    1       26.304   3.139  15.643  0.00  0.00    +0.008 A 
ATOM     18  C   LIG    1       26.284   3.074  14.243  0.00  0.00    +0.001 A 
ATOM     19  C   LIG    1       25.141   3.432  13.527  0.00  0.00    +0.000 A 
ATOM     20  C   LIG    1       24.002   3.835  14.209  0.00  0.00    +0.001 A 
ATOM     21  C   LIG    1       24.014   3.874  15.604  0.00  0.00    +0.008 A 
ENDBRANCH   6  16
BRANCH  15  22
ATOM     22  C   LIG    1       28.955  -2.252  20.111  0.00  0.00    +0.054 C 
BRANCH  22  23
ATOM     23  C   LIG    1       30.453  -2.349  20.361  0.00  0.00    +0.128 C 
BRANCH  23  24
ATOM     24  C   LIG    1       30.827  -2.848  21.758  0.00  0.00    +0.332 C 
ATOM     25  O   LIG    1       30.178  -3.730  22.312  0.00  0.00    -0.249 OA
BRANCH  24  26
ATOM     26  O   LIG    1       32.020  -2.415  22.271  0.00  0.00    -0.337 OA
BRANCH  26  27
ATOM     27  N   LIG    1       31.917  -1.218  22.991  0.00  0.00    -0.064 N 
ATOM     28  C   LIG    1       31.272  -1.227  24.186  0.00  0.00    +0.255 C 
ATOM     29  O   LIG    1       30.759  -2.169  24.768  0.00  0.00    -0.272 OA
ATOM     30  C   LIG    1       31.330   0.175  24.715  0.00  0.00    +0.109 C 
ATOM     31  C   LIG    1       31.428   0.999  23.443  0.00  0.00    +0.109 C 
ATOM     32  C   LIG    1       31.770  -0.015  22.375  0.00  0.00    +0.255 C 
ATOM     33  O   LIG    1       31.811   0.243  21.189  0.00  0.00    -0.272 OA
ENDBRANCH  26  27
ENDBRANCH  24  26
ENDBRANCH  23  24
ENDBRANCH  22  23
ENDBRANCH  15  22
TORSDOF 6
ENDMDL
MODEL 3
REMARK VINA RESULT:      -1.1      3.352      9.366
REMARK  Name = 
REMARK                            x       y       z     vdW  Elec       q    Type
REMARK                         _______ _______ _______ _____ _____    ______ ____
ROOT
ATOM      1  C   LIG    1       27.107  -1.194  18.099  0.00  0.00    +0.045 C 
ATOM      2  C   LIG    1       27.257  -0.617  19.487  0.00  0.00    -0.030 A 
ATOM      3  C   LIG    1       26.545   0.641  19.727  0.00  0.00    +0.022 A 
ATOM      4  C   LIG    1       25.831   1.256  18.694  0.00  0.00    +0.024 A 
ATOM      5  C   LIG    1       25.512   2.615  18.793  0.00  0.00    +0.029 A 
ATOM      6  C   LIG    1       25.152   3.617  17.845  0.00  0.00    +0.028 A 
ATOM      7  C   LIG    1       24.953   4.758  18.596  0.00  0.00    +0.204 A 
ATOM      8  O   LIG    1       25.252   4.537  19.913  0.00  0.00    -0.462 OA
ATOM      9  C   LIG    1       25.665   3.241  20.020  0.00  0.00    +0.139 A 
ATOM     10  C   LIG    1       26.216   2.618  21.143  0.00  0.00    +0.093 A 
ATOM     11  C   LIG    1       26.713   1.320  20.927  0.00  0.00    +0.143 A 
ATOM     12  O   LIG    1       27.463   0.716  21.959  0.00  0.00    -0.422 OA
ATOM     13  C   LIG    1       28.166  -0.477  21.773  0.00  0.00    +0.341 A 
ATOM     14  O   LIG    1       28.837  -0.959  22.678  0.00  0.00    -0.245 OA
ATOM     15  C   LIG    1       28.077  -1.123  20.436  0.00  0.00    +0.041 A 
ENDROOT
BRANCH   6  16
ATOM     16  C   LIG    1       25.175   3.538  16.384  0.00  0.00    -0.014 A 
ATOM     17  C   LIG    1       26.302   3.127  15.670  0.00  0.00    +0.008 A 
ATOM     18  C   LIG    1       26.272   3.071  14.269  0.00  0.00    +0.001 A 
ATOM     19  C   LIG    1       25.124   3.434  13.565  0.00  0.00    +0.000 A 
ATOM     20  C   LIG    1       23.990   3.833  14.258  0.00  0.00    +0.001 A 
ATOM     21  C   LIG    1       24.013   3.863  15.653  0.00  0.00    +0.008 A 
ENDBRANCH   6  16
BRANCH  15  22
ATOM     22  C   LIG    1       28.944  -2.319  20.084  0.00  0.00    +0.054 C 
BRANCH  22  23
ATOM     23  C   LIG    1       30.452  -2.405  20.264  0.00  0.00    +0.128 C 
BRANCH  23  24
ATOM     24  C   LIG    1       30.895  -2.859  21.656  0.00  0.00    +0.332 C 
ATOM     25  O   LIG    1       30.468  -3.898  22.151  0.00  0.00    -0.249 OA
BRANCH  24  26
ATOM     26  O   LIG    1       31.927  -2.170  22.233  0.00  0.00    -0.337 OA
BRANCH  26  27
ATOM     27  N   LIG    1       31.514  -1.028  22.932  0.00  0.00    -0.064 N 
ATOM     28  C   LIG    1       31.917   0.191  22.490  0.00  0.00    +0.255 C 
ATOM     29  O   LIG    1       32.603   0.460  21.517  0.00  0.00    -0.272 OA
ATOM     30  C   LIG    1       31.319   1.205  23.420  0.00  0.00    +0.109 C 
ATOM     31  C   LIG    1       31.173   0.415  24.709  0.00  0.00    +0.109 C 
ATOM     32  C   LIG    1       31.362  -1.023  24.283  0.00  0.00    +0.255 C 
ATOM     33  O   LIG    1       31.439  -1.952  25.061  0.00  0.00    -0.272 OA
ENDBRANCH  26  27
ENDBRANCH  24  26
ENDBRANCH  23  24
ENDBRANCH  22  23
ENDBRANCH  15  22
TORSDOF 6
ENDMDL
