MODEL 1
REMARK VINA RESULT:      -7.6      0.000      0.000
REMARK  Name = 
REMARK                            x       y       z     vdW  Elec       q    Type
REMARK                         _______ _______ _______ _____ _____    ______ ____
ROOT
ATOM      1  C   LIG    1        2.936  20.848  30.471  0.00  0.00    +0.045 C 
ATOM      2  C   LIG    1        3.282  19.561  29.761  0.00  0.00    -0.030 A 
ATOM      3  C   LIG    1        2.862  18.333  30.443  0.00  0.00    +0.022 A 
ATOM      4  C   LIG    1        2.234  18.397  31.690  0.00  0.00    +0.024 A 
ATOM      5  C   LIG    1        2.211  17.262  32.507  0.00  0.00    +0.029 A 
ATOM      6  C   LIG    1        2.014  17.053  33.903  0.00  0.00    +0.028 A 
ATOM      7  C   LIG    1        2.100  15.686  34.072  0.00  0.00    +0.204 A 
ATOM      8  O   LIG    1        2.421  15.065  32.895  0.00  0.00    -0.462 OA
ATOM      9  C   LIG    1        2.561  16.041  31.952  0.00  0.00    +0.139 A 
ATOM     10  C   LIG    1        3.033  15.893  30.644  0.00  0.00    +0.093 A 
ATOM     11  C   LIG    1        3.236  17.093  29.939  0.00  0.00    +0.143 A 
ATOM     12  O   LIG    1        3.902  17.029  28.696  0.00  0.00    -0.422 OA
ATOM     13  C   LIG    1        4.329  18.171  28.016  0.00  0.00    +0.341 A 
ATOM     14  O   LIG    1        4.935  18.082  26.955  0.00  0.00    -0.245 OA
ATOM     15  C   LIG    1        4.031  19.490  28.638  0.00  0.00    +0.041 A 
ENDROOT
BRANCH   6  16
ATOM     16  C   LIG    1        1.936  18.051  34.972  0.00  0.00    -0.014 A 
ATOM     17  C   LIG    1        0.828  18.168  35.813  0.00  0.00    +0.008 A 
ATOM     18  C   LIG    1        0.804  19.143  36.820  0.00  0.00    +0.001 A 
ATOM     19  C   LIG    1        1.876  20.018  36.993  0.00  0.00    +0.000 A 
ATOM     20  C   LIG    1        2.991  19.909  36.174  0.00  0.00    +0.001 A 
ATOM     21  C   LIG    1        3.026  18.921  35.189  0.00  0.00    +0.008 A 
ENDBRANCH   6  16
BRANCH  15  22
ATOM     22  C   LIG    1        4.608  20.774  28.068  0.00  0.00    +0.054 C 
BRANCH  22  23
ATOM     23  C   LIG    1        5.927  21.411  28.477  0.00  0.00    +0.128 C 
BRANCH  23  24
ATOM     24  C   LIG    1        7.151  20.849  27.750  0.00  0.00    +0.332 C 
ATOM     25  O   LIG    1        7.983  20.168  28.341  0.00  0.00    -0.249 OA
BRANCH  24  26
ATOM     26  O   LIG    1        7.170  20.970  26.387  0.00  0.00    -0.337 OA
BRANCH  26  27
ATOM     27  N   LIG    1        8.318  21.606  25.898  0.00  0.00    -0.064 N 
ATOM     28  C   LIG    1        8.307  22.957  25.759  0.00  0.00    +0.255 C 
ATOM     29  O   LIG    1        7.412  23.744  26.024  0.00  0.00    -0.272 OA
ATOM     30  C   LIG    1        9.657  23.345  25.232  0.00  0.00    +0.109 C 
ATOM     31  C   LIG    1       10.087  22.093  24.487  0.00  0.00    +0.109 C 
ATOM     32  C   LIG    1        9.120  21.033  24.962  0.00  0.00    +0.255 C 
ATOM     33  O   LIG    1        9.063  19.913  24.495  0.00  0.00    -0.272 OA
ENDBRANCH  26  27
ENDBRANCH  24  26
ENDBRANCH  23  24
ENDBRANCH  22  23
ENDBRANCH  15  22
TORSDOF 6
ENDMDL
MODEL 2
REMARK VINA RESULT:      -5.6      2.018      3.108
REMARK  Name = 
REMARK                            x       y       z     vdW  Elec       q    Type
REMARK                         _______ _______ _______ _____ _____    ______ ____
ROOT
ATOM      1  C   LIG    1        2.381  20.754  30.419  0.00  0.00    +0.045 C 
ATOM      2  C   LIG    1        2.646  19.421  29.761  0.00  0.00    -0.030 A 
ATOM      3  C   LIG    1        2.359  18.244  30.585  0.00  0.00    +0.022 A 
ATOM      4  C   LIG    1        1.920  18.395  31.904  0.00  0.00    +0.024 A 
ATOM      5  C   LIG    1        2.043  17.325  32.796  0.00  0.00    +0.029 A 
ATOM      6  C   LIG    1        2.059  17.220  34.218  0.00  0.00    +0.028 A 
ATOM      7  C   LIG    1        2.199  15.870  34.471  0.00  0.00    +0.204 A 
ATOM      8  O   LIG    1        2.355  15.166  33.308  0.00  0.00    -0.462 OA
ATOM      9  C   LIG    1        2.333  16.069  32.286  0.00  0.00    +0.139 A 
ATOM     10  C   LIG    1        2.610  15.828  30.937  0.00  0.00    +0.093 A 
ATOM     11  C   LIG    1        2.681  16.974  30.124  0.00  0.00    +0.143 A 
ATOM     12  O   LIG    1        3.157  16.822  28.803  0.00  0.00    -0.422 OA
ATOM     13  C   LIG    1        3.454  17.915  27.985  0.00  0.00    +0.341 A 
ATOM     14  O   LIG    1        3.899  17.752  26.855  0.00  0.00    -0.245 OA
ATOM     15  C   LIG    1        3.223  19.273  28.546  0.00  0.00    +0.041 A 
ENDROOT
BRANCH   6  16
ATOM     16  C   LIG    1        2.119  18.295  35.210  0.00  0.00    -0.014 A 
ATOM     17  C   LIG    1        3.169  19.213  35.261  0.00  0.00    +0.008 A 
ATOM     18  C   LIG    1        3.179  20.224  36.233  0.00  0.00    +0.001 A 
ATOM     19  C   LIG    1        2.149  20.324  37.170  0.00  0.00    +0.000 A 
ATOM     20  C   LIG    1        1.092  19.427  37.126  0.00  0.00    +0.001 A 
ATOM     21  C   LIG    1        1.069  18.438  36.141  0.00  0.00    +0.008 A 
ENDBRANCH   6  16
BRANCH  15  22
ATOM     22  C   LIG    1        3.681  20.516  27.805  0.00  0.00    +0.054 C 
BRANCH  22  23
ATOM     23  C   LIG    1        5.100  21.066  27.788  0.00  0.00    +0.128 C 
BRANCH  23  24
ATOM     24  C   LIG    1        6.134  20.121  27.171  0.00  0.00    +0.332 C 
ATOM     25  O   LIG    1        6.676  20.386  26.102  0.00  0.00    -0.249 OA
BRANCH  24  26
ATOM     26  O   LIG    1        6.568  19.084  27.951  0.00  0.00    -0.337 OA
BRANCH  26  27
ATOM     27  N   LIG    1        6.699  19.420  29.304  0.00  0.00    -0.064 N 
ATOM     28  C   LIG    1        7.749  20.192  29.688  0.00  0.00    +0.255 C 
ATOM     29  O   LIG    1        8.630  20.678  28.996  0.00  0.00    -0.272 OA
ATOM     30  C   LIG    1        7.620  20.387  31.169  0.00  0.00    +0.109 C 
ATOM     31  C   LIG    1        6.864  19.140  31.596  0.00  0.00    +0.109 C 
ATOM     32  C   LIG    1        6.344  18.564  30.299  0.00  0.00    +0.255 C 
ATOM     33  O   LIG    1        5.788  17.487  30.214  0.00  0.00    -0.272 OA
ENDBRANCH  26  27
ENDBRANCH  24  26
ENDBRANCH  23  24
ENDBRANCH  22  23
ENDBRANCH  15  22
TORSDOF 6
ENDMDL
