MODEL 1
REMARK VINA RESULT:     -11.3      0.000      0.000
REMARK  Name = 
REMARK                            x       y       z     vdW  Elec       q    Type
REMARK                         _______ _______ _______ _____ _____    ______ ____
ROOT
ATOM      1  C   LIG    1       20.281 -14.327  17.049  0.00  0.00    +0.045 C 
ATOM      2  C   LIG    1       20.629 -15.683  17.616  0.00  0.00    -0.030 A 
ATOM      3  C   LIG    1       19.490 -16.495  18.051  0.00  0.00    +0.022 A 
ATOM      4  C   LIG    1       18.190 -15.986  17.976  0.00  0.00    +0.024 A 
ATOM      5  C   LIG    1       17.179 -16.566  18.749  0.00  0.00    +0.029 A 
ATOM      6  C   LIG    1       15.902 -16.122  19.200  0.00  0.00    +0.028 A 
ATOM      7  C   LIG    1       15.391 -17.184  19.919  0.00  0.00    +0.204 A 
ATOM      8  O   LIG    1       16.303 -18.202  20.005  0.00  0.00    -0.462 OA
ATOM      9  C   LIG    1       17.427 -17.791  19.349  0.00  0.00    +0.139 A 
ATOM     10  C   LIG    1       18.667 -18.435  19.309  0.00  0.00    +0.093 A 
ATOM     11  C   LIG    1       19.703 -17.705  18.699  0.00  0.00    +0.143 A 
ATOM     12  O   LIG    1       21.019 -18.205  18.808  0.00  0.00    -0.422 OA
ATOM     13  C   LIG    1       22.135 -17.462  18.415  0.00  0.00    +0.341 A 
ATOM     14  O   LIG    1       23.268 -17.909  18.554  0.00  0.00    -0.245 OA
ATOM     15  C   LIG    1       21.892 -16.111  17.841  0.00  0.00    +0.041 A 
ENDROOT
BRANCH   6  16
ATOM     16  C   LIG    1       15.320 -14.781  19.112  0.00  0.00    -0.014 A 
ATOM     17  C   LIG    1       15.967 -13.647  19.606  0.00  0.00    +0.008 A 
ATOM     18  C   LIG    1       15.365 -12.385  19.497  0.00  0.00    +0.001 A 
ATOM     19  C   LIG    1       14.110 -12.241  18.905  0.00  0.00    +0.000 A 
ATOM     20  C   LIG    1       13.458 -13.356  18.397  0.00  0.00    +0.001 A 
ATOM     21  C   LIG    1       14.070 -14.608  18.482  0.00  0.00    +0.008 A 
ENDBRANCH   6  16
BRANCH  15  22
ATOM     22  C   LIG    1       23.043 -15.163  17.553  0.00  0.00    +0.054 C 
BRANCH  22  23
ATOM     23  C   LIG    1       23.751 -14.291  18.579  0.00  0.00    +0.128 C 
BRANCH  23  24
ATOM     24  C   LIG    1       25.018 -14.915  19.168  0.00  0.00    +0.332 C 
ATOM     25  O   LIG    1       24.976 -15.591  20.192  0.00  0.00    -0.249 OA
BRANCH  24  26
ATOM     26  O   LIG    1       26.151 -14.853  18.404  0.00  0.00    -0.337 OA
BRANCH  26  27
ATOM     27  N   LIG    1       27.227 -14.231  19.049  0.00  0.00    -0.064 N 
ATOM     28  C   LIG    1       27.407 -12.895  18.881  0.00  0.00    +0.255 C 
ATOM     29  O   LIG    1       26.729 -12.110  18.237  0.00  0.00    -0.272 OA
ATOM     30  C   LIG    1       28.614 -12.519  19.688  0.00  0.00    +0.109 C 
ATOM     31  C   LIG    1       29.406 -13.815  19.710  0.00  0.00    +0.109 C 
ATOM     32  C   LIG    1       28.420 -14.856  19.233  0.00  0.00    +0.255 C 
ATOM     33  O   LIG    1       28.719 -16.010  18.996  0.00  0.00    -0.272 OA
ENDBRANCH  26  27
ENDBRANCH  24  26
ENDBRANCH  23  24
ENDBRANCH  22  23
ENDBRANCH  15  22
TORSDOF 6
ENDMDL
MODEL 2
REMARK VINA RESULT:      -9.9      1.481      2.221
REMARK  Name = 
REMARK                            x       y       z     vdW  Elec       q    Type
REMARK                         _______ _______ _______ _____ _____    ______ ____
ROOT
ATOM      1  C   LIG    1       19.953 -14.283  17.205  0.00  0.00    +0.045 C 
ATOM      2  C   LIG    1       20.265 -15.656  17.751  0.00  0.00    -0.030 A 
ATOM      3  C   LIG    1       19.101 -16.462  18.130  0.00  0.00    +0.022 A 
ATOM      4  C   LIG    1       17.811 -15.933  18.025  0.00  0.00    +0.024 A 
ATOM      5  C   LIG    1       16.767 -16.517  18.751  0.00  0.00    +0.029 A 
ATOM      6  C   LIG    1       15.483 -16.065  19.172  0.00  0.00    +0.028 A 
ATOM      7  C   LIG    1       14.935 -17.136  19.848  0.00  0.00    +0.204 A 
ATOM      8  O   LIG    1       15.829 -18.168  19.939  0.00  0.00    -0.462 OA
ATOM      9  C   LIG    1       16.979 -17.758  19.329  0.00  0.00    +0.139 A 
ATOM     10  C   LIG    1       18.211 -18.419  19.314  0.00  0.00    +0.093 A 
ATOM     11  C   LIG    1       19.277 -17.690  18.755  0.00  0.00    +0.143 A 
ATOM     12  O   LIG    1       20.582 -18.211  18.894  0.00  0.00    -0.422 OA
ATOM     13  C   LIG    1       21.720 -17.475  18.555  0.00  0.00    +0.341 A 
ATOM     14  O   LIG    1       22.841 -17.941  18.719  0.00  0.00    -0.245 OA
ATOM     15  C   LIG    1       21.514 -16.108  18.006  0.00  0.00    +0.041 A 
ENDROOT
BRANCH   6  16
ATOM     16  C   LIG    1       14.923 -14.714  19.097  0.00  0.00    -0.014 A 
ATOM     17  C   LIG    1       15.641 -13.580  19.478  0.00  0.00    +0.008 A 
ATOM     18  C   LIG    1       15.057 -12.308  19.388  0.00  0.00    +0.001 A 
ATOM     19  C   LIG    1       13.749 -12.154  18.927  0.00  0.00    +0.000 A 
ATOM     20  C   LIG    1       13.025 -13.270  18.532  0.00  0.00    +0.001 A 
ATOM     21  C   LIG    1       13.616 -14.532  18.597  0.00  0.00    +0.008 A 
ENDBRANCH   6  16
BRANCH  15  22
ATOM     22  C   LIG    1       22.686 -15.170  17.778  0.00  0.00    +0.054 C 
BRANCH  22  23
ATOM     23  C   LIG    1       23.495 -14.482  18.867  0.00  0.00    +0.128 C 
BRANCH  23  24
ATOM     24  C   LIG    1       24.858 -13.963  18.405  0.00  0.00    +0.332 C 
ATOM     25  O   LIG    1       25.380 -12.988  18.939  0.00  0.00    -0.249 OA
BRANCH  24  26
ATOM     26  O   LIG    1       25.550 -14.743  17.519  0.00  0.00    -0.337 OA
BRANCH  26  27
ATOM     27  N   LIG    1       25.663 -16.080  17.921  0.00  0.00    -0.064 N 
ATOM     28  C   LIG    1       26.591 -16.405  18.858  0.00  0.00    +0.255 C 
ATOM     29  O   LIG    1       27.369 -15.670  19.446  0.00  0.00    -0.272 OA
ATOM     30  C   LIG    1       26.471 -17.882  19.086  0.00  0.00    +0.109 C 
ATOM     31  C   LIG    1       25.927 -18.373  17.757  0.00  0.00    +0.109 C 
ATOM     32  C   LIG    1       25.468 -17.113  17.060  0.00  0.00    +0.255 C 
ATOM     33  O   LIG    1       25.082 -17.081  15.908  0.00  0.00    -0.272 OA
ENDBRANCH  26  27
ENDBRANCH  24  26
ENDBRANCH  23  24
ENDBRANCH  22  23
ENDBRANCH  15  22
TORSDOF 6
ENDMDL
MODEL 3
REMARK VINA RESULT:      -9.7      2.229      4.074
REMARK  Name = 
REMARK                            x       y       z     vdW  Elec       q    Type
REMARK                         _______ _______ _______ _____ _____    ______ ____
ROOT
ATOM      1  C   LIG    1       17.927 -14.289  18.022  0.00  0.00    +0.045 C 
ATOM      2  C   LIG    1       17.415 -15.648  18.435  0.00  0.00    -0.030 A 
ATOM      3  C   LIG    1       15.956 -15.779  18.499  0.00  0.00    +0.022 A 
ATOM      4  C   LIG    1       15.136 -14.677  18.239  0.00  0.00    +0.024 A 
ATOM      5  C   LIG    1       13.813 -14.683  18.692  0.00  0.00    +0.029 A 
ATOM      6  C   LIG    1       12.847 -13.663  18.936  0.00  0.00    +0.028 A 
ATOM      7  C   LIG    1       11.722 -14.338  19.364  0.00  0.00    +0.204 A 
ATOM      8  O   LIG    1       11.967 -15.679  19.478  0.00  0.00    -0.462 OA
ATOM      9  C   LIG    1       13.272 -15.880  19.135  0.00  0.00    +0.139 A 
ATOM     10  C   LIG    1       14.006 -17.064  19.251  0.00  0.00    +0.093 A 
ATOM     11  C   LIG    1       15.382 -16.947  18.984  0.00  0.00    +0.143 A 
ATOM     12  O   LIG    1       16.212 -18.050  19.281  0.00  0.00    -0.422 OA
ATOM     13  C   LIG    1       17.605 -17.969  19.242  0.00  0.00    +0.341 A 
ATOM     14  O   LIG    1       18.300 -18.934  19.539  0.00  0.00    -0.245 OA
ATOM     15  C   LIG    1       18.205 -16.667  18.844  0.00  0.00    +0.041 A 
ENDROOT
BRANCH   6  16
ATOM     16  C   LIG    1       13.036 -12.212  18.937  0.00  0.00    -0.014 A 
ATOM     17  C   LIG    1       14.262 -11.613  19.231  0.00  0.00    +0.008 A 
ATOM     18  C   LIG    1       14.390 -10.217  19.219  0.00  0.00    +0.001 A 
ATOM     19  C   LIG    1       13.295  -9.403  18.925  0.00  0.00    +0.000 A 
ATOM     20  C   LIG    1       12.072  -9.981  18.619  0.00  0.00    +0.001 A 
ATOM     21  C   LIG    1       11.953 -11.371  18.605  0.00  0.00    +0.008 A 
ENDBRANCH   6  16
BRANCH  15  22
ATOM     22  C   LIG    1       19.701 -16.429  18.945  0.00  0.00    +0.054 C 
BRANCH  22  23
ATOM     23  C   LIG    1       20.727 -16.767  17.874  0.00  0.00    +0.128 C 
BRANCH  23  24
ATOM     24  C   LIG    1       22.113 -17.119  18.418  0.00  0.00    +0.332 C 
ATOM     25  O   LIG    1       22.431 -18.284  18.639  0.00  0.00    -0.249 OA
BRANCH  24  26
ATOM     26  O   LIG    1       23.038 -16.111  18.458  0.00  0.00    -0.337 OA
BRANCH  26  27
ATOM     27  N   LIG    1       24.358 -16.558  18.320  0.00  0.00    -0.064 N 
ATOM     28  C   LIG    1       25.246 -16.289  19.312  0.00  0.00    +0.255 C 
ATOM     29  O   LIG    1       25.057 -15.703  20.366  0.00  0.00    -0.272 OA
ATOM     30  C   LIG    1       26.554 -16.891  18.892  0.00  0.00    +0.109 C 
ATOM     31  C   LIG    1       26.448 -16.873  17.377  0.00  0.00    +0.109 C 
ATOM     32  C   LIG    1       24.984 -16.604  17.114  0.00  0.00    +0.255 C 
ATOM     33  O   LIG    1       24.524 -16.394  16.010  0.00  0.00    -0.272 OA
ENDBRANCH  26  27
ENDBRANCH  24  26
ENDBRANCH  23  24
ENDBRANCH  22  23
ENDBRANCH  15  22
TORSDOF 6
ENDMDL
MODEL 4
REMARK VINA RESULT:      -9.3      2.832      9.986
REMARK  Name = 
REMARK                            x       y       z     vdW  Elec       q    Type
REMARK                         _______ _______ _______ _____ _____    ______ ____
ROOT
ATOM      1  C   LIG    1       21.780 -13.869  18.644  0.00  0.00    +0.045 C 
ATOM      2  C   LIG    1       21.701 -15.376  18.602  0.00  0.00    -0.030 A 
ATOM      3  C   LIG    1       22.925 -16.082  18.989  0.00  0.00    +0.022 A 
ATOM      4  C   LIG    1       24.080 -15.365  19.316  0.00  0.00    +0.024 A 
ATOM      5  C   LIG    1       25.322 -16.008  19.278  0.00  0.00    +0.029 A 
ATOM      6  C   LIG    1       26.669 -15.551  19.183  0.00  0.00    +0.028 A 
ATOM      7  C   LIG    1       27.434 -16.699  19.207  0.00  0.00    +0.204 A 
ATOM      8  O   LIG    1       26.643 -17.816  19.222  0.00  0.00    -0.462 OA
ATOM      9  C   LIG    1       25.347 -17.391  19.191  0.00  0.00    +0.139 A 
ATOM     10  C   LIG    1       24.202 -18.177  19.038  0.00  0.00    +0.093 A 
ATOM     11  C   LIG    1       23.001 -17.464  18.869  0.00  0.00    +0.143 A 
ATOM     12  O   LIG    1       21.845 -18.187  18.505  0.00  0.00    -0.422 OA
ATOM     13  C   LIG    1       20.659 -17.557  18.120  0.00  0.00    +0.341 A 
ATOM     14  O   LIG    1       19.682 -18.211  17.776  0.00  0.00    -0.245 OA
ATOM     15  C   LIG    1       20.639 -16.069  18.131  0.00  0.00    +0.041 A 
ENDROOT
BRANCH   6  16
ATOM     16  C   LIG    1       27.154 -14.196  18.916  0.00  0.00    -0.014 A 
ATOM     17  C   LIG    1       26.412 -13.260  18.193  0.00  0.00    +0.008 A 
ATOM     18  C   LIG    1       26.924 -11.975  17.964  0.00  0.00    +0.001 A 
ATOM     19  C   LIG    1       28.184 -11.612  18.443  0.00  0.00    +0.000 A 
ATOM     20  C   LIG    1       28.930 -12.526  19.173  0.00  0.00    +0.001 A 
ATOM     21  C   LIG    1       28.408 -13.796  19.424  0.00  0.00    +0.008 A 
ENDBRANCH   6  16
BRANCH  15  22
ATOM     22  C   LIG    1       19.462 -15.297  17.561  0.00  0.00    +0.054 C 
BRANCH  22  23
ATOM     23  C   LIG    1       18.315 -14.707  18.367  0.00  0.00    +0.128 C 
BRANCH  23  24
ATOM     24  C   LIG    1       17.159 -15.678  18.620  0.00  0.00    +0.332 C 
ATOM     25  O   LIG    1       17.146 -16.794  18.110  0.00  0.00    -0.249 OA
BRANCH  24  26
ATOM     26  O   LIG    1       16.255 -15.326  19.585  0.00  0.00    -0.337 OA
BRANCH  26  27
ATOM     27  N   LIG    1       15.095 -14.731  19.074  0.00  0.00    -0.064 N 
ATOM     28  C   LIG    1       14.941 -13.388  19.196  0.00  0.00    +0.255 C 
ATOM     29  O   LIG    1       15.705 -12.575  19.692  0.00  0.00    -0.272 OA
ATOM     30  C   LIG    1       13.627 -13.047  18.558  0.00  0.00    +0.109 C 
ATOM     31  C   LIG    1       12.842 -14.336  18.722  0.00  0.00    +0.109 C 
ATOM     32  C   LIG    1       13.889 -15.358  19.102  0.00  0.00    +0.255 C 
ATOM     33  O   LIG    1       13.630 -16.495  19.441  0.00  0.00    -0.272 OA
ENDBRANCH  26  27
ENDBRANCH  24  26
ENDBRANCH  23  24
ENDBRANCH  22  23
ENDBRANCH  15  22
TORSDOF 6
ENDMDL
MODEL 5
REMARK VINA RESULT:      -9.2      3.022     10.115
REMARK  Name = 
REMARK                            x       y       z     vdW  Elec       q    Type
REMARK                         _______ _______ _______ _____ _____    ______ ____
ROOT
ATOM      1  C   LIG    1       21.710 -13.819  18.670  0.00  0.00    +0.045 C 
ATOM      2  C   LIG    1       21.570 -15.321  18.592  0.00  0.00    -0.030 A 
ATOM      3  C   LIG    1       22.767 -16.084  18.956  0.00  0.00    +0.022 A 
ATOM      4  C   LIG    1       23.951 -15.423  19.296  0.00  0.00    +0.024 A 
ATOM      5  C   LIG    1       25.166 -16.113  19.237  0.00  0.00    +0.029 A 
ATOM      6  C   LIG    1       26.529 -15.709  19.147  0.00  0.00    +0.028 A 
ATOM      7  C   LIG    1       27.248 -16.887  19.141  0.00  0.00    +0.204 A 
ATOM      8  O   LIG    1       26.413 -17.971  19.132  0.00  0.00    -0.462 OA
ATOM      9  C   LIG    1       25.135 -17.494  19.117  0.00  0.00    +0.139 A 
ATOM     10  C   LIG    1       23.958 -18.230  18.949  0.00  0.00    +0.093 A 
ATOM     11  C   LIG    1       22.787 -17.465  18.803  0.00  0.00    +0.143 A 
ATOM     12  O   LIG    1       21.601 -18.132  18.426  0.00  0.00    -0.422 OA
ATOM     13  C   LIG    1       20.441 -17.446  18.061  0.00  0.00    +0.341 A 
ATOM     14  O   LIG    1       19.437 -18.052  17.706  0.00  0.00    -0.245 OA
ATOM     15  C   LIG    1       20.480 -15.959  18.109  0.00  0.00    +0.041 A 
ENDROOT
BRANCH   6  16
ATOM     16  C   LIG    1       27.068 -14.368  18.912  0.00  0.00    -0.014 A 
ATOM     17  C   LIG    1       26.352 -13.378  18.236  0.00  0.00    +0.008 A 
ATOM     18  C   LIG    1       26.914 -12.109  18.035  0.00  0.00    +0.001 A 
ATOM     19  C   LIG    1       28.199 -11.818  18.494  0.00  0.00    +0.000 A 
ATOM     20  C   LIG    1       28.921 -12.786  19.178  0.00  0.00    +0.001 A 
ATOM     21  C   LIG    1       28.349 -14.039  19.401  0.00  0.00    +0.008 A 
ENDBRANCH   6  16
BRANCH  15  22
ATOM     22  C   LIG    1       19.334 -15.127  17.562  0.00  0.00    +0.054 C 
BRANCH  22  23
ATOM     23  C   LIG    1       18.161 -14.593  18.372  0.00  0.00    +0.128 C 
BRANCH  23  24
ATOM     24  C   LIG    1       16.893 -15.444  18.279  0.00  0.00    +0.332 C 
ATOM     25  O   LIG    1       16.777 -16.481  18.926  0.00  0.00    -0.249 OA
BRANCH  24  26
ATOM     26  O   LIG    1       15.831 -14.901  17.610  0.00  0.00    -0.337 OA
BRANCH  26  27
ATOM     27  N   LIG    1       14.704 -14.703  18.418  0.00  0.00    -0.064 N 
ATOM     28  C   LIG    1       13.492 -15.117  17.964  0.00  0.00    +0.255 C 
ATOM     29  O   LIG    1       13.224 -15.681  16.915  0.00  0.00    -0.272 OA
ATOM     30  C   LIG    1       12.496 -14.782  19.033  0.00  0.00    +0.109 C 
ATOM     31  C   LIG    1       13.146 -13.596  19.723  0.00  0.00    +0.109 C 
ATOM     32  C   LIG    1       14.570 -13.611  19.216  0.00  0.00    +0.255 C 
ATOM     33  O   LIG    1       15.378 -12.734  19.448  0.00  0.00    -0.272 OA
ENDBRANCH  26  27
ENDBRANCH  24  26
ENDBRANCH  23  24
ENDBRANCH  22  23
ENDBRANCH  15  22
TORSDOF 6
ENDMDL
MODEL 6
REMARK VINA RESULT:      -8.3      2.907      9.832
REMARK  Name = 
REMARK                            x       y       z     vdW  Elec       q    Type
REMARK                         _______ _______ _______ _____ _____    ______ ____
ROOT
ATOM      1  C   LIG    1       21.864 -13.880  18.591  0.00  0.00    +0.045 C 
ATOM      2  C   LIG    1       21.791 -15.388  18.542  0.00  0.00    -0.030 A 
ATOM      3  C   LIG    1       23.013 -16.091  18.943  0.00  0.00    +0.022 A 
ATOM      4  C   LIG    1       24.160 -15.372  19.289  0.00  0.00    +0.024 A 
ATOM      5  C   LIG    1       25.405 -16.011  19.267  0.00  0.00    +0.029 A 
ATOM      6  C   LIG    1       26.751 -15.549  19.193  0.00  0.00    +0.028 A 
ATOM      7  C   LIG    1       27.520 -16.695  19.223  0.00  0.00    +0.204 A 
ATOM      8  O   LIG    1       26.733 -17.814  19.223  0.00  0.00    -0.462 OA
ATOM      9  C   LIG    1       25.435 -17.393  19.175  0.00  0.00    +0.139 A 
ATOM     10  C   LIG    1       24.295 -18.183  19.002  0.00  0.00    +0.093 A 
ATOM     11  C   LIG    1       23.095 -17.472  18.819  0.00  0.00    +0.143 A 
ATOM     12  O   LIG    1       21.946 -18.198  18.435  0.00  0.00    -0.422 OA
ATOM     13  C   LIG    1       20.764 -17.570  18.036  0.00  0.00    +0.341 A 
ATOM     14  O   LIG    1       19.794 -18.227  17.675  0.00  0.00    -0.245 OA
ATOM     15  C   LIG    1       20.738 -16.082  18.053  0.00  0.00    +0.041 A 
ENDROOT
BRANCH   6  16
ATOM     16  C   LIG    1       27.236 -14.191  18.938  0.00  0.00    -0.014 A 
ATOM     17  C   LIG    1       26.502 -13.256  18.207  0.00  0.00    +0.008 A 
ATOM     18  C   LIG    1       27.013 -11.968  17.990  0.00  0.00    +0.001 A 
ATOM     19  C   LIG    1       28.263 -11.602  18.490  0.00  0.00    +0.000 A 
ATOM     20  C   LIG    1       29.001 -12.515  19.230  0.00  0.00    +0.001 A 
ATOM     21  C   LIG    1       28.480 -13.788  19.467  0.00  0.00    +0.008 A 
ENDBRANCH   6  16
BRANCH  15  22
ATOM     22  C   LIG    1       19.568 -15.312  17.469  0.00  0.00    +0.054 C 
BRANCH  22  23
ATOM     23  C   LIG    1       18.693 -14.323  18.224  0.00  0.00    +0.128 C 
BRANCH  23  24
ATOM     24  C   LIG    1       17.257 -14.799  18.452  0.00  0.00    +0.332 C 
ATOM     25  O   LIG    1       16.365 -14.009  18.746  0.00  0.00    -0.249 OA
BRANCH  24  26
ATOM     26  O   LIG    1       16.975 -16.097  18.121  0.00  0.00    -0.337 OA
BRANCH  26  27
ATOM     27  N   LIG    1       16.143 -16.741  19.046  0.00  0.00    -0.064 N 
ATOM     28  C   LIG    1       16.570 -17.899  19.614  0.00  0.00    +0.255 C 
ATOM     29  O   LIG    1       17.629 -18.484  19.448  0.00  0.00    -0.272 OA
ATOM     30  C   LIG    1       15.487 -18.342  20.552  0.00  0.00    +0.109 C 
ATOM     31  C   LIG    1       14.246 -17.732  19.925  0.00  0.00    +0.109 C 
ATOM     32  C   LIG    1       14.789 -16.736  18.927  0.00  0.00    +0.255 C 
ATOM     33  O   LIG    1       14.097 -16.131  18.133  0.00  0.00    -0.272 OA
ENDBRANCH  26  27
ENDBRANCH  24  26
ENDBRANCH  23  24
ENDBRANCH  22  23
ENDBRANCH  15  22
TORSDOF 6
ENDMDL
