MODEL 1
REMARK VINA RESULT:      -9.1      0.000      0.000
REMARK  Name = 
REMARK                            x       y       z     vdW  Elec       q    Type
REMARK                         _______ _______ _______ _____ _____    ______ ____
ROOT
ATOM      1  C   LIG    1        4.933   7.181  -6.523  0.00  0.00    +0.045 C 
ATOM      2  C   LIG    1        4.893   8.286  -5.494  0.00  0.00    -0.030 A 
ATOM      3  C   LIG    1        5.675   9.482  -5.823  0.00  0.00    +0.022 A 
ATOM      4  C   LIG    1        6.432   9.529  -6.997  0.00  0.00    +0.024 A 
ATOM      5  C   LIG    1        7.471  10.459  -7.108  0.00  0.00    +0.029 A 
ATOM      6  C   LIG    1        8.629  10.554  -7.935  0.00  0.00    +0.028 A 
ATOM      7  C   LIG    1        9.242  11.729  -7.551  0.00  0.00    +0.204 A 
ATOM      8  O   LIG    1        8.586  12.302  -6.495  0.00  0.00    -0.462 OA
ATOM      9  C   LIG    1        7.543  11.483  -6.177  0.00  0.00    +0.139 A 
ATOM     10  C   LIG    1        6.693  11.584  -5.072  0.00  0.00    +0.093 A 
ATOM     11  C   LIG    1        5.807  10.506  -4.895  0.00  0.00    +0.143 A 
ATOM     12  O   LIG    1        5.069  10.444  -3.693  0.00  0.00    -0.422 OA
ATOM     13  C   LIG    1        4.319   9.322  -3.333  0.00  0.00    +0.341 A 
ATOM     14  O   LIG    1        3.717   9.284  -2.266  0.00  0.00    -0.245 OA
ATOM     15  C   LIG    1        4.295   8.179  -4.286  0.00  0.00    +0.041 A 
ENDROOT
BRANCH   6  16
ATOM     16  C   LIG    1        9.178   9.553  -8.851  0.00  0.00    -0.014 A 
ATOM     17  C   LIG    1        9.476   8.250  -8.450  0.00  0.00    +0.008 A 
ATOM     18  C   LIG    1       10.002   7.329  -9.368  0.00  0.00    +0.001 A 
ATOM     19  C   LIG    1       10.248   7.700 -10.690  0.00  0.00    +0.000 A 
ATOM     20  C   LIG    1        9.947   8.988 -11.109  0.00  0.00    +0.001 A 
ATOM     21  C   LIG    1        9.398   9.896 -10.202  0.00  0.00    +0.008 A 
ENDBRANCH   6  16
BRANCH  15  22
ATOM     22  C   LIG    1        3.658   6.855  -3.906  0.00  0.00    +0.054 C 
BRANCH  22  23
ATOM     23  C   LIG    1        4.149   5.917  -2.813  0.00  0.00    +0.128 C 
BRANCH  23  24
ATOM     24  C   LIG    1        3.116   5.627  -1.721  0.00  0.00    +0.332 C 
ATOM     25  O   LIG    1        3.377   4.879  -0.784  0.00  0.00    -0.249 OA
BRANCH  24  26
ATOM     26  O   LIG    1        1.978   6.386  -1.729  0.00  0.00    -0.337 OA
BRANCH  26  27
ATOM     27  N   LIG    1        1.047   6.007  -0.753  0.00  0.00    -0.064 N 
ATOM     28  C   LIG    1       -0.185   5.595  -1.149  0.00  0.00    +0.255 C 
ATOM     29  O   LIG    1       -0.622   5.482  -2.284  0.00  0.00    -0.272 OA
ATOM     30  C   LIG    1       -0.945   5.253   0.098  0.00  0.00    +0.109 C 
ATOM     31  C   LIG    1       -0.284   6.143   1.135  0.00  0.00    +0.109 C 
ATOM     32  C   LIG    1        0.983   6.617   0.460  0.00  0.00    +0.255 C 
ATOM     33  O   LIG    1        1.725   7.454   0.932  0.00  0.00    -0.272 OA
ENDBRANCH  26  27
ENDBRANCH  24  26
ENDBRANCH  23  24
ENDBRANCH  22  23
ENDBRANCH  15  22
TORSDOF 6
ENDMDL
MODEL 2
REMARK VINA RESULT:      -8.9      3.098      5.620
REMARK  Name = 
REMARK                            x       y       z     vdW  Elec       q    Type
REMARK                         _______ _______ _______ _____ _____    ______ ____
ROOT
ATOM      1  C   LIG    1        8.120   9.612  -8.203  0.00  0.00    +0.045 C 
ATOM      2  C   LIG    1        8.078   8.139  -7.876  0.00  0.00    -0.030 A 
ATOM      3  C   LIG    1        9.021   7.301  -8.622  0.00  0.00    +0.022 A 
ATOM      4  C   LIG    1        9.847   7.864  -9.599  0.00  0.00    +0.024 A 
ATOM      5  C   LIG    1       10.425   7.040 -10.570  0.00  0.00    +0.029 A 
ATOM      6  C   LIG    1       10.979   7.274 -11.862  0.00  0.00    +0.028 A 
ATOM      7  C   LIG    1       11.393   6.032 -12.300  0.00  0.00    +0.204 A 
ATOM      8  O   LIG    1       11.050   5.057 -11.403  0.00  0.00    -0.462 OA
ATOM      9  C   LIG    1       10.391   5.668 -10.377  0.00  0.00    +0.139 A 
ATOM     10  C   LIG    1        9.723   5.053  -9.314  0.00  0.00    +0.093 A 
ATOM     11  C   LIG    1        8.982   5.918  -8.488  0.00  0.00    +0.143 A 
ATOM     12  O   LIG    1        8.123   5.345  -7.526  0.00  0.00    -0.422 OA
ATOM     13  C   LIG    1        7.202   6.102  -6.799  0.00  0.00    +0.341 A 
ATOM     14  O   LIG    1        6.445   5.571  -5.996  0.00  0.00    -0.245 OA
ATOM     15  C   LIG    1        7.170   7.569  -7.052  0.00  0.00    +0.041 A 
ENDROOT
BRANCH   6  16
ATOM     16  C   LIG    1       10.949   8.503 -12.657  0.00  0.00    -0.014 A 
ATOM     17  C   LIG    1       12.023   8.913 -13.449  0.00  0.00    +0.008 A 
ATOM     18  C   LIG    1       11.944  10.100 -14.190  0.00  0.00    +0.001 A 
ATOM     19  C   LIG    1       10.799  10.897 -14.143  0.00  0.00    +0.000 A 
ATOM     20  C   LIG    1        9.717  10.498 -13.371  0.00  0.00    +0.001 A 
ATOM     21  C   LIG    1        9.787   9.303 -12.654  0.00  0.00    +0.008 A 
ENDBRANCH   6  16
BRANCH  15  22
ATOM     22  C   LIG    1        6.088   8.445  -6.446  0.00  0.00    +0.054 C 
BRANCH  22  23
ATOM     23  C   LIG    1        4.591   8.281  -6.660  0.00  0.00    +0.128 C 
BRANCH  23  24
ATOM     24  C   LIG    1        3.814   7.893  -5.401  0.00  0.00    +0.332 C 
ATOM     25  O   LIG    1        2.672   7.448  -5.472  0.00  0.00    -0.249 OA
BRANCH  24  26
ATOM     26  O   LIG    1        4.510   7.876  -4.224  0.00  0.00    -0.337 OA
BRANCH  26  27
ATOM     27  N   LIG    1        3.929   8.659  -3.218  0.00  0.00    -0.064 N 
ATOM     28  C   LIG    1        4.405   9.913  -3.009  0.00  0.00    +0.255 C 
ATOM     29  O   LIG    1        5.296  10.499  -3.604  0.00  0.00    -0.272 OA
ATOM     30  C   LIG    1        3.592  10.501  -1.893  0.00  0.00    +0.109 C 
ATOM     31  C   LIG    1        3.161   9.266  -1.121  0.00  0.00    +0.109 C 
ATOM     32  C   LIG    1        3.466   8.121  -2.059  0.00  0.00    +0.255 C 
ATOM     33  O   LIG    1        3.373   6.950  -1.747  0.00  0.00    -0.272 OA
ENDBRANCH  26  27
ENDBRANCH  24  26
ENDBRANCH  23  24
ENDBRANCH  22  23
ENDBRANCH  15  22
TORSDOF 6
ENDMDL
MODEL 3
REMARK VINA RESULT:      -8.9      7.775     13.482
REMARK  Name = 
REMARK                            x       y       z     vdW  Elec       q    Type
REMARK                         _______ _______ _______ _____ _____    ______ ____
ROOT
ATOM      1  C   LIG    1       13.992  12.734  -9.576  0.00  0.00    +0.045 C 
ATOM      2  C   LIG    1       13.277  13.533  -8.512  0.00  0.00    -0.030 A 
ATOM      3  C   LIG    1       12.095  12.891  -7.930  0.00  0.00    +0.022 A 
ATOM      4  C   LIG    1       11.667  11.644  -8.397  0.00  0.00    +0.024 A 
ATOM      5  C   LIG    1       10.352  11.233  -8.151  0.00  0.00    +0.029 A 
ATOM      6  C   LIG    1        9.491  10.267  -8.748  0.00  0.00    +0.028 A 
ATOM      7  C   LIG    1        8.318  10.345  -8.026  0.00  0.00    +0.204 A 
ATOM      8  O   LIG    1        8.380  11.346  -7.095  0.00  0.00    -0.462 OA
ATOM      9  C   LIG    1        9.602  11.939  -7.223  0.00  0.00    +0.139 A 
ATOM     10  C   LIG    1       10.050  13.101  -6.590  0.00  0.00    +0.093 A 
ATOM     11  C   LIG    1       11.294  13.586  -7.033  0.00  0.00    +0.143 A 
ATOM     12  O   LIG    1       11.708  14.860  -6.587  0.00  0.00    -0.422 OA
ATOM     13  C   LIG    1       12.820  15.514  -7.120  0.00  0.00    +0.341 A 
ATOM     14  O   LIG    1       13.135  16.635  -6.737  0.00  0.00    -0.245 OA
ATOM     15  C   LIG    1       13.593  14.804  -8.175  0.00  0.00    +0.041 A 
ENDROOT
BRANCH   6  16
ATOM     16  C   LIG    1        9.700   9.495  -9.975  0.00  0.00    -0.014 A 
ATOM     17  C   LIG    1       10.049   8.144  -9.962  0.00  0.00    +0.008 A 
ATOM     18  C   LIG    1       10.239   7.450 -11.166  0.00  0.00    +0.001 A 
ATOM     19  C   LIG    1       10.094   8.098 -12.393  0.00  0.00    +0.000 A 
ATOM     20  C   LIG    1        9.736   9.438 -12.425  0.00  0.00    +0.001 A 
ATOM     21  C   LIG    1        9.521  10.120 -11.226  0.00  0.00    +0.008 A 
ENDBRANCH   6  16
BRANCH  15  22
ATOM     22  C   LIG    1       14.705  15.502  -8.937  0.00  0.00    +0.054 C 
BRANCH  22  23
ATOM     23  C   LIG    1       16.195  15.333  -8.684  0.00  0.00    +0.128 C 
BRANCH  23  24
ATOM     24  C   LIG    1       16.999  14.913  -9.916  0.00  0.00    +0.332 C 
ATOM     25  O   LIG    1       18.049  15.477 -10.212  0.00  0.00    -0.249 OA
BRANCH  24  26
ATOM     26  O   LIG    1       16.606  13.766 -10.551  0.00  0.00    -0.337 OA
BRANCH  26  27
ATOM     27  N   LIG    1       16.978  13.719 -11.901  0.00  0.00    -0.064 N 
ATOM     28  C   LIG    1       16.157  14.280 -12.825  0.00  0.00    +0.255 C 
ATOM     29  O   LIG    1       15.100  14.865 -12.651  0.00  0.00    -0.272 OA
ATOM     30  C   LIG    1       16.815  14.083 -14.159  0.00  0.00    +0.109 C 
ATOM     31  C   LIG    1       17.640  12.828 -13.932  0.00  0.00    +0.109 C 
ATOM     32  C   LIG    1       17.644  12.659 -12.430  0.00  0.00    +0.255 C 
ATOM     33  O   LIG    1       18.104  11.688 -11.862  0.00  0.00    -0.272 OA
ENDBRANCH  26  27
ENDBRANCH  24  26
ENDBRANCH  23  24
ENDBRANCH  22  23
ENDBRANCH  15  22
TORSDOF 6
ENDMDL
MODEL 4
REMARK VINA RESULT:      -8.8      1.415      2.320
REMARK  Name = 
REMARK                            x       y       z     vdW  Elec       q    Type
REMARK                         _______ _______ _______ _____ _____    ______ ____
ROOT
ATOM      1  C   LIG    1        5.244   8.076  -6.649  0.00  0.00    +0.045 C 
ATOM      2  C   LIG    1        5.521   9.377  -5.934  0.00  0.00    -0.030 A 
ATOM      3  C   LIG    1        6.593  10.196  -6.508  0.00  0.00    +0.022 A 
ATOM      4  C   LIG    1        7.317   9.737  -7.612  0.00  0.00    +0.024 A 
ATOM      5  C   LIG    1        8.568  10.297  -7.894  0.00  0.00    +0.029 A 
ATOM      6  C   LIG    1        9.695   9.866  -8.653  0.00  0.00    +0.028 A 
ATOM      7  C   LIG    1       10.610  10.893  -8.541  0.00  0.00    +0.204 A 
ATOM      8  O   LIG    1       10.151  11.870  -7.701  0.00  0.00    -0.462 OA
ATOM      9  C   LIG    1        8.929  11.468  -7.247  0.00  0.00    +0.139 A 
ATOM     10  C   LIG    1        8.155  12.071  -6.251  0.00  0.00    +0.093 A 
ATOM     11  C   LIG    1        7.012  11.350  -5.859  0.00  0.00    +0.143 A 
ATOM     12  O   LIG    1        6.303  11.796  -4.723  0.00  0.00    -0.422 OA
ATOM     13  C   LIG    1        5.282  11.045  -4.136  0.00  0.00    +0.341 A 
ATOM     14  O   LIG    1        4.708  11.443  -3.129  0.00  0.00    -0.245 OA
ATOM     15  C   LIG    1        4.934   9.746  -4.772  0.00  0.00    +0.041 A 
ENDROOT
BRANCH   6  16
ATOM     16  C   LIG    1        9.939   8.555  -9.257  0.00  0.00    -0.014 A 
ATOM     17  C   LIG    1       10.005   7.381  -8.505  0.00  0.00    +0.008 A 
ATOM     18  C   LIG    1       10.243   6.150  -9.133  0.00  0.00    +0.001 A 
ATOM     19  C   LIG    1       10.427   6.077 -10.514  0.00  0.00    +0.000 A 
ATOM     20  C   LIG    1       10.352   7.232 -11.279  0.00  0.00    +0.001 A 
ATOM     21  C   LIG    1       10.089   8.453 -10.656  0.00  0.00    +0.008 A 
ENDBRANCH   6  16
BRANCH  15  22
ATOM     22  C   LIG    1        3.968   8.782  -4.109  0.00  0.00    +0.054 C 
BRANCH  22  23
ATOM     23  C   LIG    1        4.356   7.543  -3.316  0.00  0.00    +0.128 C 
BRANCH  23  24
ATOM     24  C   LIG    1        3.581   6.281  -3.701  0.00  0.00    +0.332 C 
ATOM     25  O   LIG    1        3.402   5.980  -4.877  0.00  0.00    -0.249 OA
BRANCH  24  26
ATOM     26  O   LIG    1        3.275   5.410  -2.690  0.00  0.00    -0.337 OA
BRANCH  26  27
ATOM     27  N   LIG    1        2.826   6.043  -1.524  0.00  0.00    -0.064 N 
ATOM     28  C   LIG    1        3.551   5.904  -0.384  0.00  0.00    +0.255 C 
ATOM     29  O   LIG    1        4.597   5.296  -0.216  0.00  0.00    -0.272 OA
ATOM     30  C   LIG    1        2.839   6.689   0.677  0.00  0.00    +0.109 C 
ATOM     31  C   LIG    1        1.400   6.658   0.192  0.00  0.00    +0.109 C 
ATOM     32  C   LIG    1        1.504   6.181  -1.239  0.00  0.00    +0.255 C 
ATOM     33  O   LIG    1        0.544   5.908  -1.930  0.00  0.00    -0.272 OA
ENDBRANCH  26  27
ENDBRANCH  24  26
ENDBRANCH  23  24
ENDBRANCH  22  23
ENDBRANCH  15  22
TORSDOF 6
ENDMDL
MODEL 5
REMARK VINA RESULT:      -8.7      8.149     11.087
REMARK  Name = 
REMARK                            x       y       z     vdW  Elec       q    Type
REMARK                         _______ _______ _______ _____ _____    ______ ____
ROOT
ATOM      1  C   LIG    1       11.673   1.410  -5.611  0.00  0.00    +0.045 C 
ATOM      2  C   LIG    1       10.927   2.022  -4.450  0.00  0.00    -0.030 A 
ATOM      3  C   LIG    1        9.790   2.873  -4.810  0.00  0.00    +0.022 A 
ATOM      4  C   LIG    1        9.486   3.115  -6.153  0.00  0.00    +0.024 A 
ATOM      5  C   LIG    1        8.696   4.219  -6.491  0.00  0.00    +0.029 A 
ATOM      6  C   LIG    1        8.497   4.962  -7.691  0.00  0.00    +0.028 A 
ATOM      7  C   LIG    1        7.572   5.930  -7.359  0.00  0.00    +0.204 A 
ATOM      8  O   LIG    1        7.264   5.878  -6.026  0.00  0.00    -0.462 OA
ATOM      9  C   LIG    1        8.011   4.875  -5.480  0.00  0.00    +0.139 A 
ATOM     10  C   LIG    1        8.143   4.559  -4.125  0.00  0.00    +0.093 A 
ATOM     11  C   LIG    1        9.111   3.583  -3.827  0.00  0.00    +0.143 A 
ATOM     12  O   LIG    1        9.440   3.366  -2.472  0.00  0.00    -0.422 OA
ATOM     13  C   LIG    1       10.521   2.571  -2.082  0.00  0.00    +0.341 A 
ATOM     14  O   LIG    1       10.803   2.430  -0.898  0.00  0.00    -0.245 OA
ATOM     15  C   LIG    1       11.317   1.922  -3.158  0.00  0.00    +0.041 A 
ENDROOT
BRANCH   6  16
ATOM     16  C   LIG    1        9.238   4.872  -8.951  0.00  0.00    -0.014 A 
ATOM     17  C   LIG    1        9.319   3.693  -9.694  0.00  0.00    +0.008 A 
ATOM     18  C   LIG    1       10.044   3.661 -10.894  0.00  0.00    +0.001 A 
ATOM     19  C   LIG    1       10.704   4.798 -11.360  0.00  0.00    +0.000 A 
ATOM     20  C   LIG    1       10.624   5.982 -10.641  0.00  0.00    +0.001 A 
ATOM     21  C   LIG    1        9.881   6.020  -9.460  0.00  0.00    +0.008 A 
ENDBRANCH   6  16
BRANCH  15  22
ATOM     22  C   LIG    1       12.609   1.190  -2.845  0.00  0.00    +0.054 C 
BRANCH  22  23
ATOM     23  C   LIG    1       14.001   1.803  -2.858  0.00  0.00    +0.128 C 
BRANCH  23  24
ATOM     24  C   LIG    1       14.678   1.801  -4.230  0.00  0.00    +0.332 C 
ATOM     25  O   LIG    1       15.435   2.707  -4.565  0.00  0.00    -0.249 OA
BRANCH  24  26
ATOM     26  O   LIG    1       14.560   0.660  -4.977  0.00  0.00    -0.337 OA
BRANCH  26  27
ATOM     27  N   LIG    1       15.467   0.594  -6.042  0.00  0.00    -0.064 N 
ATOM     28  C   LIG    1       14.987   0.609  -7.312  0.00  0.00    +0.255 C 
ATOM     29  O   LIG    1       13.828   0.693  -7.687  0.00  0.00    -0.272 OA
ATOM     30  C   LIG    1       16.176   0.536  -8.222  0.00  0.00    +0.109 C 
ATOM     31  C   LIG    1       17.198  -0.189  -7.364  0.00  0.00    +0.109 C 
ATOM     32  C   LIG    1       16.614  -0.132  -5.971  0.00  0.00    +0.255 C 
ATOM     33  O   LIG    1       17.087  -0.717  -5.017  0.00  0.00    -0.272 OA
ENDBRANCH  26  27
ENDBRANCH  24  26
ENDBRANCH  23  24
ENDBRANCH  22  23
ENDBRANCH  15  22
TORSDOF 6
ENDMDL
MODEL 6
REMARK VINA RESULT:      -8.5      4.296     10.367
REMARK  Name = 
REMARK                            x       y       z     vdW  Elec       q    Type
REMARK                         _______ _______ _______ _____ _____    ______ ____
ROOT
ATOM      1  C   LIG    1        6.713  10.170  -6.611  0.00  0.00    +0.045 C 
ATOM      2  C   LIG    1        6.343   8.710  -6.514  0.00  0.00    -0.030 A 
ATOM      3  C   LIG    1        5.321   8.384  -5.515  0.00  0.00    +0.022 A 
ATOM      4  C   LIG    1        4.791   9.385  -4.694  0.00  0.00    +0.024 A 
ATOM      5  C   LIG    1        4.152   9.029  -3.502  0.00  0.00    +0.029 A 
ATOM      6  C   LIG    1        3.841   9.730  -2.300  0.00  0.00    +0.028 A 
ATOM      7  C   LIG    1        3.186   8.805  -1.512  0.00  0.00    +0.204 A 
ATOM      8  O   LIG    1        3.158   7.577  -2.115  0.00  0.00    -0.462 OA
ATOM      9  C   LIG    1        3.816   7.699  -3.304  0.00  0.00    +0.139 A 
ATOM     10  C   LIG    1        4.170   6.673  -4.185  0.00  0.00    +0.093 A 
ATOM     11  C   LIG    1        4.994   7.059  -5.257  0.00  0.00    +0.143 A 
ATOM     12  O   LIG    1        5.555   6.044  -6.063  0.00  0.00    -0.422 OA
ATOM     13  C   LIG    1        6.538   6.306  -7.020  0.00  0.00    +0.341 A 
ATOM     14  O   LIG    1        7.031   5.399  -7.680  0.00  0.00    -0.245 OA
ATOM     15  C   LIG    1        6.968   7.720  -7.191  0.00  0.00    +0.041 A 
ENDROOT
BRANCH   6  16
ATOM     16  C   LIG    1        4.277  11.064  -1.885  0.00  0.00    -0.014 A 
ATOM     17  C   LIG    1        3.843  12.229  -2.520  0.00  0.00    +0.008 A 
ATOM     18  C   LIG    1        4.293  13.483  -2.083  0.00  0.00    +0.001 A 
ATOM     19  C   LIG    1        5.188  13.589  -1.018  0.00  0.00    +0.000 A 
ATOM     20  C   LIG    1        5.621  12.443  -0.367  0.00  0.00    +0.001 A 
ATOM     21  C   LIG    1        5.151  11.197  -0.785  0.00  0.00    +0.008 A 
ENDBRANCH   6  16
BRANCH  15  22
ATOM     22  C   LIG    1        8.150   8.078  -8.073  0.00  0.00    +0.054 C 
BRANCH  22  23
ATOM     23  C   LIG    1        9.513   7.402  -8.048  0.00  0.00    +0.128 C 
BRANCH  23  24
ATOM     24  C   LIG    1       10.232   7.384  -9.398  0.00  0.00    +0.332 C 
ATOM     25  O   LIG    1       11.142   6.591  -9.621  0.00  0.00    -0.249 OA
BRANCH  24  26
ATOM     26  O   LIG    1        9.689   8.142 -10.399  0.00  0.00    -0.337 OA
BRANCH  26  27
ATOM     27  N   LIG    1       10.411   8.083 -11.599  0.00  0.00    -0.064 N 
ATOM     28  C   LIG    1       10.830   9.243 -12.167  0.00  0.00    +0.255 C 
ATOM     29  O   LIG    1       10.682  10.386 -11.764  0.00  0.00    -0.272 OA
ATOM     30  C   LIG    1       11.570   8.866 -13.416  0.00  0.00    +0.109 C 
ATOM     31  C   LIG    1       10.924   7.544 -13.790  0.00  0.00    +0.109 C 
ATOM     32  C   LIG    1       10.156   7.146 -12.550  0.00  0.00    +0.255 C 
ATOM     33  O   LIG    1        9.401   6.196 -12.500  0.00  0.00    -0.272 OA
ENDBRANCH  26  27
ENDBRANCH  24  26
ENDBRANCH  23  24
ENDBRANCH  22  23
ENDBRANCH  15  22
TORSDOF 6
ENDMDL
MODEL 7
REMARK VINA RESULT:      -8.5      3.319      4.937
REMARK  Name = 
REMARK                            x       y       z     vdW  Elec       q    Type
REMARK                         _______ _______ _______ _____ _____    ______ ____
ROOT
ATOM      1  C   LIG    1        4.349   5.985  -3.880  0.00  0.00    +0.045 C 
ATOM      2  C   LIG    1        4.550   7.110  -4.867  0.00  0.00    -0.030 A 
ATOM      3  C   LIG    1        5.599   6.892  -5.866  0.00  0.00    +0.022 A 
ATOM      4  C   LIG    1        6.372   5.727  -5.837  0.00  0.00    +0.024 A 
ATOM      5  C   LIG    1        7.603   5.702  -6.499  0.00  0.00    +0.029 A 
ATOM      6  C   LIG    1        8.768   4.887  -6.390  0.00  0.00    +0.028 A 
ATOM      7  C   LIG    1        9.633   5.378  -7.346  0.00  0.00    +0.204 A 
ATOM      8  O   LIG    1        9.109   6.482  -7.963  0.00  0.00    -0.462 OA
ATOM      9  C   LIG    1        7.895   6.723  -7.390  0.00  0.00    +0.139 A 
ATOM     10  C   LIG    1        7.069   7.833  -7.591  0.00  0.00    +0.093 A 
ATOM     11  C   LIG    1        5.949   7.911  -6.743  0.00  0.00    +0.143 A 
ATOM     12  O   LIG    1        5.192   9.102  -6.752  0.00  0.00    -0.422 OA
ATOM     13  C   LIG    1        4.190   9.357  -5.813  0.00  0.00    +0.341 A 
ATOM     14  O   LIG    1        3.573  10.416  -5.824  0.00  0.00    -0.245 OA
ATOM     15  C   LIG    1        3.917   8.303  -4.798  0.00  0.00    +0.041 A 
ENDROOT
BRANCH   6  16
ATOM     16  C   LIG    1        9.085   3.883  -5.373  0.00  0.00    -0.014 A 
ATOM     17  C   LIG    1        9.705   2.671  -5.680  0.00  0.00    +0.008 A 
ATOM     18  C   LIG    1        9.986   1.742  -4.668  0.00  0.00    +0.001 A 
ATOM     19  C   LIG    1        9.641   2.006  -3.342  0.00  0.00    +0.000 A 
ATOM     20  C   LIG    1        9.035   3.211  -3.016  0.00  0.00    +0.001 A 
ATOM     21  C   LIG    1        8.781   4.146  -4.021  0.00  0.00    +0.008 A 
ENDBRANCH   6  16
BRANCH  15  22
ATOM     22  C   LIG    1        2.977   8.561  -3.634  0.00  0.00    +0.054 C 
BRANCH  22  23
ATOM     23  C   LIG    1        3.234   9.520  -2.482  0.00  0.00    +0.128 C 
BRANCH  23  24
ATOM     24  C   LIG    1        4.475   9.189  -1.651  0.00  0.00    +0.332 C 
ATOM     25  O   LIG    1        5.574   9.656  -1.938  0.00  0.00    -0.249 OA
BRANCH  24  26
ATOM     26  O   LIG    1        4.273   8.520  -0.475  0.00  0.00    -0.337 OA
BRANCH  26  27
ATOM     27  N   LIG    1        3.337   7.483  -0.576  0.00  0.00    -0.064 N 
ATOM     28  C   LIG    1        2.127   7.632   0.024  0.00  0.00    +0.255 C 
ATOM     29  O   LIG    1        1.702   8.587   0.654  0.00  0.00    -0.272 OA
ATOM     30  C   LIG    1        1.350   6.381  -0.261  0.00  0.00    +0.109 C 
ATOM     31  C   LIG    1        2.449   5.350  -0.441  0.00  0.00    +0.109 C 
ATOM     32  C   LIG    1        3.706   6.175  -0.592  0.00  0.00    +0.255 C 
ATOM     33  O   LIG    1        4.824   5.700  -0.633  0.00  0.00    -0.272 OA
ENDBRANCH  26  27
ENDBRANCH  24  26
ENDBRANCH  23  24
ENDBRANCH  22  23
ENDBRANCH  15  22
TORSDOF 6
ENDMDL
MODEL 8
REMARK VINA RESULT:      -8.0      6.792     10.606
REMARK  Name = 
REMARK                            x       y       z     vdW  Elec       q    Type
REMARK                         _______ _______ _______ _____ _____    ______ ____
ROOT
ATOM      1  C   LIG    1        7.589   4.654  -1.804  0.00  0.00    +0.045 C 
ATOM      2  C   LIG    1        7.775   4.665  -3.302  0.00  0.00    -0.030 A 
ATOM      3  C   LIG    1        6.827   5.496  -4.049  0.00  0.00    +0.022 A 
ATOM      4  C   LIG    1        5.803   6.173  -3.380  0.00  0.00    +0.024 A 
ATOM      5  C   LIG    1        4.685   6.611  -4.098  0.00  0.00    +0.029 A 
ATOM      6  C   LIG    1        3.356   6.976  -3.732  0.00  0.00    +0.028 A 
ATOM      7  C   LIG    1        2.748   7.329  -4.920  0.00  0.00    +0.204 A 
ATOM      8  O   LIG    1        3.585   7.121  -5.982  0.00  0.00    -0.462 OA
ATOM      9  C   LIG    1        4.748   6.611  -5.482  0.00  0.00    +0.139 A 
ATOM     10  C   LIG    1        5.830   6.103  -6.207  0.00  0.00    +0.093 A 
ATOM     11  C   LIG    1        6.831   5.483  -5.438  0.00  0.00    +0.143 A 
ATOM     12  O   LIG    1        7.844   4.771  -6.116  0.00  0.00    -0.422 OA
ATOM     13  C   LIG    1        8.763   3.959  -5.447  0.00  0.00    +0.341 A 
ATOM     14  O   LIG    1        9.610   3.326  -6.066  0.00  0.00    -0.245 OA
ATOM     15  C   LIG    1        8.660   3.885  -3.964  0.00  0.00    +0.041 A 
ENDROOT
BRANCH   6  16
ATOM     16  C   LIG    1        2.696   6.828  -2.434  0.00  0.00    -0.014 A 
ATOM     17  C   LIG    1        1.653   5.925  -2.219  0.00  0.00    +0.008 A 
ATOM     18  C   LIG    1        1.053   5.824  -0.956  0.00  0.00    +0.001 A 
ATOM     19  C   LIG    1        1.478   6.628   0.103  0.00  0.00    +0.000 A 
ATOM     20  C   LIG    1        2.521   7.522  -0.090  0.00  0.00    +0.001 A 
ATOM     21  C   LIG    1        3.136   7.603  -1.341  0.00  0.00    +0.008 A 
ENDBRANCH   6  16
BRANCH  15  22
ATOM     22  C   LIG    1        9.494   2.896  -3.169  0.00  0.00    +0.054 C 
BRANCH  22  23
ATOM     23  C   LIG    1       10.839   3.189  -2.522  0.00  0.00    +0.128 C 
BRANCH  23  24
ATOM     24  C   LIG    1       11.976   2.281  -2.993  0.00  0.00    +0.332 C 
ATOM     25  O   LIG    1       11.817   1.069  -3.101  0.00  0.00    -0.249 OA
BRANCH  24  26
ATOM     26  O   LIG    1       13.100   2.895  -3.474  0.00  0.00    -0.337 OA
BRANCH  26  27
ATOM     27  N   LIG    1       14.281   2.193  -3.200  0.00  0.00    -0.064 N 
ATOM     28  C   LIG    1       15.170   2.727  -2.323  0.00  0.00    +0.255 C 
ATOM     29  O   LIG    1       15.086   3.768  -1.691  0.00  0.00    -0.272 OA
ATOM     30  C   LIG    1       16.313   1.760  -2.228  0.00  0.00    +0.109 C 
ATOM     31  C   LIG    1       16.270   1.073  -3.582  0.00  0.00    +0.109 C 
ATOM     32  C   LIG    1       14.922   1.459  -4.147  0.00  0.00    +0.255 C 
ATOM     33  O   LIG    1       14.567   1.201  -5.280  0.00  0.00    -0.272 OA
ENDBRANCH  26  27
ENDBRANCH  24  26
ENDBRANCH  23  24
ENDBRANCH  22  23
ENDBRANCH  15  22
TORSDOF 6
ENDMDL
MODEL 9
REMARK VINA RESULT:      -8.0      3.750      5.871
REMARK  Name = 
REMARK                            x       y       z     vdW  Elec       q    Type
REMARK                         _______ _______ _______ _____ _____    ______ ____
ROOT
ATOM      1  C   LIG    1        4.153   5.513  -3.786  0.00  0.00    +0.045 C 
ATOM      2  C   LIG    1        4.245   6.644  -4.783  0.00  0.00    -0.030 A 
ATOM      3  C   LIG    1        5.329   6.532  -5.763  0.00  0.00    +0.022 A 
ATOM      4  C   LIG    1        6.224   5.460  -5.707  0.00  0.00    +0.024 A 
ATOM      5  C   LIG    1        7.462   5.563  -6.350  0.00  0.00    +0.029 A 
ATOM      6  C   LIG    1        8.708   4.883  -6.212  0.00  0.00    +0.028 A 
ATOM      7  C   LIG    1        9.530   5.456  -7.161  0.00  0.00    +0.204 A 
ATOM      8  O   LIG    1        8.899   6.489  -7.799  0.00  0.00    -0.462 OA
ATOM      9  C   LIG    1        7.655   6.601  -7.248  0.00  0.00    +0.139 A 
ATOM     10  C   LIG    1        6.716   7.611  -7.476  0.00  0.00    +0.093 A 
ATOM     11  C   LIG    1        5.580   7.574  -6.647  0.00  0.00    +0.143 A 
ATOM     12  O   LIG    1        4.697   8.674  -6.682  0.00  0.00    -0.422 OA
ATOM     13  C   LIG    1        3.657   8.828  -5.762  0.00  0.00    +0.341 A 
ATOM     14  O   LIG    1        2.927   9.812  -5.796  0.00  0.00    -0.245 OA
ATOM     15  C   LIG    1        3.484   7.761  -4.739  0.00  0.00    +0.041 A 
ENDROOT
BRANCH   6  16
ATOM     16  C   LIG    1        9.115   3.930  -5.178  0.00  0.00    -0.014 A 
ATOM     17  C   LIG    1        9.561   2.642  -5.476  0.00  0.00    +0.008 A 
ATOM     18  C   LIG    1        9.939   1.767  -4.447  0.00  0.00    +0.001 A 
ATOM     19  C   LIG    1        9.866   2.163  -3.111  0.00  0.00    +0.000 A 
ATOM     20  C   LIG    1        9.437   3.444  -2.797  0.00  0.00    +0.001 A 
ATOM     21  C   LIG    1        9.086   4.323  -3.823  0.00  0.00    +0.008 A 
ENDBRANCH   6  16
BRANCH  15  22
ATOM     22  C   LIG    1        2.502   7.925  -3.593  0.00  0.00    +0.054 C 
BRANCH  22  23
ATOM     23  C   LIG    1        2.766   8.681  -2.300  0.00  0.00    +0.128 C 
BRANCH  23  24
ATOM     24  C   LIG    1        4.205   8.573  -1.790  0.00  0.00    +0.332 C 
ATOM     25  O   LIG    1        4.564   7.620  -1.104  0.00  0.00    -0.249 OA
BRANCH  24  26
ATOM     26  O   LIG    1        5.109   9.468  -2.292  0.00  0.00    -0.337 OA
BRANCH  26  27
ATOM     27  N   LIG    1        4.806  10.801  -1.984  0.00  0.00    -0.064 N 
ATOM     28  C   LIG    1        4.716  11.701  -2.997  0.00  0.00    +0.255 C 
ATOM     29  O   LIG    1        4.847  11.515  -4.196  0.00  0.00    -0.272 OA
ATOM     30  C   LIG    1        4.377  13.020  -2.369  0.00  0.00    +0.109 C 
ATOM     31  C   LIG    1        4.965  12.877  -0.976  0.00  0.00    +0.109 C 
ATOM     32  C   LIG    1        5.250  11.399  -0.847  0.00  0.00    +0.255 C 
ATOM     33  O   LIG    1        5.844  10.905   0.090  0.00  0.00    -0.272 OA
ENDBRANCH  26  27
ENDBRANCH  24  26
ENDBRANCH  23  24
ENDBRANCH  22  23
ENDBRANCH  15  22
TORSDOF 6
ENDMDL
