MODEL 1
REMARK VINA RESULT:      -2.1      0.000      0.000
REMARK  Name = 
REMARK                            x       y       z     vdW  Elec       q    Type
REMARK                         _______ _______ _______ _____ _____    ______ ____
ROOT
ATOM      1  C   LIG    1        1.737  30.290   2.902  0.00  0.00    +0.045 C 
ATOM      2  C   LIG    1        1.085  29.591   4.071  0.00  0.00    -0.030 A 
ATOM      3  C   LIG    1        0.252  30.439   4.927  0.00  0.00    +0.022 A 
ATOM      4  C   LIG    1        0.141  31.809   4.671  0.00  0.00    +0.024 A 
ATOM      5  C   LIG    1       -0.294  32.666   5.687  0.00  0.00    +0.029 A 
ATOM      6  C   LIG    1       -0.183  34.069   5.912  0.00  0.00    +0.028 A 
ATOM      7  C   LIG    1       -0.841  34.289   7.105  0.00  0.00    +0.204 A 
ATOM      8  O   LIG    1       -1.265  33.110   7.657  0.00  0.00    -0.462 OA
ATOM      9  C   LIG    1       -0.863  32.109   6.822  0.00  0.00    +0.139 A 
ATOM     10  C   LIG    1       -0.937  30.732   7.054  0.00  0.00    +0.093 A 
ATOM     11  C   LIG    1       -0.294  29.926   6.097  0.00  0.00    +0.143 A 
ATOM     12  O   LIG    1       -0.153  28.549   6.375  0.00  0.00    -0.422 OA
ATOM     13  C   LIG    1        0.638  27.705   5.593  0.00  0.00    +0.341 A 
ATOM     14  O   LIG    1        0.769  26.521   5.880  0.00  0.00    -0.245 OA
ATOM     15  C   LIG    1        1.321  28.304   4.414  0.00  0.00    +0.041 A 
ENDROOT
BRANCH   6  16
ATOM     16  C   LIG    1        0.613  35.050   5.172  0.00  0.00    -0.014 A 
ATOM     17  C   LIG    1        1.562  35.867   5.788  0.00  0.00    +0.008 A 
ATOM     18  C   LIG    1        2.298  36.792   5.033  0.00  0.00    +0.001 A 
ATOM     19  C   LIG    1        2.087  36.920   3.660  0.00  0.00    +0.000 A 
ATOM     20  C   LIG    1        1.156  36.108   3.029  0.00  0.00    +0.001 A 
ATOM     21  C   LIG    1        0.444  35.169   3.777  0.00  0.00    +0.008 A 
ENDBRANCH   6  16
BRANCH  15  22
ATOM     22  C   LIG    1        2.339  27.513   3.613  0.00  0.00    +0.054 C 
BRANCH  22  23
ATOM     23  C   LIG    1        3.813  27.361   3.955  0.00  0.00    +0.128 C 
BRANCH  23  24
ATOM     24  C   LIG    1        4.087  27.017   5.421  0.00  0.00    +0.332 C 
ATOM     25  O   LIG    1        3.999  25.863   5.829  0.00  0.00    -0.249 OA
BRANCH  24  26
ATOM     26  O   LIG    1        4.621  28.007   6.200  0.00  0.00    -0.337 OA
BRANCH  26  27
ATOM     27  N   LIG    1        4.280  29.298   5.775  0.00  0.00    -0.064 N 
ATOM     28  C   LIG    1        5.192  30.017   5.072  0.00  0.00    +0.255 C 
ATOM     29  O   LIG    1        6.314  29.688   4.719  0.00  0.00    -0.272 OA
ATOM     30  C   LIG    1        4.549  31.333   4.753  0.00  0.00    +0.109 C 
ATOM     31  C   LIG    1        3.556  31.493   5.892  0.00  0.00    +0.109 C 
ATOM     32  C   LIG    1        3.491  30.118   6.517  0.00  0.00    +0.255 C 
ATOM     33  O   LIG    1        2.890  29.873   7.544  0.00  0.00    -0.272 OA
ENDBRANCH  26  27
ENDBRANCH  24  26
ENDBRANCH  23  24
ENDBRANCH  22  23
ENDBRANCH  15  22
TORSDOF 6
ENDMDL
MODEL 2
REMARK VINA RESULT:       0.3      1.891      4.461
REMARK  Name = 
REMARK                            x       y       z     vdW  Elec       q    Type
REMARK                         _______ _______ _______ _____ _____    ______ ____
ROOT
ATOM      1  C   LIG    1        2.489  30.216   7.587  0.00  0.00    +0.045 C 
ATOM      2  C   LIG    1        3.452  30.517   6.463  0.00  0.00    -0.030 A 
ATOM      3  C   LIG    1        3.316  31.844   5.855  0.00  0.00    +0.022 A 
ATOM      4  C   LIG    1        2.313  32.718   6.284  0.00  0.00    +0.024 A 
ATOM      5  C   LIG    1        1.923  33.776   5.457  0.00  0.00    +0.029 A 
ATOM      6  C   LIG    1        0.759  34.596   5.383  0.00  0.00    +0.028 A 
ATOM      7  C   LIG    1        1.008  35.470   4.344  0.00  0.00    +0.204 A 
ATOM      8  O   LIG    1        2.198  35.180   3.733  0.00  0.00    -0.462 OA
ATOM      9  C   LIG    1        2.723  34.094   4.371  0.00  0.00    +0.139 A 
ATOM     10  C   LIG    1        3.848  33.353   3.995  0.00  0.00    +0.093 A 
ATOM     11  C   LIG    1        4.068  32.178   4.736  0.00  0.00    +0.143 A 
ATOM     12  O   LIG    1        5.059  31.282   4.280  0.00  0.00    -0.422 OA
ATOM     13  C   LIG    1        5.218  30.005   4.823  0.00  0.00    +0.341 A 
ATOM     14  O   LIG    1        6.064  29.235   4.382  0.00  0.00    -0.245 OA
ATOM     15  C   LIG    1        4.314  29.616   5.939  0.00  0.00    +0.041 A 
ENDROOT
BRANCH   6  16
ATOM     16  C   LIG    1       -0.510  34.441   6.096  0.00  0.00    -0.014 A 
ATOM     17  C   LIG    1       -1.745  34.460   5.445  0.00  0.00    +0.008 A 
ATOM     18  C   LIG    1       -2.932  34.309   6.175  0.00  0.00    +0.001 A 
ATOM     19  C   LIG    1       -2.903  34.150   7.561  0.00  0.00    +0.000 A 
ATOM     20  C   LIG    1       -1.684  34.117   8.223  0.00  0.00    +0.001 A 
ATOM     21  C   LIG    1       -0.501  34.240   7.492  0.00  0.00    +0.008 A 
ENDBRANCH   6  16
BRANCH  15  22
ATOM     22  C   LIG    1        4.290  28.194   6.470  0.00  0.00    +0.054 C 
BRANCH  22  23
ATOM     23  C   LIG    1        3.358  27.088   6.001  0.00  0.00    +0.128 C 
BRANCH  23  24
ATOM     24  C   LIG    1        3.277  26.935   4.481  0.00  0.00    +0.332 C 
ATOM     25  O   LIG    1        4.123  26.298   3.861  0.00  0.00    -0.249 OA
BRANCH  24  26
ATOM     26  O   LIG    1        2.126  27.364   3.876  0.00  0.00    -0.337 OA
BRANCH  26  27
ATOM     27  N   LIG    1        1.463  28.371   4.588  0.00  0.00    -0.064 N 
ATOM     28  C   LIG    1        0.491  28.018   5.468  0.00  0.00    +0.255 C 
ATOM     29  O   LIG    1        0.100  26.900   5.764  0.00  0.00    -0.272 OA
ATOM     30  C   LIG    1       -0.022  29.291   6.074  0.00  0.00    +0.109 C 
ATOM     31  C   LIG    1        0.255  30.306   4.979  0.00  0.00    +0.109 C 
ATOM     32  C   LIG    1        1.197  29.587   4.041  0.00  0.00    +0.255 C 
ATOM     33  O   LIG    1        1.551  30.033   2.968  0.00  0.00    -0.272 OA
ENDBRANCH  26  27
ENDBRANCH  24  26
ENDBRANCH  23  24
ENDBRANCH  22  23
ENDBRANCH  15  22
TORSDOF 6
ENDMDL
