MODEL 1
REMARK VINA RESULT:      -9.9      0.000      0.000
REMARK  Name = 
REMARK                            x       y       z     vdW  Elec       q    Type
REMARK                         _______ _______ _______ _____ _____    ______ ____
ROOT
ATOM      1  C   LIG    1      -43.725  12.835 -42.676  0.00  0.00    +0.045 C 
ATOM      2  C   LIG    1      -43.451  12.069 -43.948  0.00  0.00    -0.030 A 
ATOM      3  C   LIG    1      -44.506  11.140 -44.363  0.00  0.00    +0.022 A 
ATOM      4  C   LIG    1      -45.648  10.970 -43.575  0.00  0.00    +0.024 A 
ATOM      5  C   LIG    1      -46.432   9.824 -43.739  0.00  0.00    +0.029 A 
ATOM      6  C   LIG    1      -47.389   9.156 -42.921  0.00  0.00    +0.028 A 
ATOM      7  C   LIG    1      -47.811   8.080 -43.676  0.00  0.00    +0.204 A 
ATOM      8  O   LIG    1      -47.114   8.003 -44.852  0.00  0.00    -0.462 OA
ATOM      9  C   LIG    1      -46.217   9.031 -44.855  0.00  0.00    +0.139 A 
ATOM     10  C   LIG    1      -45.192   9.257 -45.779  0.00  0.00    +0.093 A 
ATOM     11  C   LIG    1      -44.305  10.298 -45.449  0.00  0.00    +0.143 A 
ATOM     12  O   LIG    1      -43.136  10.445 -46.227  0.00  0.00    -0.422 OA
ATOM     13  C   LIG    1      -42.101  11.309 -45.864  0.00  0.00    +0.341 A 
ATOM     14  O   LIG    1      -41.082  11.390 -46.541  0.00  0.00    -0.245 OA
ATOM     15  C   LIG    1      -42.280  12.111 -44.624  0.00  0.00    +0.041 A 
ENDROOT
BRANCH   6  16
ATOM     16  C   LIG    1      -47.724   9.409 -41.518  0.00  0.00    -0.014 A 
ATOM     17  C   LIG    1      -48.686  10.344 -41.132  0.00  0.00    +0.008 A 
ATOM     18  C   LIG    1      -48.968  10.550 -39.774  0.00  0.00    +0.001 A 
ATOM     19  C   LIG    1      -48.287   9.836 -38.787  0.00  0.00    +0.000 A 
ATOM     20  C   LIG    1      -47.336   8.894 -39.153  0.00  0.00    +0.001 A 
ATOM     21  C   LIG    1      -47.075   8.671 -40.506  0.00  0.00    +0.008 A 
ENDBRANCH   6  16
BRANCH  15  22
ATOM     22  C   LIG    1      -41.142  12.940 -44.054  0.00  0.00    +0.054 C 
BRANCH  22  23
ATOM     23  C   LIG    1      -40.450  14.097 -44.758  0.00  0.00    +0.128 C 
BRANCH  23  24
ATOM     24  C   LIG    1      -40.952  15.480 -44.338  0.00  0.00    +0.332 C 
ATOM     25  O   LIG    1      -41.005  15.804 -43.155  0.00  0.00    -0.249 OA
BRANCH  24  26
ATOM     26  O   LIG    1      -41.145  16.398 -45.335  0.00  0.00    -0.337 OA
BRANCH  26  27
ATOM     27  N   LIG    1      -40.312  17.519 -45.232  0.00  0.00    -0.064 N 
ATOM     28  C   LIG    1      -40.866  18.756 -45.317  0.00  0.00    +0.255 C 
ATOM     29  O   LIG    1      -42.041  19.056 -45.459  0.00  0.00    -0.272 OA
ATOM     30  C   LIG    1      -39.744  19.740 -45.166  0.00  0.00    +0.109 C 
ATOM     31  C   LIG    1      -38.550  18.952 -45.676  0.00  0.00    +0.109 C 
ATOM     32  C   LIG    1      -39.045  17.525 -45.724  0.00  0.00    +0.255 C 
ATOM     33  O   LIG    1      -38.409  16.607 -46.202  0.00  0.00    -0.272 OA
ENDBRANCH  26  27
ENDBRANCH  24  26
ENDBRANCH  23  24
ENDBRANCH  22  23
ENDBRANCH  15  22
TORSDOF 6
ENDMDL
MODEL 2
REMARK VINA RESULT:      -9.6      3.129      9.676
REMARK  Name = 
REMARK                            x       y       z     vdW  Elec       q    Type
REMARK                         _______ _______ _______ _____ _____    ______ ____
ROOT
ATOM      1  C   LIG    1      -42.089  14.853 -43.875  0.00  0.00    +0.045 C 
ATOM      2  C   LIG    1      -40.819  14.442 -44.581  0.00  0.00    -0.030 A 
ATOM      3  C   LIG    1      -39.907  15.537 -44.925  0.00  0.00    +0.022 A 
ATOM      4  C   LIG    1      -40.256  16.861 -44.646  0.00  0.00    +0.024 A 
ATOM      5  C   LIG    1      -39.610  17.900 -45.323  0.00  0.00    +0.029 A 
ATOM      6  C   LIG    1      -39.930  19.267 -45.573  0.00  0.00    +0.028 A 
ATOM      7  C   LIG    1      -38.859  19.754 -46.296  0.00  0.00    +0.204 A 
ATOM      8  O   LIG    1      -37.961  18.759 -46.574  0.00  0.00    -0.462 OA
ATOM      9  C   LIG    1      -38.460  17.607 -46.039  0.00  0.00    +0.139 A 
ATOM     10  C   LIG    1      -37.963  16.311 -46.207  0.00  0.00    +0.093 A 
ATOM     11  C   LIG    1      -38.770  15.285 -45.683  0.00  0.00    +0.143 A 
ATOM     12  O   LIG    1      -38.433  13.950 -45.996  0.00  0.00    -0.422 OA
ATOM     13  C   LIG    1      -39.276  12.877 -45.696  0.00  0.00    +0.341 A 
ATOM     14  O   LIG    1      -38.972  11.733 -46.012  0.00  0.00    -0.245 OA
ATOM     15  C   LIG    1      -40.553  13.183 -44.997  0.00  0.00    +0.041 A 
ENDROOT
BRANCH   6  16
ATOM     16  C   LIG    1      -41.186  19.971 -45.312  0.00  0.00    -0.014 A 
ATOM     17  C   LIG    1      -42.365  19.689 -46.005  0.00  0.00    +0.008 A 
ATOM     18  C   LIG    1      -43.542  20.393 -45.717  0.00  0.00    +0.001 A 
ATOM     19  C   LIG    1      -43.555  21.394 -44.744  0.00  0.00    +0.000 A 
ATOM     20  C   LIG    1      -42.396  21.679 -44.037  0.00  0.00    +0.001 A 
ATOM     21  C   LIG    1      -41.232  20.958 -44.305  0.00  0.00    +0.008 A 
ENDBRANCH   6  16
BRANCH  15  22
ATOM     22  C   LIG    1      -41.609  12.112 -44.791  0.00  0.00    +0.054 C 
BRANCH  22  23
ATOM     23  C   LIG    1      -42.666  11.701 -45.805  0.00  0.00    +0.128 C 
BRANCH  23  24
ATOM     24  C   LIG    1      -44.084  12.159 -45.459  0.00  0.00    +0.332 C 
ATOM     25  O   LIG    1      -44.519  13.234 -45.861  0.00  0.00    -0.249 OA
BRANCH  24  26
ATOM     26  O   LIG    1      -44.902  11.241 -44.859  0.00  0.00    -0.337 OA
BRANCH  26  27
ATOM     27  N   LIG    1      -46.191  11.726 -44.602  0.00  0.00    -0.064 N 
ATOM     28  C   LIG    1      -46.588  11.876 -43.312  0.00  0.00    +0.255 C 
ATOM     29  O   LIG    1      -45.956  11.661 -42.290  0.00  0.00    -0.272 OA
ATOM     30  C   LIG    1      -47.989  12.411 -43.354  0.00  0.00    +0.109 C 
ATOM     31  C   LIG    1      -48.499  11.882 -44.683  0.00  0.00    +0.109 C 
ATOM     32  C   LIG    1      -47.250  11.420 -45.398  0.00  0.00    +0.255 C 
ATOM     33  O   LIG    1      -47.260  10.817 -46.452  0.00  0.00    -0.272 OA
ENDBRANCH  26  27
ENDBRANCH  24  26
ENDBRANCH  23  24
ENDBRANCH  22  23
ENDBRANCH  15  22
TORSDOF 6
ENDMDL
MODEL 3
REMARK VINA RESULT:      -9.6      5.718      8.919
REMARK  Name = 
REMARK                            x       y       z     vdW  Elec       q    Type
REMARK                         _______ _______ _______ _____ _____    ______ ____
ROOT
ATOM      1  C   LIG    1      -47.796   9.448 -47.691  0.00  0.00    +0.045 C 
ATOM      2  C   LIG    1      -47.860   8.360 -46.646  0.00  0.00    -0.030 A 
ATOM      3  C   LIG    1      -49.045   7.499 -46.706  0.00  0.00    +0.022 A 
ATOM      4  C   LIG    1      -50.047   7.741 -47.651  0.00  0.00    +0.024 A 
ATOM      5  C   LIG    1      -51.324   7.208 -47.450  0.00  0.00    +0.029 A 
ATOM      6  C   LIG    1      -52.618   7.525 -47.957  0.00  0.00    +0.028 A 
ATOM      7  C   LIG    1      -53.463   6.605 -47.370  0.00  0.00    +0.204 A 
ATOM      8  O   LIG    1      -52.787   5.815 -46.480  0.00  0.00    -0.462 OA
ATOM      9  C   LIG    1      -51.488   6.236 -46.476  0.00  0.00    +0.139 A 
ATOM     10  C   LIG    1      -50.469   5.826 -45.612  0.00  0.00    +0.093 A 
ATOM     11  C   LIG    1      -49.265   6.546 -45.720  0.00  0.00    +0.143 A 
ATOM     12  O   LIG    1      -48.270   6.325 -44.743  0.00  0.00    -0.422 OA
ATOM     13  C   LIG    1      -47.130   7.125 -44.642  0.00  0.00    +0.341 A 
ATOM     14  O   LIG    1      -46.300   6.930 -43.762  0.00  0.00    -0.245 OA
ATOM     15  C   LIG    1      -46.976   8.226 -45.632  0.00  0.00    +0.041 A 
ENDROOT
BRANCH   6  16
ATOM     16  C   LIG    1      -53.024   8.679 -48.761  0.00  0.00    -0.014 A 
ATOM     17  C   LIG    1      -52.701   8.804 -50.114  0.00  0.00    +0.008 A 
ATOM     18  C   LIG    1      -53.113   9.932 -50.839  0.00  0.00    +0.001 A 
ATOM     19  C   LIG    1      -53.840  10.950 -50.222  0.00  0.00    +0.000 A 
ATOM     20  C   LIG    1      -54.180  10.837 -48.882  0.00  0.00    +0.001 A 
ATOM     21  C   LIG    1      -53.792   9.702 -48.168  0.00  0.00    +0.008 A 
ENDBRANCH   6  16
BRANCH  15  22
ATOM     22  C   LIG    1      -45.868   9.255 -45.494  0.00  0.00    +0.054 C 
BRANCH  22  23
ATOM     23  C   LIG    1      -45.593  10.102 -44.260  0.00  0.00    +0.128 C 
BRANCH  23  24
ATOM     24  C   LIG    1      -46.530  11.300 -44.098  0.00  0.00    +0.332 C 
ATOM     25  O   LIG    1      -47.319  11.613 -44.984  0.00  0.00    -0.249 OA
BRANCH  24  26
ATOM     26  O   LIG    1      -46.588  11.877 -42.858  0.00  0.00    -0.337 OA
BRANCH  26  27
ATOM     27  N   LIG    1      -47.491  11.248 -41.991  0.00  0.00    -0.064 N 
ATOM     28  C   LIG    1      -48.669  11.863 -41.714  0.00  0.00    +0.255 C 
ATOM     29  O   LIG    1      -49.092  12.927 -42.140  0.00  0.00    -0.272 OA
ATOM     30  C   LIG    1      -49.417  10.959 -40.780  0.00  0.00    +0.109 C 
ATOM     31  C   LIG    1      -48.293  10.211 -40.084  0.00  0.00    +0.109 C 
ATOM     32  C   LIG    1      -47.077  10.504 -40.931  0.00  0.00    +0.255 C 
ATOM     33  O   LIG    1      -45.947  10.178 -40.626  0.00  0.00    -0.272 OA
ENDBRANCH  26  27
ENDBRANCH  24  26
ENDBRANCH  23  24
ENDBRANCH  22  23
ENDBRANCH  15  22
TORSDOF 6
ENDMDL
MODEL 4
REMARK VINA RESULT:      -9.4      2.663      9.799
REMARK  Name = 
REMARK                            x       y       z     vdW  Elec       q    Type
REMARK                         _______ _______ _______ _____ _____    ______ ____
ROOT
ATOM      1  C   LIG    1      -42.097  14.863 -43.749  0.00  0.00    +0.045 C 
ATOM      2  C   LIG    1      -40.866  14.412 -44.498  0.00  0.00    -0.030 A 
ATOM      3  C   LIG    1      -39.938  15.479 -44.885  0.00  0.00    +0.022 A 
ATOM      4  C   LIG    1      -40.241  16.815 -44.604  0.00  0.00    +0.024 A 
ATOM      5  C   LIG    1      -39.593  17.831 -45.313  0.00  0.00    +0.029 A 
ATOM      6  C   LIG    1      -39.884  19.203 -45.563  0.00  0.00    +0.028 A 
ATOM      7  C   LIG    1      -38.829  19.656 -46.329  0.00  0.00    +0.204 A 
ATOM      8  O   LIG    1      -37.970  18.635 -46.632  0.00  0.00    -0.462 OA
ATOM      9  C   LIG    1      -38.479  17.500 -46.069  0.00  0.00    +0.139 A 
ATOM     10  C   LIG    1      -38.024  16.191 -46.245  0.00  0.00    +0.093 A 
ATOM     11  C   LIG    1      -38.838  15.191 -45.683  0.00  0.00    +0.143 A 
ATOM     12  O   LIG    1      -38.550  13.845 -45.997  0.00  0.00    -0.422 OA
ATOM     13  C   LIG    1      -39.409  12.798 -45.657  0.00  0.00    +0.341 A 
ATOM     14  O   LIG    1      -39.148  11.643 -45.974  0.00  0.00    -0.245 OA
ATOM     15  C   LIG    1      -40.650  13.143 -44.913  0.00  0.00    +0.041 A 
ENDROOT
BRANCH   6  16
ATOM     16  C   LIG    1      -41.111  19.943 -45.260  0.00  0.00    -0.014 A 
ATOM     17  C   LIG    1      -41.152  20.982 -44.328  0.00  0.00    +0.008 A 
ATOM     18  C   LIG    1      -42.354  21.658 -44.074  0.00  0.00    +0.001 A 
ATOM     19  C   LIG    1      -43.528  21.300 -44.737  0.00  0.00    +0.000 A 
ATOM     20  C   LIG    1      -43.503  20.278 -45.675  0.00  0.00    +0.001 A 
ATOM     21  C   LIG    1      -42.301  19.624 -45.947  0.00  0.00    +0.008 A 
ENDBRANCH   6  16
BRANCH  15  22
ATOM     22  C   LIG    1      -41.727  12.103 -44.658  0.00  0.00    +0.054 C 
BRANCH  22  23
ATOM     23  C   LIG    1      -42.945  11.855 -45.535  0.00  0.00    +0.128 C 
BRANCH  23  24
ATOM     24  C   LIG    1      -44.284  12.099 -44.837  0.00  0.00    +0.332 C 
ATOM     25  O   LIG    1      -45.220  12.629 -45.428  0.00  0.00    -0.249 OA
BRANCH  24  26
ATOM     26  O   LIG    1      -44.454  11.527 -43.605  0.00  0.00    -0.337 OA
BRANCH  26  27
ATOM     27  N   LIG    1      -45.619  10.757 -43.503  0.00  0.00    -0.064 N 
ATOM     28  C   LIG    1      -46.536  11.080 -42.555  0.00  0.00    +0.255 C 
ATOM     29  O   LIG    1      -46.508  11.998 -41.750  0.00  0.00    -0.272 OA
ATOM     30  C   LIG    1      -47.660  10.097 -42.692  0.00  0.00    +0.109 C 
ATOM     31  C   LIG    1      -46.961   8.885 -43.281  0.00  0.00    +0.109 C 
ATOM     32  C   LIG    1      -45.623   9.418 -43.738  0.00  0.00    +0.255 C 
ATOM     33  O   LIG    1      -44.724   8.715 -44.154  0.00  0.00    -0.272 OA
ENDBRANCH  26  27
ENDBRANCH  24  26
ENDBRANCH  23  24
ENDBRANCH  22  23
ENDBRANCH  15  22
TORSDOF 6
ENDMDL
MODEL 5
REMARK VINA RESULT:      -9.1      4.998      7.776
REMARK  Name = 
REMARK                            x       y       z     vdW  Elec       q    Type
REMARK                         _______ _______ _______ _____ _____    ______ ____
ROOT
ATOM      1  C   LIG    1      -48.514   9.956 -46.387  0.00  0.00    +0.045 C 
ATOM      2  C   LIG    1      -48.512   8.571 -45.788  0.00  0.00    -0.030 A 
ATOM      3  C   LIG    1      -49.572   7.677 -46.263  0.00  0.00    +0.022 A 
ATOM      4  C   LIG    1      -50.529   8.138 -47.172  0.00  0.00    +0.024 A 
ATOM      5  C   LIG    1      -51.740   7.450 -47.303  0.00  0.00    +0.029 A 
ATOM      6  C   LIG    1      -53.026   7.800 -47.809  0.00  0.00    +0.028 A 
ATOM      7  C   LIG    1      -53.786   6.657 -47.662  0.00  0.00    +0.204 A 
ATOM      8  O   LIG    1      -53.078   5.674 -47.027  0.00  0.00    -0.462 OA
ATOM      9  C   LIG    1      -51.846   6.187 -46.741  0.00  0.00    +0.139 A 
ATOM     10  C   LIG    1      -50.844   5.600 -45.963  0.00  0.00    +0.093 A 
ATOM     11  C   LIG    1      -49.737   6.423 -45.689  0.00  0.00    +0.143 A 
ATOM     12  O   LIG    1      -48.790   5.969 -44.745  0.00  0.00    -0.422 OA
ATOM     13  C   LIG    1      -47.770   6.788 -44.256  0.00  0.00    +0.341 A 
ATOM     14  O   LIG    1      -46.984   6.377 -43.411  0.00  0.00    -0.245 OA
ATOM     15  C   LIG    1      -47.689   8.175 -44.790  0.00  0.00    +0.041 A 
ENDROOT
BRANCH   6  16
ATOM     16  C   LIG    1      -53.518   9.119 -48.211  0.00  0.00    -0.014 A 
ATOM     17  C   LIG    1      -54.150   9.989 -47.322  0.00  0.00    +0.008 A 
ATOM     18  C   LIG    1      -54.604  11.242 -47.759  0.00  0.00    +0.001 A 
ATOM     19  C   LIG    1      -54.445  11.635 -49.088  0.00  0.00    +0.000 A 
ATOM     20  C   LIG    1      -53.809  10.787 -49.984  0.00  0.00    +0.001 A 
ATOM     21  C   LIG    1      -53.332   9.552 -49.541  0.00  0.00    +0.008 A 
ENDBRANCH   6  16
BRANCH  15  22
ATOM     22  C   LIG    1      -46.732   9.191 -44.193  0.00  0.00    +0.054 C 
BRANCH  22  23
ATOM     23  C   LIG    1      -47.053  10.150 -43.056  0.00  0.00    +0.128 C 
BRANCH  23  24
ATOM     24  C   LIG    1      -46.261  11.458 -43.094  0.00  0.00    +0.332 C 
ATOM     25  O   LIG    1      -46.023  12.086 -42.066  0.00  0.00    -0.249 OA
BRANCH  24  26
ATOM     26  O   LIG    1      -45.665  11.788 -44.281  0.00  0.00    -0.337 OA
BRANCH  26  27
ATOM     27  N   LIG    1      -44.341  12.222 -44.140  0.00  0.00    -0.064 N 
ATOM     28  C   LIG    1      -43.958  13.366 -44.763  0.00  0.00    +0.255 C 
ATOM     29  O   LIG    1      -44.629  14.123 -45.447  0.00  0.00    -0.272 OA
ATOM     30  C   LIG    1      -42.512  13.576 -44.426  0.00  0.00    +0.109 C 
ATOM     31  C   LIG    1      -42.028  12.158 -44.177  0.00  0.00    +0.109 C 
ATOM     32  C   LIG    1      -43.301  11.352 -44.051  0.00  0.00    +0.255 C 
ATOM     33  O   LIG    1      -43.326  10.140 -43.970  0.00  0.00    -0.272 OA
ENDBRANCH  26  27
ENDBRANCH  24  26
ENDBRANCH  23  24
ENDBRANCH  22  23
ENDBRANCH  15  22
TORSDOF 6
ENDMDL
MODEL 6
REMARK VINA RESULT:      -9.0      6.046     10.635
REMARK  Name = 
REMARK                            x       y       z     vdW  Elec       q    Type
REMARK                         _______ _______ _______ _____ _____    ______ ____
ROOT
ATOM      1  C   LIG    1      -50.067   7.272 -45.799  0.00  0.00    +0.045 C 
ATOM      2  C   LIG    1      -49.254   7.873 -46.921  0.00  0.00    -0.030 A 
ATOM      3  C   LIG    1      -48.185   8.785 -46.505  0.00  0.00    +0.022 A 
ATOM      4  C   LIG    1      -48.002   9.089 -45.153  0.00  0.00    +0.024 A 
ATOM      5  C   LIG    1      -47.286  10.237 -44.797  0.00  0.00    +0.029 A 
ATOM      6  C   LIG    1      -47.216  11.031 -43.616  0.00  0.00    +0.028 A 
ATOM      7  C   LIG    1      -46.306  12.025 -43.912  0.00  0.00    +0.204 A 
ATOM      8  O   LIG    1      -45.889  11.938 -45.213  0.00  0.00    -0.462 OA
ATOM      9  C   LIG    1      -46.548  10.884 -45.776  0.00  0.00    +0.139 A 
ATOM     10  C   LIG    1      -46.556  10.513 -47.123  0.00  0.00    +0.093 A 
ATOM     11  C   LIG    1      -47.457   9.486 -47.458  0.00  0.00    +0.143 A 
ATOM     12  O   LIG    1      -47.666   9.206 -48.826  0.00  0.00    -0.422 OA
ATOM     13  C   LIG    1      -48.678   8.352 -49.268  0.00  0.00    +0.341 A 
ATOM     14  O   LIG    1      -48.857   8.155 -50.465  0.00  0.00    -0.245 OA
ATOM     15  C   LIG    1      -49.533   7.708 -48.234  0.00  0.00    +0.041 A 
ENDROOT
BRANCH   6  16
ATOM     16  C   LIG    1      -48.053  10.957 -42.417  0.00  0.00    -0.014 A 
ATOM     17  C   LIG    1      -48.913  11.988 -42.035  0.00  0.00    +0.008 A 
ATOM     18  C   LIG    1      -49.693  11.867 -40.876  0.00  0.00    +0.001 A 
ATOM     19  C   LIG    1      -49.616  10.723 -40.080  0.00  0.00    +0.000 A 
ATOM     20  C   LIG    1      -48.777   9.683 -40.452  0.00  0.00    +0.001 A 
ATOM     21  C   LIG    1      -48.021   9.793 -41.620  0.00  0.00    +0.008 A 
ENDBRANCH   6  16
BRANCH  15  22
ATOM     22  C   LIG    1      -50.765   6.910 -48.621  0.00  0.00    +0.054 C 
BRANCH  22  23
ATOM     23  C   LIG    1      -52.105   7.496 -49.042  0.00  0.00    +0.128 C 
BRANCH  23  24
ATOM     24  C   LIG    1      -53.262   7.165 -48.097  0.00  0.00    +0.332 C 
ATOM     25  O   LIG    1      -53.099   6.429 -47.128  0.00  0.00    -0.249 OA
BRANCH  24  26
ATOM     26  O   LIG    1      -54.419   7.876 -48.263  0.00  0.00    -0.337 OA
BRANCH  26  27
ATOM     27  N   LIG    1      -54.239   9.085 -48.947  0.00  0.00    -0.064 N 
ATOM     28  C   LIG    1      -54.326  10.249 -48.252  0.00  0.00    +0.255 C 
ATOM     29  O   LIG    1      -54.530  10.411 -47.060  0.00  0.00    -0.272 OA
ATOM     30  C   LIG    1      -54.084  11.355 -49.236  0.00  0.00    +0.109 C 
ATOM     31  C   LIG    1      -54.543  10.733 -50.543  0.00  0.00    +0.109 C 
ATOM     32  C   LIG    1      -54.654   9.259 -50.230  0.00  0.00    +0.255 C 
ATOM     33  O   LIG    1      -55.117   8.439 -50.997  0.00  0.00    -0.272 OA
ENDBRANCH  26  27
ENDBRANCH  24  26
ENDBRANCH  23  24
ENDBRANCH  22  23
ENDBRANCH  15  22
TORSDOF 6
ENDMDL
MODEL 7
REMARK VINA RESULT:      -8.7      2.128      3.882
REMARK  Name = 
REMARK                            x       y       z     vdW  Elec       q    Type
REMARK                         _______ _______ _______ _____ _____    ______ ____
ROOT
ATOM      1  C   LIG    1      -42.300  11.480 -46.346  0.00  0.00    +0.045 C 
ATOM      2  C   LIG    1      -42.369  12.262 -45.055  0.00  0.00    -0.030 A 
ATOM      3  C   LIG    1      -43.377  11.804 -44.095  0.00  0.00    +0.022 A 
ATOM      4  C   LIG    1      -44.230  10.744 -44.418  0.00  0.00    +0.024 A 
ATOM      5  C   LIG    1      -45.424  10.582 -43.707  0.00  0.00    +0.029 A 
ATOM      6  C   LIG    1      -46.647   9.900 -43.973  0.00  0.00    +0.028 A 
ATOM      7  C   LIG    1      -47.425  10.121 -42.854  0.00  0.00    +0.204 A 
ATOM      8  O   LIG    1      -46.793  10.957 -41.974  0.00  0.00    -0.462 OA
ATOM      9  C   LIG    1      -45.596  11.298 -42.533  0.00  0.00    +0.139 A 
ATOM     10  C   LIG    1      -44.685  12.251 -42.068  0.00  0.00    +0.093 A 
ATOM     11  C   LIG    1      -43.608  12.525 -42.930  0.00  0.00    +0.143 A 
ATOM     12  O   LIG    1      -42.769  13.617 -42.619  0.00  0.00    -0.422 OA
ATOM     13  C   LIG    1      -41.803  14.094 -43.508  0.00  0.00    +0.341 A 
ATOM     14  O   LIG    1      -41.113  15.066 -43.224  0.00  0.00    -0.245 OA
ATOM     15  C   LIG    1      -41.658  13.385 -44.808  0.00  0.00    +0.041 A 
ENDROOT
BRANCH   6  16
ATOM     16  C   LIG    1      -47.086   9.270 -45.219  0.00  0.00    -0.014 A 
ATOM     17  C   LIG    1      -47.494   7.936 -45.285  0.00  0.00    +0.008 A 
ATOM     18  C   LIG    1      -47.905   7.381 -46.505  0.00  0.00    +0.001 A 
ATOM     19  C   LIG    1      -47.903   8.143 -47.673  0.00  0.00    +0.000 A 
ATOM     20  C   LIG    1      -47.512   9.474 -47.624  0.00  0.00    +0.001 A 
ATOM     21  C   LIG    1      -47.130  10.033 -46.404  0.00  0.00    +0.008 A 
ENDBRANCH   6  16
BRANCH  15  22
ATOM     22  C   LIG    1      -40.764  13.936 -45.905  0.00  0.00    +0.054 C 
BRANCH  22  23
ATOM     23  C   LIG    1      -39.244  13.972 -45.875  0.00  0.00    +0.128 C 
BRANCH  23  24
ATOM     24  C   LIG    1      -38.648  15.382 -45.854  0.00  0.00    +0.332 C 
ATOM     25  O   LIG    1      -37.540  15.595 -45.370  0.00  0.00    -0.249 OA
BRANCH  24  26
ATOM     26  O   LIG    1      -39.308  16.344 -46.568  0.00  0.00    -0.337 OA
BRANCH  26  27
ATOM     27  N   LIG    1      -39.544  17.518 -45.840  0.00  0.00    -0.064 N 
ATOM     28  C   LIG    1      -40.819  17.824 -45.488  0.00  0.00    +0.255 C 
ATOM     29  O   LIG    1      -41.841  17.193 -45.703  0.00  0.00    -0.272 OA
ATOM     30  C   LIG    1      -40.755  19.112 -44.722  0.00  0.00    +0.109 C 
ATOM     31  C   LIG    1      -39.506  19.765 -45.289  0.00  0.00    +0.109 C 
ATOM     32  C   LIG    1      -38.814  18.648 -46.036  0.00  0.00    +0.255 C 
ATOM     33  O   LIG    1      -37.834  18.810 -46.735  0.00  0.00    -0.272 OA
ENDBRANCH  26  27
ENDBRANCH  24  26
ENDBRANCH  23  24
ENDBRANCH  22  23
ENDBRANCH  15  22
TORSDOF 6
ENDMDL
MODEL 8
REMARK VINA RESULT:      -8.6      6.503      9.272
REMARK  Name = 
REMARK                            x       y       z     vdW  Elec       q    Type
REMARK                         _______ _______ _______ _____ _____    ______ ____
ROOT
ATOM      1  C   LIG    1      -49.787   6.530 -45.002  0.00  0.00    +0.045 C 
ATOM      2  C   LIG    1      -48.540   7.058 -45.670  0.00  0.00    -0.030 A 
ATOM      3  C   LIG    1      -48.732   7.618 -47.011  0.00  0.00    +0.022 A 
ATOM      4  C   LIG    1      -49.994   7.596 -47.611  0.00  0.00    +0.024 A 
ATOM      5  C   LIG    1      -50.098   7.739 -48.999  0.00  0.00    +0.029 A 
ATOM      6  C   LIG    1      -51.105   7.412 -49.953  0.00  0.00    +0.028 A 
ATOM      7  C   LIG    1      -50.590   7.825 -51.166  0.00  0.00    +0.204 A 
ATOM      8  O   LIG    1      -49.313   8.296 -51.022  0.00  0.00    -0.462 OA
ATOM      9  C   LIG    1      -48.986   8.173 -49.703  0.00  0.00    +0.139 A 
ATOM     10  C   LIG    1      -47.733   8.382 -49.118  0.00  0.00    +0.093 A 
ATOM     11  C   LIG    1      -47.635   8.019 -47.763  0.00  0.00    +0.143 A 
ATOM     12  O   LIG    1      -46.354   8.010 -47.169  0.00  0.00    -0.422 OA
ATOM     13  C   LIG    1      -46.122   7.478 -45.899  0.00  0.00    +0.341 A 
ATOM     14  O   LIG    1      -44.993   7.452 -45.424  0.00  0.00    -0.245 OA
ATOM     15  C   LIG    1      -47.293   6.934 -45.160  0.00  0.00    +0.041 A 
ENDROOT
BRANCH   6  16
ATOM     16  C   LIG    1      -52.330   6.635 -49.756  0.00  0.00    -0.014 A 
ATOM     17  C   LIG    1      -53.313   7.002 -48.836  0.00  0.00    +0.008 A 
ATOM     18  C   LIG    1      -54.468   6.222 -48.684  0.00  0.00    +0.001 A 
ATOM     19  C   LIG    1      -54.650   5.062 -49.438  0.00  0.00    +0.000 A 
ATOM     20  C   LIG    1      -53.688   4.688 -50.366  0.00  0.00    +0.001 A 
ATOM     21  C   LIG    1      -52.552   5.480 -50.535  0.00  0.00    +0.008 A 
ENDBRANCH   6  16
BRANCH  15  22
ATOM     22  C   LIG    1      -47.115   6.176 -43.856  0.00  0.00    +0.054 C 
BRANCH  22  23
ATOM     23  C   LIG    1      -46.513   6.741 -42.578  0.00  0.00    +0.128 C 
BRANCH  23  24
ATOM     24  C   LIG    1      -46.642   8.259 -42.438  0.00  0.00    +0.332 C 
ATOM     25  O   LIG    1      -45.648   8.974 -42.343  0.00  0.00    -0.249 OA
BRANCH  24  26
ATOM     26  O   LIG    1      -47.887   8.795 -42.624  0.00  0.00    -0.337 OA
BRANCH  26  27
ATOM     27  N   LIG    1      -47.888  10.194 -42.700  0.00  0.00    -0.064 N 
ATOM     28  C   LIG    1      -48.549  10.900 -41.746  0.00  0.00    +0.255 C 
ATOM     29  O   LIG    1      -49.157  10.483 -40.774  0.00  0.00    -0.272 OA
ATOM     30  C   LIG    1      -48.367  12.350 -42.084  0.00  0.00    +0.109 C 
ATOM     31  C   LIG    1      -48.172  12.311 -43.589  0.00  0.00    +0.109 C 
ATOM     32  C   LIG    1      -47.911  10.853 -43.888  0.00  0.00    +0.255 C 
ATOM     33  O   LIG    1      -47.828  10.399 -45.012  0.00  0.00    -0.272 OA
ENDBRANCH  26  27
ENDBRANCH  24  26
ENDBRANCH  23  24
ENDBRANCH  22  23
ENDBRANCH  15  22
TORSDOF 6
ENDMDL
MODEL 9
REMARK VINA RESULT:      -8.4      3.174      9.529
REMARK  Name = 
REMARK                            x       y       z     vdW  Elec       q    Type
REMARK                         _______ _______ _______ _____ _____    ______ ____
ROOT
ATOM      1  C   LIG    1      -42.686  10.629 -46.142  0.00  0.00    +0.045 C 
ATOM      2  C   LIG    1      -43.091  11.304 -44.854  0.00  0.00    -0.030 A 
ATOM      3  C   LIG    1      -42.574  12.662 -44.664  0.00  0.00    +0.022 A 
ATOM      4  C   LIG    1      -41.723  13.233 -45.616  0.00  0.00    +0.024 A 
ATOM      5  C   LIG    1      -40.920  14.320 -45.256  0.00  0.00    +0.029 A 
ATOM      6  C   LIG    1      -39.732  14.893 -45.796  0.00  0.00    +0.028 A 
ATOM      7  C   LIG    1      -39.451  15.965 -44.974  0.00  0.00    +0.204 A 
ATOM      8  O   LIG    1      -40.333  16.027 -43.929  0.00  0.00    -0.462 OA
ATOM      9  C   LIG    1      -41.189  14.972 -44.063  0.00  0.00    +0.139 A 
ATOM     10  C   LIG    1      -42.155  14.545 -43.147  0.00  0.00    +0.093 A 
ATOM     11  C   LIG    1      -42.784  13.327 -43.463  0.00  0.00    +0.143 A 
ATOM     12  O   LIG    1      -43.615  12.736 -42.486  0.00  0.00    -0.422 OA
ATOM     13  C   LIG    1      -44.122  11.442 -42.619  0.00  0.00    +0.341 A 
ATOM     14  O   LIG    1      -44.812  10.943 -41.738  0.00  0.00    -0.245 OA
ATOM     15  C   LIG    1      -43.778  10.695 -43.860  0.00  0.00    +0.041 A 
ENDROOT
BRANCH   6  16
ATOM     16  C   LIG    1      -38.870  14.370 -46.858  0.00  0.00    -0.014 A 
ATOM     17  C   LIG    1      -38.688  15.032 -48.073  0.00  0.00    +0.008 A 
ATOM     18  C   LIG    1      -37.852  14.488 -49.058  0.00  0.00    +0.001 A 
ATOM     19  C   LIG    1      -37.198  13.273 -48.847  0.00  0.00    +0.000 A 
ATOM     20  C   LIG    1      -37.359  12.607 -47.641  0.00  0.00    +0.001 A 
ATOM     21  C   LIG    1      -38.170  13.163 -46.651  0.00  0.00    +0.008 A 
ENDBRANCH   6  16
BRANCH  15  22
ATOM     22  C   LIG    1      -44.131   9.227 -44.014  0.00  0.00    +0.054 C 
BRANCH  22  23
ATOM     23  C   LIG    1      -45.535   8.664 -44.171  0.00  0.00    +0.128 C 
BRANCH  23  24
ATOM     24  C   LIG    1      -46.511   9.597 -44.892  0.00  0.00    +0.332 C 
ATOM     25  O   LIG    1      -46.229  10.090 -45.980  0.00  0.00    -0.249 OA
BRANCH  24  26
ATOM     26  O   LIG    1      -47.773   9.694 -44.373  0.00  0.00    -0.337 OA
BRANCH  26  27
ATOM     27  N   LIG    1      -47.881  10.633 -43.339  0.00  0.00    -0.064 N 
ATOM     28  C   LIG    1      -48.091  10.190 -42.073  0.00  0.00    +0.255 C 
ATOM     29  O   LIG    1      -48.187   9.040 -41.674  0.00  0.00    -0.272 OA
ATOM     30  C   LIG    1      -48.153  11.406 -41.197  0.00  0.00    +0.109 C 
ATOM     31  C   LIG    1      -48.638  12.475 -42.161  0.00  0.00    +0.109 C 
ATOM     32  C   LIG    1      -48.459  11.849 -43.525  0.00  0.00    +0.255 C 
ATOM     33  O   LIG    1      -48.854  12.355 -44.556  0.00  0.00    -0.272 OA
ENDBRANCH  26  27
ENDBRANCH  24  26
ENDBRANCH  23  24
ENDBRANCH  22  23
ENDBRANCH  15  22
TORSDOF 6
ENDMDL
