MODEL 1
REMARK VINA RESULT:      -3.2      0.000      0.000
REMARK  Name = 
REMARK                            x       y       z     vdW  Elec       q    Type
REMARK                         _______ _______ _______ _____ _____    ______ ____
ROOT
ATOM      1  C   LIG    1       25.609 -29.840 -12.788  0.00  0.00    +0.045 C 
ATOM      2  C   LIG    1       24.352 -30.011 -11.969  0.00  0.00    -0.030 A 
ATOM      3  C   LIG    1       23.472 -28.840 -11.914  0.00  0.00    +0.022 A 
ATOM      4  C   LIG    1       23.840 -27.650 -12.549  0.00  0.00    +0.024 A 
ATOM      5  C   LIG    1       23.234 -26.450 -12.163  0.00  0.00    +0.029 A 
ATOM      6  C   LIG    1       23.587 -25.076 -12.300  0.00  0.00    +0.028 A 
ATOM      7  C   LIG    1       22.548 -24.383 -11.712  0.00  0.00    +0.204 A 
ATOM      8  O   LIG    1       21.639 -25.242 -11.155  0.00  0.00    -0.462 OA
ATOM      9  C   LIG    1       22.099 -26.508 -11.369  0.00  0.00    +0.139 A 
ATOM     10  C   LIG    1       21.582 -27.697 -10.846  0.00  0.00    +0.093 A 
ATOM     11  C   LIG    1       22.353 -28.847 -11.091  0.00  0.00    +0.143 A 
ATOM     12  O   LIG    1       22.000 -30.039 -10.421  0.00  0.00    -0.422 OA
ATOM     13  C   LIG    1       22.811 -31.175 -10.438  0.00  0.00    +0.341 A 
ATOM     14  O   LIG    1       22.495 -32.183  -9.817  0.00  0.00    -0.245 OA
ATOM     15  C   LIG    1       24.074 -31.104 -11.222  0.00  0.00    +0.041 A 
ENDROOT
BRANCH   6  16
ATOM     16  C   LIG    1       24.849 -24.503 -12.771  0.00  0.00    -0.014 A 
ATOM     17  C   LIG    1       24.957 -23.183 -13.214  0.00  0.00    +0.008 A 
ATOM     18  C   LIG    1       26.190 -22.683 -13.656  0.00  0.00    +0.001 A 
ATOM     19  C   LIG    1       27.325 -23.495 -13.672  0.00  0.00    +0.000 A 
ATOM     20  C   LIG    1       27.239 -24.805 -13.223  0.00  0.00    +0.001 A 
ATOM     21  C   LIG    1       26.017 -25.293 -12.758  0.00  0.00    +0.008 A 
ENDBRANCH   6  16
BRANCH  15  22
ATOM     22  C   LIG    1       25.102 -32.218 -11.155  0.00  0.00    +0.054 C 
BRANCH  22  23
ATOM     23  C   LIG    1       26.244 -32.312 -10.154  0.00  0.00    +0.128 C 
BRANCH  23  24
ATOM     24  C   LIG    1       27.123 -31.063 -10.082  0.00  0.00    +0.332 C 
ATOM     25  O   LIG    1       27.905 -30.784 -10.986  0.00  0.00    -0.249 OA
BRANCH  24  26
ATOM     26  O   LIG    1       26.858 -30.175  -9.075  0.00  0.00    -0.337 OA
BRANCH  26  27
ATOM     27  N   LIG    1       26.778 -28.846  -9.508  0.00  0.00    -0.064 N 
ATOM     28  C   LIG    1       27.871 -28.049  -9.380  0.00  0.00    +0.255 C 
ATOM     29  O   LIG    1       28.974 -28.334  -8.939  0.00  0.00    -0.272 OA
ATOM     30  C   LIG    1       27.491 -26.706  -9.928  0.00  0.00    +0.109 C 
ATOM     31  C   LIG    1       25.988 -26.680  -9.708  0.00  0.00    +0.109 C 
ATOM     32  C   LIG    1       25.637 -28.116  -9.396  0.00  0.00    +0.255 C 
ATOM     33  O   LIG    1       24.534 -28.478  -9.037  0.00  0.00    -0.272 OA
ENDBRANCH  26  27
ENDBRANCH  24  26
ENDBRANCH  23  24
ENDBRANCH  22  23
ENDBRANCH  15  22
TORSDOF 6
ENDMDL
