MODEL 1
REMARK VINA RESULT:      -0.2      0.000      0.000
REMARK  Name = 
REMARK                            x       y       z     vdW  Elec       q    Type
REMARK                         _______ _______ _______ _____ _____    ______ ____
ROOT
ATOM      1  C   LIG    1       21.426  47.143  14.330  0.00  0.00    +0.045 C 
ATOM      2  C   LIG    1       21.562  47.975  15.583  0.00  0.00    -0.030 A 
ATOM      3  C   LIG    1       20.419  47.927  16.498  0.00  0.00    +0.022 A 
ATOM      4  C   LIG    1       19.279  47.188  16.167  0.00  0.00    +0.024 A 
ATOM      5  C   LIG    1       18.069  47.465  16.810  0.00  0.00    +0.029 A 
ATOM      6  C   LIG    1       16.702  47.206  16.499  0.00  0.00    +0.028 A 
ATOM      7  C   LIG    1       15.992  47.731  17.560  0.00  0.00    +0.204 A 
ATOM      8  O   LIG    1       16.825  48.363  18.443  0.00  0.00    -0.462 OA
ATOM      9  C   LIG    1       18.091  48.262  17.944  0.00  0.00    +0.139 A 
ATOM     10  C   LIG    1       19.244  48.890  18.425  0.00  0.00    +0.093 A 
ATOM     11  C   LIG    1       20.387  48.748  17.618  0.00  0.00    +0.143 A 
ATOM     12  O   LIG    1       21.524  49.521  17.936  0.00  0.00    -0.422 OA
ATOM     13  C   LIG    1       22.632  49.605  17.089  0.00  0.00    +0.341 A 
ATOM     14  O   LIG    1       23.591  50.313  17.376  0.00  0.00    -0.245 OA
ATOM     15  C   LIG    1       22.592  48.817  15.828  0.00  0.00    +0.041 A 
ENDROOT
BRANCH   6  16
ATOM     16  C   LIG    1       16.134  46.686  15.254  0.00  0.00    -0.014 A 
ATOM     17  C   LIG    1       15.910  45.325  15.041  0.00  0.00    +0.008 A 
ATOM     18  C   LIG    1       15.365  44.878  13.829  0.00  0.00    +0.001 A 
ATOM     19  C   LIG    1       15.047  45.780  12.813  0.00  0.00    +0.000 A 
ATOM     20  C   LIG    1       15.252  47.138  13.012  0.00  0.00    +0.001 A 
ATOM     21  C   LIG    1       15.770  47.584  14.229  0.00  0.00    +0.008 A 
ENDBRANCH   6  16
BRANCH  15  22
ATOM     22  C   LIG    1       23.664  48.982  14.766  0.00  0.00    +0.054 C 
BRANCH  22  23
ATOM     23  C   LIG    1       23.620  49.969  13.609  0.00  0.00    +0.128 C 
BRANCH  23  24
ATOM     24  C   LIG    1       22.897  49.449  12.364  0.00  0.00    +0.332 C 
ATOM     25  O   LIG    1       23.449  48.674  11.588  0.00  0.00    -0.249 OA
BRANCH  24  26
ATOM     26  O   LIG    1       21.561  49.723  12.265  0.00  0.00    -0.337 OA
BRANCH  26  27
ATOM     27  N   LIG    1       21.055  50.440  13.357  0.00  0.00    -0.064 N 
ATOM     28  C   LIG    1       19.826  50.118  13.838  0.00  0.00    +0.255 C 
ATOM     29  O   LIG    1       19.065  49.243  13.458  0.00  0.00    -0.272 OA
ATOM     30  C   LIG    1       19.563  51.037  14.994  0.00  0.00    +0.109 C 
ATOM     31  C   LIG    1       20.401  52.253  14.638  0.00  0.00    +0.109 C 
ATOM     32  C   LIG    1       21.307  51.764  13.531  0.00  0.00    +0.255 C 
ATOM     33  O   LIG    1       22.045  52.489  12.895  0.00  0.00    -0.272 OA
ENDBRANCH  26  27
ENDBRANCH  24  26
ENDBRANCH  23  24
ENDBRANCH  22  23
ENDBRANCH  15  22
TORSDOF 6
ENDMDL
MODEL 2
REMARK VINA RESULT:      -0.0      2.617      6.410
REMARK  Name = 
REMARK                            x       y       z     vdW  Elec       q    Type
REMARK                         _______ _______ _______ _____ _____    ______ ____
ROOT
ATOM      1  C   LIG    1       20.634  49.626  18.233  0.00  0.00    +0.045 C 
ATOM      2  C   LIG    1       19.806  48.385  17.999  0.00  0.00    -0.030 A 
ATOM      3  C   LIG    1       20.121  47.638  16.778  0.00  0.00    +0.022 A 
ATOM      4  C   LIG    1       21.096  48.109  15.894  0.00  0.00    +0.024 A 
ATOM      5  C   LIG    1       21.107  47.647  14.574  0.00  0.00    +0.029 A 
ATOM      6  C   LIG    1       21.666  48.141  13.359  0.00  0.00    +0.028 A 
ATOM      7  C   LIG    1       21.327  47.202  12.406  0.00  0.00    +0.204 A 
ATOM      8  O   LIG    1       20.531  46.225  12.942  0.00  0.00    -0.462 OA
ATOM      9  C   LIG    1       20.337  46.540  14.255  0.00  0.00    +0.139 A 
ATOM     10  C   LIG    1       19.470  45.916  15.156  0.00  0.00    +0.093 A 
ATOM     11  C   LIG    1       19.340  46.552  16.404  0.00  0.00    +0.143 A 
ATOM     12  O   LIG    1       18.332  46.095  17.280  0.00  0.00    -0.422 OA
ATOM     13  C   LIG    1       17.990  46.780  18.449  0.00  0.00    +0.341 A 
ATOM     14  O   LIG    1       17.086  46.378  19.172  0.00  0.00    -0.245 OA
ATOM     15  C   LIG    1       18.755  48.017  18.767  0.00  0.00    +0.041 A 
ENDROOT
BRANCH   6  16
ATOM     16  C   LIG    1       22.290  49.441  13.105  0.00  0.00    -0.014 A 
ATOM     17  C   LIG    1       23.639  49.576  12.773  0.00  0.00    +0.008 A 
ATOM     18  C   LIG    1       24.188  50.846  12.541  0.00  0.00    +0.001 A 
ATOM     19  C   LIG    1       23.401  51.993  12.649  0.00  0.00    +0.000 A 
ATOM     20  C   LIG    1       22.056  51.877  12.966  0.00  0.00    +0.001 A 
ATOM     21  C   LIG    1       21.505  50.611  13.170  0.00  0.00    +0.008 A 
ENDBRANCH   6  16
BRANCH  15  22
ATOM     22  C   LIG    1       18.340  48.922  19.912  0.00  0.00    +0.054 C 
BRANCH  22  23
ATOM     23  C   LIG    1       17.332  50.059  19.824  0.00  0.00    +0.128 C 
BRANCH  23  24
ATOM     24  C   LIG    1       16.678  50.215  18.450  0.00  0.00    +0.332 C 
ATOM     25  O   LIG    1       16.566  51.317  17.922  0.00  0.00    -0.249 OA
BRANCH  24  26
ATOM     26  O   LIG    1       16.408  49.066  17.758  0.00  0.00    -0.337 OA
BRANCH  26  27
ATOM     27  N   LIG    1       16.678  49.163  16.387  0.00  0.00    -0.064 N 
ATOM     28  C   LIG    1       16.370  48.112  15.584  0.00  0.00    +0.255 C 
ATOM     29  O   LIG    1       15.850  47.049  15.885  0.00  0.00    -0.272 OA
ATOM     30  C   LIG    1       16.759  48.508  14.191  0.00  0.00    +0.109 C 
ATOM     31  C   LIG    1       17.877  49.506  14.437  0.00  0.00    +0.109 C 
ATOM     32  C   LIG    1       17.761  49.831  15.909  0.00  0.00    +0.255 C 
ATOM     33  O   LIG    1       18.567  50.508  16.516  0.00  0.00    -0.272 OA
ENDBRANCH  26  27
ENDBRANCH  24  26
ENDBRANCH  23  24
ENDBRANCH  22  23
ENDBRANCH  15  22
TORSDOF 6
ENDMDL
MODEL 3
REMARK VINA RESULT:       0.1      2.768      6.743
REMARK  Name = 
REMARK                            x       y       z     vdW  Elec       q    Type
REMARK                         _______ _______ _______ _____ _____    ______ ____
ROOT
ATOM      1  C   LIG    1       17.103  48.593  15.340  0.00  0.00    +0.045 C 
ATOM      2  C   LIG    1       17.424  48.603  16.816  0.00  0.00    -0.030 A 
ATOM      3  C   LIG    1       18.738  49.146  17.171  0.00  0.00    +0.022 A 
ATOM      4  C   LIG    1       19.622  49.566  16.173  0.00  0.00    +0.024 A 
ATOM      5  C   LIG    1       20.984  49.687  16.468  0.00  0.00    +0.029 A 
ATOM      6  C   LIG    1       22.168  49.718  15.674  0.00  0.00    +0.028 A 
ATOM      7  C   LIG    1       23.197  49.869  16.581  0.00  0.00    +0.204 A 
ATOM      8  O   LIG    1       22.727  49.845  17.866  0.00  0.00    -0.462 OA
ATOM      9  C   LIG    1       21.377  49.658  17.796  0.00  0.00    +0.139 A 
ATOM     10  C   LIG    1       20.500  49.415  18.857  0.00  0.00    +0.093 A 
ATOM     11  C   LIG    1       19.183  49.090  18.486  0.00  0.00    +0.143 A 
ATOM     12  O   LIG    1       18.303  48.634  19.491  0.00  0.00    -0.422 OA
ATOM     13  C   LIG    1       17.046  48.100  19.198  0.00  0.00    +0.341 A 
ATOM     14  O   LIG    1       16.318  47.680  20.090  0.00  0.00    -0.245 OA
ATOM     15  C   LIG    1       16.639  48.050  17.768  0.00  0.00    +0.041 A 
ENDROOT
BRANCH   6  16
ATOM     16  C   LIG    1       22.312  49.451  14.242  0.00  0.00    -0.014 A 
ATOM     17  C   LIG    1       21.952  48.232  13.665  0.00  0.00    +0.008 A 
ATOM     18  C   LIG    1       22.111  48.026  12.287  0.00  0.00    +0.001 A 
ATOM     19  C   LIG    1       22.641  49.028  11.472  0.00  0.00    +0.000 A 
ATOM     20  C   LIG    1       22.993  50.250  12.028  0.00  0.00    +0.001 A 
ATOM     21  C   LIG    1       22.809  50.463  13.395  0.00  0.00    +0.008 A 
ENDBRANCH   6  16
BRANCH  15  22
ATOM     22  C   LIG    1       15.375  47.327  17.337  0.00  0.00    +0.054 C 
BRANCH  22  23
ATOM     23  C   LIG    1       15.258  45.836  17.057  0.00  0.00    +0.128 C 
BRANCH  23  24
ATOM     24  C   LIG    1       16.058  45.360  15.842  0.00  0.00    +0.332 C 
ATOM     25  O   LIG    1       17.257  45.114  15.929  0.00  0.00    -0.249 OA
BRANCH  24  26
ATOM     26  O   LIG    1       15.345  45.032  14.721  0.00  0.00    -0.337 OA
BRANCH  26  27
ATOM     27  N   LIG    1       15.352  46.034  13.742  0.00  0.00    -0.064 N 
ATOM     28  C   LIG    1       14.302  46.893  13.677  0.00  0.00    +0.255 C 
ATOM     29  O   LIG    1       13.312  46.940  14.389  0.00  0.00    -0.272 OA
ATOM     30  C   LIG    1       14.593  47.843  12.553  0.00  0.00    +0.109 C 
ATOM     31  C   LIG    1       15.485  47.010  11.648  0.00  0.00    +0.109 C 
ATOM     32  C   LIG    1       15.886  45.834  12.508  0.00  0.00    +0.255 C 
ATOM     33  O   LIG    1       16.505  44.875  12.092  0.00  0.00    -0.272 OA
ENDBRANCH  26  27
ENDBRANCH  24  26
ENDBRANCH  23  24
ENDBRANCH  22  23
ENDBRANCH  15  22
TORSDOF 6
ENDMDL
MODEL 4
REMARK VINA RESULT:       0.3      2.912      7.461
REMARK  Name = 
REMARK                            x       y       z     vdW  Elec       q    Type
REMARK                         _______ _______ _______ _____ _____    ______ ____
ROOT
ATOM      1  C   LIG    1       18.948  50.514  16.385  0.00  0.00    +0.045 C 
ATOM      2  C   LIG    1       18.370  49.136  16.165  0.00  0.00    -0.030 A 
ATOM      3  C   LIG    1       19.219  48.210  15.411  0.00  0.00    +0.022 A 
ATOM      4  C   LIG    1       20.450  48.634  14.903  0.00  0.00    +0.024 A 
ATOM      5  C   LIG    1       21.051  47.914  13.866  0.00  0.00    +0.029 A 
ATOM      6  C   LIG    1       22.048  48.225  12.895  0.00  0.00    +0.028 A 
ATOM      7  C   LIG    1       22.201  47.065  12.163  0.00  0.00    +0.204 A 
ATOM      8  O   LIG    1       21.310  46.109  12.565  0.00  0.00    -0.462 OA
ATOM      9  C   LIG    1       20.555  46.657  13.561  0.00  0.00    +0.139 A 
ATOM     10  C   LIG    1       19.421  46.105  14.166  0.00  0.00    +0.093 A 
ATOM     11  C   LIG    1       18.735  46.960  15.048  0.00  0.00    +0.143 A 
ATOM     12  O   LIG    1       17.476  46.542  15.531  0.00  0.00    -0.422 OA
ATOM     13  C   LIG    1       16.630  47.393  16.245  0.00  0.00    +0.341 A 
ATOM     14  O   LIG    1       15.527  47.013  16.622  0.00  0.00    -0.245 OA
ATOM     15  C   LIG    1       17.114  48.774  16.513  0.00  0.00    +0.041 A 
ENDROOT
BRANCH   6  16
ATOM     16  C   LIG    1       22.646  49.525  12.588  0.00  0.00    -0.014 A 
ATOM     17  C   LIG    1       23.572  50.144  13.429  0.00  0.00    +0.008 A 
ATOM     18  C   LIG    1       24.115  51.392  13.089  0.00  0.00    +0.001 A 
ATOM     19  C   LIG    1       23.732  52.040  11.914  0.00  0.00    +0.000 A 
ATOM     20  C   LIG    1       22.822  51.434  11.061  0.00  0.00    +0.001 A 
ATOM     21  C   LIG    1       22.303  50.180  11.387  0.00  0.00    +0.008 A 
ENDBRANCH   6  16
BRANCH  15  22
ATOM     22  C   LIG    1       16.199  49.822  17.122  0.00  0.00    +0.054 C 
BRANCH  22  23
ATOM     23  C   LIG    1       16.573  50.786  18.237  0.00  0.00    +0.128 C 
BRANCH  23  24
ATOM     24  C   LIG    1       16.354  50.233  19.647  0.00  0.00    +0.332 C 
ATOM     25  O   LIG    1       15.225  50.011  20.074  0.00  0.00    -0.249 OA
BRANCH  24  26
ATOM     26  O   LIG    1       17.465  49.813  20.327  0.00  0.00    -0.337 OA
BRANCH  26  27
ATOM     27  N   LIG    1       17.904  48.538  19.948  0.00  0.00    -0.064 N 
ATOM     28  C   LIG    1       19.060  48.425  19.245  0.00  0.00    +0.255 C 
ATOM     29  O   LIG    1       19.826  49.308  18.891  0.00  0.00    -0.272 OA
ATOM     30  C   LIG    1       19.271  46.962  18.995  0.00  0.00    +0.109 C 
ATOM     31  C   LIG    1       17.851  46.423  19.009  0.00  0.00    +0.109 C 
ATOM     32  C   LIG    1       17.037  47.547  19.607  0.00  0.00    +0.255 C 
ATOM     33  O   LIG    1       15.824  47.542  19.670  0.00  0.00    -0.272 OA
ENDBRANCH  26  27
ENDBRANCH  24  26
ENDBRANCH  23  24
ENDBRANCH  22  23
ENDBRANCH  15  22
TORSDOF 6
ENDMDL
MODEL 5
REMARK VINA RESULT:       0.8      2.126      4.493
REMARK  Name = 
REMARK                            x       y       z     vdW  Elec       q    Type
REMARK                         _______ _______ _______ _____ _____    ______ ____
ROOT
ATOM      1  C   LIG    1       19.088  50.676  14.513  0.00  0.00    +0.045 C 
ATOM      2  C   LIG    1       19.501  49.283  14.102  0.00  0.00    -0.030 A 
ATOM      3  C   LIG    1       18.709  48.194  14.682  0.00  0.00    +0.022 A 
ATOM      4  C   LIG    1       17.684  48.474  15.591  0.00  0.00    +0.024 A 
ATOM      5  C   LIG    1       17.221  47.461  16.437  0.00  0.00    +0.029 A 
ATOM      6  C   LIG    1       16.505  47.453  17.670  0.00  0.00    +0.028 A 
ATOM      7  C   LIG    1       16.348  46.117  17.979  0.00  0.00    +0.204 A 
ATOM      8  O   LIG    1       16.992  45.324  17.069  0.00  0.00    -0.462 OA
ATOM      9  C   LIG    1       17.589  46.153  16.164  0.00  0.00    +0.139 A 
ATOM     10  C   LIG    1       18.481  45.796  15.149  0.00  0.00    +0.093 A 
ATOM     11  C   LIG    1       19.079  46.872  14.468  0.00  0.00    +0.143 A 
ATOM     12  O   LIG    1       20.136  46.590  13.577  0.00  0.00    -0.422 OA
ATOM     13  C   LIG    1       20.924  47.593  13.008  0.00  0.00    +0.341 A 
ATOM     14  O   LIG    1       21.857  47.315  12.265  0.00  0.00    -0.245 OA
ATOM     15  C   LIG    1       20.592  49.002  13.353  0.00  0.00    +0.041 A 
ENDROOT
BRANCH   6  16
ATOM     16  C   LIG    1       16.173  48.584  18.537  0.00  0.00    -0.014 A 
ATOM     17  C   LIG    1       15.122  48.546  19.455  0.00  0.00    +0.008 A 
ATOM     18  C   LIG    1       14.845  49.658  20.262  0.00  0.00    +0.001 A 
ATOM     19  C   LIG    1       15.604  50.824  20.156  0.00  0.00    +0.000 A 
ATOM     20  C   LIG    1       16.661  50.876  19.258  0.00  0.00    +0.001 A 
ATOM     21  C   LIG    1       16.952  49.759  18.474  0.00  0.00    +0.008 A 
ENDBRANCH   6  16
BRANCH  15  22
ATOM     22  C   LIG    1       21.496  50.147  12.930  0.00  0.00    +0.054 C 
BRANCH  22  23
ATOM     23  C   LIG    1       22.462  50.894  13.836  0.00  0.00    +0.128 C 
BRANCH  23  24
ATOM     24  C   LIG    1       23.491  50.001  14.533  0.00  0.00    +0.332 C 
ATOM     25  O   LIG    1       24.408  49.480  13.905  0.00  0.00    -0.249 OA
BRANCH  24  26
ATOM     26  O   LIG    1       23.460  49.972  15.901  0.00  0.00    -0.337 OA
BRANCH  26  27
ATOM     27  N   LIG    1       22.252  49.493  16.423  0.00  0.00    -0.064 N 
ATOM     28  C   LIG    1       21.764  50.050  17.561  0.00  0.00    +0.255 C 
ATOM     29  O   LIG    1       22.231  50.964  18.223  0.00  0.00    -0.272 OA
ATOM     30  C   LIG    1       20.475  49.346  17.865  0.00  0.00    +0.109 C 
ATOM     31  C   LIG    1       20.689  47.986  17.224  0.00  0.00    +0.109 C 
ATOM     32  C   LIG    1       21.898  48.183  16.339  0.00  0.00    +0.255 C 
ATOM     33  O   LIG    1       22.456  47.280  15.750  0.00  0.00    -0.272 OA
ENDBRANCH  26  27
ENDBRANCH  24  26
ENDBRANCH  23  24
ENDBRANCH  22  23
ENDBRANCH  15  22
TORSDOF 6
ENDMDL
MODEL 6
REMARK VINA RESULT:       1.4      2.964      7.397
REMARK  Name = 
REMARK                            x       y       z     vdW  Elec       q    Type
REMARK                         _______ _______ _______ _____ _____    ______ ____
ROOT
ATOM      1  C   LIG    1       18.060  49.667  16.373  0.00  0.00    +0.045 C 
ATOM      2  C   LIG    1       17.838  48.213  16.035  0.00  0.00    -0.030 A 
ATOM      3  C   LIG    1       18.944  47.553  15.335  0.00  0.00    +0.022 A 
ATOM      4  C   LIG    1       20.086  48.277  14.979  0.00  0.00    +0.024 A 
ATOM      5  C   LIG    1       20.931  47.781  13.980  0.00  0.00    +0.029 A 
ATOM      6  C   LIG    1       21.914  48.372  13.134  0.00  0.00    +0.028 A 
ATOM      7  C   LIG    1       22.399  47.328  12.373  0.00  0.00    +0.204 A 
ATOM      8  O   LIG    1       21.719  46.170  12.637  0.00  0.00    -0.462 OA
ATOM      9  C   LIG    1       20.768  46.467  13.571  0.00  0.00    +0.139 A 
ATOM     10  C   LIG    1       19.742  45.636  14.028  0.00  0.00    +0.093 A 
ATOM     11  C   LIG    1       18.798  46.253  14.869  0.00  0.00    +0.143 A 
ATOM     12  O   LIG    1       17.630  45.531  15.198  0.00  0.00    -0.422 OA
ATOM     13  C   LIG    1       16.548  46.121  15.855  0.00  0.00    +0.341 A 
ATOM     14  O   LIG    1       15.533  45.478  16.097  0.00  0.00    -0.245 OA
ATOM     15  C   LIG    1       16.673  47.555  16.233  0.00  0.00    +0.041 A 
ENDROOT
BRANCH   6  16
ATOM     16  C   LIG    1       22.222  49.791  12.948  0.00  0.00    -0.014 A 
ATOM     17  C   LIG    1       23.382  50.232  12.309  0.00  0.00    +0.008 A 
ATOM     18  C   LIG    1       23.630  51.603  12.158  0.00  0.00    +0.001 A 
ATOM     19  C   LIG    1       22.731  52.550  12.651  0.00  0.00    +0.000 A 
ATOM     20  C   LIG    1       21.567  52.130  13.279  0.00  0.00    +0.001 A 
ATOM     21  C   LIG    1       21.308  50.764  13.405  0.00  0.00    +0.008 A 
ENDBRANCH   6  16
BRANCH  15  22
ATOM     22  C   LIG    1       15.488  48.326  16.786  0.00  0.00    +0.054 C 
BRANCH  22  23
ATOM     23  C   LIG    1       15.304  48.749  18.235  0.00  0.00    +0.128 C 
BRANCH  23  24
ATOM     24  C   LIG    1       15.716  47.688  19.258  0.00  0.00    +0.332 C 
ATOM     25  O   LIG    1       15.442  46.503  19.088  0.00  0.00    -0.249 OA
BRANCH  24  26
ATOM     26  O   LIG    1       16.565  48.085  20.255  0.00  0.00    -0.337 OA
BRANCH  26  27
ATOM     27  N   LIG    1       17.889  48.249  19.828  0.00  0.00    -0.064 N 
ATOM     28  C   LIG    1       18.294  49.476  19.412  0.00  0.00    +0.255 C 
ATOM     29  O   LIG    1       17.654  50.515  19.366  0.00  0.00    -0.272 OA
ATOM     30  C   LIG    1       19.739  49.345  19.031  0.00  0.00    +0.109 C 
ATOM     31  C   LIG    1       19.839  47.882  18.638  0.00  0.00    +0.109 C 
ATOM     32  C   LIG    1       18.562  47.271  19.167  0.00  0.00    +0.255 C 
ATOM     33  O   LIG    1       18.216  46.129  18.940  0.00  0.00    -0.272 OA
ENDBRANCH  26  27
ENDBRANCH  24  26
ENDBRANCH  23  24
ENDBRANCH  22  23
ENDBRANCH  15  22
TORSDOF 6
ENDMDL
MODEL 7
REMARK VINA RESULT:       1.4      1.591      2.801
REMARK  Name = 
REMARK                            x       y       z     vdW  Elec       q    Type
REMARK                         _______ _______ _______ _____ _____    ______ ____
ROOT
ATOM      1  C   LIG    1       19.193  49.485  13.935  0.00  0.00    +0.045 C 
ATOM      2  C   LIG    1       19.535  49.520  15.406  0.00  0.00    -0.030 A 
ATOM      3  C   LIG    1       18.941  48.453  16.216  0.00  0.00    +0.022 A 
ATOM      4  C   LIG    1       18.080  47.519  15.632  0.00  0.00    +0.024 A 
ATOM      5  C   LIG    1       17.211  46.782  16.444  0.00  0.00    +0.029 A 
ATOM      6  C   LIG    1       16.005  46.062  16.204  0.00  0.00    +0.028 A 
ATOM      7  C   LIG    1       15.649  45.547  17.434  0.00  0.00    +0.204 A 
ATOM      8  O   LIG    1       16.505  45.977  18.412  0.00  0.00    -0.462 OA
ATOM      9  C   LIG    1       17.420  46.795  17.815  0.00  0.00    +0.139 A 
ATOM     10  C   LIG    1       18.389  47.582  18.443  0.00  0.00    +0.093 A 
ATOM     11  C   LIG    1       19.090  48.461  17.597  0.00  0.00    +0.143 A 
ATOM     12  O   LIG    1       19.932  49.425  18.192  0.00  0.00    -0.422 OA
ATOM     13  C   LIG    1       20.511  50.465  17.462  0.00  0.00    +0.341 A 
ATOM     14  O   LIG    1       21.210  51.308  18.013  0.00  0.00    -0.245 OA
ATOM     15  C   LIG    1       20.234  50.513  16.000  0.00  0.00    +0.041 A 
ENDROOT
BRANCH   6  16
ATOM     16  C   LIG    1       15.195  46.024  14.985  0.00  0.00    -0.014 A 
ATOM     17  C   LIG    1       14.024  46.771  14.837  0.00  0.00    +0.008 A 
ATOM     18  C   LIG    1       13.283  46.698  13.649  0.00  0.00    +0.001 A 
ATOM     19  C   LIG    1       13.693  45.872  12.602  0.00  0.00    +0.000 A 
ATOM     20  C   LIG    1       14.860  45.132  12.727  0.00  0.00    +0.001 A 
ATOM     21  C   LIG    1       15.612  45.226  13.899  0.00  0.00    +0.008 A 
ENDBRANCH   6  16
BRANCH  15  22
ATOM     22  C   LIG    1       20.669  51.700  15.159  0.00  0.00    +0.054 C 
BRANCH  22  23
ATOM     23  C   LIG    1       20.950  51.671  13.664  0.00  0.00    +0.128 C 
BRANCH  23  24
ATOM     24  C   LIG    1       22.377  51.257  13.299  0.00  0.00    +0.332 C 
ATOM     25  O   LIG    1       23.077  51.961  12.577  0.00  0.00    -0.249 OA
BRANCH  24  26
ATOM     26  O   LIG    1       22.900  50.183  13.967  0.00  0.00    -0.337 OA
BRANCH  26  27
ATOM     27  N   LIG    1       22.273  48.970  13.654  0.00  0.00    -0.064 N 
ATOM     28  C   LIG    1       22.124  48.040  14.631  0.00  0.00    +0.255 C 
ATOM     29  O   LIG    1       22.453  48.108  15.805  0.00  0.00    -0.272 OA
ATOM     30  C   LIG    1       21.421  46.870  14.007  0.00  0.00    +0.109 C 
ATOM     31  C   LIG    1       21.834  46.984  12.550  0.00  0.00    +0.109 C 
ATOM     32  C   LIG    1       22.417  48.374  12.441  0.00  0.00    +0.255 C 
ATOM     33  O   LIG    1       22.974  48.796  11.447  0.00  0.00    -0.272 OA
ENDBRANCH  26  27
ENDBRANCH  24  26
ENDBRANCH  23  24
ENDBRANCH  22  23
ENDBRANCH  15  22
TORSDOF 6
ENDMDL
