REMARK  Name = 
REMARK                            x       y       z     vdW  Elec       q    Type
REMARK                         _______ _______ _______ _____ _____    ______ ____
ROOT
ATOM      1  C   LIG    1        1.431   0.096   0.711  0.00  0.00    +0.045 C 
ATOM      2  C   LIG    1        2.913   0.124   0.423  0.00  0.00    -0.030 A 
ATOM      3  C   LIG    1        3.523   1.456   0.389  0.00  0.00    +0.022 A 
ATOM      4  C   LIG    1        2.736   2.598   0.565  0.00  0.00    +0.024 A 
ATOM      5  C   LIG    1        3.217   3.838   0.132  0.00  0.00    +0.029 A 
ATOM      6  C   LIG    1        2.598   5.082  -0.186  0.00  0.00    +0.028 A 
ATOM      7  C   LIG    1        3.640   5.915  -0.540  0.00  0.00    +0.204 A 
ATOM      8  O   LIG    1        4.830   5.239  -0.542  0.00  0.00    -0.462 OA
ATOM      9  C   LIG    1        4.558   3.946  -0.201  0.00  0.00    +0.139 A 
ATOM     10  C   LIG    1        5.439   2.861  -0.225  0.00  0.00    +0.093 A 
ATOM     11  C   LIG    1        4.852   1.605   0.013  0.00  0.00    +0.143 A 
ATOM     12  O   LIG    1        5.640   0.453  -0.199  0.00  0.00    -0.422 OA
ATOM     13  C   LIG    1        5.100  -0.835  -0.186  0.00  0.00    +0.341 A 
ATOM     14  O   LIG    1        5.803  -1.814  -0.408  0.00  0.00    -0.245 OA
ATOM     15  C   LIG    1        3.644  -0.965   0.092  0.00  0.00    +0.041 A 
ENDROOT
BRANCH   6  16
ATOM     16  C   LIG    1        1.171   5.383  -0.313  0.00  0.00    -0.014 A 
ATOM     17  C   LIG    1        0.651   6.662  -0.107  0.00  0.00    +0.008 A 
ATOM     18  C   LIG    1       -0.725   6.897  -0.240  0.00  0.00    +0.001 A 
ATOM     19  C   LIG    1       -1.598   5.859  -0.568  0.00  0.00    +0.000 A 
ATOM     20  C   LIG    1       -1.097   4.584  -0.788  0.00  0.00    +0.001 A 
ATOM     21  C   LIG    1        0.276   4.357  -0.682  0.00  0.00    +0.008 A 
ENDBRANCH   6  16
BRANCH  15  22
ATOM     22  C   LIG    1        2.935  -2.300  -0.049  0.00  0.00    +0.054 C 
BRANCH  22  23
ATOM     23  C   LIG    1        3.588  -3.612  -0.457  0.00  0.00    +0.128 C 
BRANCH  23  24
ATOM     24  C   LIG    1        2.601  -4.750  -0.725  0.00  0.00    +0.332 C 
ATOM     25  O   LIG    1        2.918  -5.716  -1.413  0.00  0.00    -0.249 OA
BRANCH  24  26
ATOM     26  O   LIG    1        1.435  -4.740  -0.009  0.00  0.00    -0.337 OA
BRANCH  26  27
ATOM     27  N   LIG    1        0.440  -3.931  -0.573  0.00  0.00    -0.064 N 
ATOM     28  C   LIG    1       -0.238  -3.072   0.231  0.00  0.00    +0.255 C 
ATOM     29  O   LIG    1       -0.094  -2.873   1.427  0.00  0.00    -0.272 OA
ATOM     30  C   LIG    1       -1.217  -2.347  -0.644  0.00  0.00    +0.109 C 
ATOM     31  C   LIG    1       -1.461  -3.350  -1.758  0.00  0.00    +0.109 C 
ATOM     32  C   LIG    1       -0.351  -4.362  -1.591  0.00  0.00    +0.255 C 
ATOM     33  O   LIG    1       -0.279  -5.395  -2.226  0.00  0.00    -0.272 OA
ENDBRANCH  26  27
ENDBRANCH  24  26
ENDBRANCH  23  24
ENDBRANCH  22  23
ENDBRANCH  15  22
TORSDOF 6
