MODEL 1
REMARK VINA RESULT:      -4.3      0.000      0.000
REMARK  Name = 
REMARK                            x       y       z     vdW  Elec       q    Type
REMARK                         _______ _______ _______ _____ _____    ______ ____
ROOT
ATOM      1  C   LIG    1       -3.823  -4.673  14.363  0.00  0.00    +0.000 A 
ATOM      2  C   LIG    1       -4.755  -4.193  13.442  0.00  0.00    +0.000 A 
ATOM      3  C   LIG    1       -6.034  -3.836  13.867  0.00  0.00    +0.000 A 
ATOM      4  C   LIG    1       -6.383  -3.960  15.212  0.00  0.00    +0.000 A 
ATOM      5  C   LIG    1       -5.452  -4.441  16.133  0.00  0.00    +0.000 A 
ATOM      6  C   LIG    1       -4.172  -4.799  15.708  0.00  0.00    +0.000 A 
ENDROOT
TORSDOF 0
ENDMDL
MODEL 2
REMARK VINA RESULT:      -4.3      0.091      1.974
REMARK  Name = 
REMARK                            x       y       z     vdW  Elec       q    Type
REMARK                         _______ _______ _______ _____ _____    ______ ____
ROOT
ATOM      1  C   LIG    1       -4.774  -4.223  13.353  0.00  0.00    +0.000 A 
ATOM      2  C   LIG    1       -3.813  -4.665  14.263  0.00  0.00    +0.000 A 
ATOM      3  C   LIG    1       -4.126  -4.754  15.619  0.00  0.00    +0.000 A 
ATOM      4  C   LIG    1       -5.399  -4.399  16.066  0.00  0.00    +0.000 A 
ATOM      5  C   LIG    1       -6.360  -3.956  15.156  0.00  0.00    +0.000 A 
ATOM      6  C   LIG    1       -6.047  -3.868  13.799  0.00  0.00    +0.000 A 
ENDROOT
TORSDOF 0
ENDMDL
MODEL 3
REMARK VINA RESULT:      -4.2      0.075      2.790
REMARK  Name = 
REMARK                            x       y       z     vdW  Elec       q    Type
REMARK                         _______ _______ _______ _____ _____    ______ ____
ROOT
ATOM      1  C   LIG    1       -6.402  -3.955  15.114  0.00  0.00    +0.000 A 
ATOM      2  C   LIG    1       -5.497  -4.441  16.058  0.00  0.00    +0.000 A 
ATOM      3  C   LIG    1       -4.207  -4.797  15.668  0.00  0.00    +0.000 A 
ATOM      4  C   LIG    1       -3.820  -4.669  14.334  0.00  0.00    +0.000 A 
ATOM      5  C   LIG    1       -4.725  -4.183  13.389  0.00  0.00    +0.000 A 
ATOM      6  C   LIG    1       -6.016  -3.827  13.779  0.00  0.00    +0.000 A 
ENDROOT
TORSDOF 0
ENDMDL
MODEL 4
REMARK VINA RESULT:      -4.2      0.076      1.974
REMARK  Name = 
REMARK                            x       y       z     vdW  Elec       q    Type
REMARK                         _______ _______ _______ _____ _____    ______ ____
ROOT
ATOM      1  C   LIG    1       -6.402  -3.955  15.111  0.00  0.00    +0.000 A 
ATOM      2  C   LIG    1       -6.014  -3.826  13.777  0.00  0.00    +0.000 A 
ATOM      3  C   LIG    1       -4.723  -4.184  13.389  0.00  0.00    +0.000 A 
ATOM      4  C   LIG    1       -3.819  -4.670  14.334  0.00  0.00    +0.000 A 
ATOM      5  C   LIG    1       -4.207  -4.798  15.668  0.00  0.00    +0.000 A 
ATOM      6  C   LIG    1       -5.498  -4.440  16.057  0.00  0.00    +0.000 A 
ENDROOT
TORSDOF 0
ENDMDL
MODEL 5
REMARK VINA RESULT:      -4.2      8.388      8.790
REMARK  Name = 
REMARK                            x       y       z     vdW  Elec       q    Type
REMARK                         _______ _______ _______ _____ _____    ______ ____
ROOT
ATOM      1  C   LIG    1       -0.523  -0.813  20.794  0.00  0.00    +0.000 A 
ATOM      2  C   LIG    1        0.044  -0.041  19.780  0.00  0.00    +0.000 A 
ATOM      3  C   LIG    1       -0.328   1.295  19.631  0.00  0.00    +0.000 A 
ATOM      4  C   LIG    1       -1.267   1.859  20.495  0.00  0.00    +0.000 A 
ATOM      5  C   LIG    1       -1.835   1.087  21.508  0.00  0.00    +0.000 A 
ATOM      6  C   LIG    1       -1.463  -0.250  21.658  0.00  0.00    +0.000 A 
ENDROOT
TORSDOF 0
ENDMDL
MODEL 6
REMARK VINA RESULT:      -4.1      0.953      2.344
REMARK  Name = 
REMARK                            x       y       z     vdW  Elec       q    Type
REMARK                         _______ _______ _______ _____ _____    ______ ____
ROOT
ATOM      1  C   LIG    1       -6.380  -4.678  14.190  0.00  0.00    +0.000 A 
ATOM      2  C   LIG    1       -7.182  -4.542  15.323  0.00  0.00    +0.000 A 
ATOM      3  C   LIG    1       -6.611  -4.603  16.593  0.00  0.00    +0.000 A 
ATOM      4  C   LIG    1       -5.237  -4.799  16.732  0.00  0.00    +0.000 A 
ATOM      5  C   LIG    1       -4.434  -4.936  15.600  0.00  0.00    +0.000 A 
ATOM      6  C   LIG    1       -5.006  -4.876  14.328  0.00  0.00    +0.000 A 
ENDROOT
TORSDOF 0
ENDMDL
MODEL 7
REMARK VINA RESULT:      -3.9      4.261      5.538
REMARK  Name = 
REMARK                            x       y       z     vdW  Elec       q    Type
REMARK                         _______ _______ _______ _____ _____    ______ ____
ROOT
ATOM      1  C   LIG    1       -7.840  -2.699   9.250  0.00  0.00    +0.000 A 
ATOM      2  C   LIG    1       -7.374  -3.862   9.864  0.00  0.00    +0.000 A 
ATOM      3  C   LIG    1       -7.328  -3.944  11.255  0.00  0.00    +0.000 A 
ATOM      4  C   LIG    1       -7.746  -2.864  12.033  0.00  0.00    +0.000 A 
ATOM      5  C   LIG    1       -8.212  -1.702  11.419  0.00  0.00    +0.000 A 
ATOM      6  C   LIG    1       -8.258  -1.619  10.027  0.00  0.00    +0.000 A 
ENDROOT
TORSDOF 0
ENDMDL
MODEL 8
REMARK VINA RESULT:      -3.8      5.531      6.380
REMARK  Name = 
REMARK                            x       y       z     vdW  Elec       q    Type
REMARK                         _______ _______ _______ _____ _____    ______ ____
ROOT
ATOM      1  C   LIG    1       -9.168  -3.259  11.470  0.00  0.00    +0.000 A 
ATOM      2  C   LIG    1       -8.646  -1.975  11.318  0.00  0.00    +0.000 A 
ATOM      3  C   LIG    1       -8.129  -1.574  10.086  0.00  0.00    +0.000 A 
ATOM      4  C   LIG    1       -8.133  -2.457   9.006  0.00  0.00    +0.000 A 
ATOM      5  C   LIG    1       -8.654  -3.742   9.159  0.00  0.00    +0.000 A 
ATOM      6  C   LIG    1       -9.171  -4.143  10.391  0.00  0.00    +0.000 A 
ENDROOT
TORSDOF 0
ENDMDL
MODEL 9
REMARK VINA RESULT:      -3.6      5.563      5.764
REMARK  Name = 
REMARK                            x       y       z     vdW  Elec       q    Type
REMARK                         _______ _______ _______ _____ _____    ______ ____
ROOT
ATOM      1  C   LIG    1       -9.495  -3.791  11.491  0.00  0.00    +0.000 A 
ATOM      2  C   LIG    1       -8.599  -2.912  10.882  0.00  0.00    +0.000 A 
ATOM      3  C   LIG    1       -8.561  -1.574  11.272  0.00  0.00    +0.000 A 
ATOM      4  C   LIG    1       -9.419  -1.113  12.270  0.00  0.00    +0.000 A 
ATOM      5  C   LIG    1      -10.315  -1.991  12.879  0.00  0.00    +0.000 A 
ATOM      6  C   LIG    1      -10.354  -3.330  12.489  0.00  0.00    +0.000 A 
ENDROOT
TORSDOF 0
ENDMDL
