MODEL 1
REMARK VINA RESULT:      -4.8      0.000      0.000
REMARK  Name = 
REMARK                            x       y       z     vdW  Elec       q    Type
REMARK                         _______ _______ _______ _____ _____    ______ ____
ROOT
ATOM      1  C   LIG    1       54.689  46.240  29.727  0.00  0.00    +0.000 A 
ATOM      2  C   LIG    1       55.644  46.682  28.811  0.00  0.00    +0.000 A 
ATOM      3  C   LIG    1       56.918  46.116  28.804  0.00  0.00    +0.000 A 
ATOM      4  C   LIG    1       57.240  45.109  29.715  0.00  0.00    +0.000 A 
ATOM      5  C   LIG    1       56.286  44.668  30.632  0.00  0.00    +0.000 A 
ATOM      6  C   LIG    1       55.010  45.234  30.639  0.00  0.00    +0.000 A 
ENDROOT
TORSDOF 0
ENDMDL
MODEL 2
REMARK VINA RESULT:      -4.8      0.012      2.414
REMARK  Name = 
REMARK                            x       y       z     vdW  Elec       q    Type
REMARK                         _______ _______ _______ _____ _____    ______ ____
ROOT
ATOM      1  C   LIG    1       56.271  44.660  30.630  0.00  0.00    +0.000 A 
ATOM      2  C   LIG    1       54.997  45.227  30.634  0.00  0.00    +0.000 A 
ATOM      3  C   LIG    1       54.682  46.239  29.727  0.00  0.00    +0.000 A 
ATOM      4  C   LIG    1       55.640  46.684  28.817  0.00  0.00    +0.000 A 
ATOM      5  C   LIG    1       56.915  46.117  28.814  0.00  0.00    +0.000 A 
ATOM      6  C   LIG    1       57.231  45.105  29.721  0.00  0.00    +0.000 A 
ENDROOT
TORSDOF 0
ENDMDL
MODEL 3
REMARK VINA RESULT:      -4.8      0.010      1.973
REMARK  Name = 
REMARK                            x       y       z     vdW  Elec       q    Type
REMARK                         _______ _______ _______ _____ _____    ______ ____
ROOT
ATOM      1  C   LIG    1       55.651  46.678  28.815  0.00  0.00    +0.000 A 
ATOM      2  C   LIG    1       54.693  46.239  29.729  0.00  0.00    +0.000 A 
ATOM      3  C   LIG    1       55.010  45.235  30.643  0.00  0.00    +0.000 A 
ATOM      4  C   LIG    1       56.284  44.667  30.643  0.00  0.00    +0.000 A 
ATOM      5  C   LIG    1       57.242  45.105  29.728  0.00  0.00    +0.000 A 
ATOM      6  C   LIG    1       56.925  46.110  28.813  0.00  0.00    +0.000 A 
ENDROOT
TORSDOF 0
ENDMDL
MODEL 4
REMARK VINA RESULT:      -4.8      0.018      1.973
REMARK  Name = 
REMARK                            x       y       z     vdW  Elec       q    Type
REMARK                         _______ _______ _______ _____ _____    ______ ____
ROOT
ATOM      1  C   LIG    1       56.298  44.659  30.641  0.00  0.00    +0.000 A 
ATOM      2  C   LIG    1       57.254  45.102  29.727  0.00  0.00    +0.000 A 
ATOM      3  C   LIG    1       56.934  46.108  28.816  0.00  0.00    +0.000 A 
ATOM      4  C   LIG    1       55.657  46.672  28.818  0.00  0.00    +0.000 A 
ATOM      5  C   LIG    1       54.701  46.228  29.731  0.00  0.00    +0.000 A 
ATOM      6  C   LIG    1       55.021  45.221  30.643  0.00  0.00    +0.000 A 
ENDROOT
TORSDOF 0
ENDMDL
MODEL 5
REMARK VINA RESULT:      -4.5      1.085      2.284
REMARK  Name = 
REMARK                            x       y       z     vdW  Elec       q    Type
REMARK                         _______ _______ _______ _____ _____    ______ ____
ROOT
ATOM      1  C   LIG    1       56.270  45.219  30.977  0.00  0.00    +0.000 A 
ATOM      2  C   LIG    1       57.655  45.101  31.093  0.00  0.00    +0.000 A 
ATOM      3  C   LIG    1       58.485  45.649  30.115  0.00  0.00    +0.000 A 
ATOM      4  C   LIG    1       57.931  46.313  29.021  0.00  0.00    +0.000 A 
ATOM      5  C   LIG    1       56.546  46.430  28.905  0.00  0.00    +0.000 A 
ATOM      6  C   LIG    1       55.715  45.882  29.883  0.00  0.00    +0.000 A 
ENDROOT
TORSDOF 0
ENDMDL
MODEL 6
REMARK VINA RESULT:      -4.3      9.091     10.042
REMARK  Name = 
REMARK                            x       y       z     vdW  Elec       q    Type
REMARK                         _______ _______ _______ _____ _____    ______ ____
ROOT
ATOM      1  C   LIG    1       64.485  43.135  33.479  0.00  0.00    +0.000 A 
ATOM      2  C   LIG    1       64.361  43.643  32.185  0.00  0.00    +0.000 A 
ATOM      3  C   LIG    1       65.051  44.798  31.820  0.00  0.00    +0.000 A 
ATOM      4  C   LIG    1       65.865  45.448  32.748  0.00  0.00    +0.000 A 
ATOM      5  C   LIG    1       65.989  44.941  34.042  0.00  0.00    +0.000 A 
ATOM      6  C   LIG    1       65.299  43.785  34.408  0.00  0.00    +0.000 A 
ENDROOT
TORSDOF 0
ENDMDL
MODEL 7
REMARK VINA RESULT:      -4.3      9.081     10.095
REMARK  Name = 
REMARK                            x       y       z     vdW  Elec       q    Type
REMARK                         _______ _______ _______ _____ _____    ______ ____
ROOT
ATOM      1  C   LIG    1       65.326  43.781  34.391  0.00  0.00    +0.000 A 
ATOM      2  C   LIG    1       66.016  44.938  34.030  0.00  0.00    +0.000 A 
ATOM      3  C   LIG    1       65.877  45.461  32.745  0.00  0.00    +0.000 A 
ATOM      4  C   LIG    1       65.048  44.826  31.819  0.00  0.00    +0.000 A 
ATOM      5  C   LIG    1       64.358  43.668  32.180  0.00  0.00    +0.000 A 
ATOM      6  C   LIG    1       64.498  43.145  33.466  0.00  0.00    +0.000 A 
ENDROOT
TORSDOF 0
ENDMDL
MODEL 8
REMARK VINA RESULT:      -4.3      9.091     10.143
REMARK  Name = 
REMARK                            x       y       z     vdW  Elec       q    Type
REMARK                         _______ _______ _______ _____ _____    ______ ____
ROOT
ATOM      1  C   LIG    1       64.440  43.113  33.414  0.00  0.00    +0.000 A 
ATOM      2  C   LIG    1       65.213  43.714  34.407  0.00  0.00    +0.000 A 
ATOM      3  C   LIG    1       65.928  44.878  34.126  0.00  0.00    +0.000 A 
ATOM      4  C   LIG    1       65.870  45.442  32.851  0.00  0.00    +0.000 A 
ATOM      5  C   LIG    1       65.097  44.840  31.857  0.00  0.00    +0.000 A 
ATOM      6  C   LIG    1       64.382  43.676  32.138  0.00  0.00    +0.000 A 
ENDROOT
TORSDOF 0
ENDMDL
MODEL 9
REMARK VINA RESULT:      -4.2      9.100      9.998
REMARK  Name = 
REMARK                            x       y       z     vdW  Elec       q    Type
REMARK                         _______ _______ _______ _____ _____    ______ ____
ROOT
ATOM      1  C   LIG    1       65.778  45.405  32.924  0.00  0.00    +0.000 A 
ATOM      2  C   LIG    1       65.076  44.792  31.886  0.00  0.00    +0.000 A 
ATOM      3  C   LIG    1       64.380  43.606  32.120  0.00  0.00    +0.000 A 
ATOM      4  C   LIG    1       64.389  43.031  33.391  0.00  0.00    +0.000 A 
ATOM      5  C   LIG    1       65.092  43.643  34.428  0.00  0.00    +0.000 A 
ATOM      6  C   LIG    1       65.788  44.830  34.195  0.00  0.00    +0.000 A 
ENDROOT
TORSDOF 0
ENDMDL
