MODEL 1
REMARK VINA RESULT:      -4.6      0.000      0.000
REMARK  Name = 
REMARK                            x       y       z     vdW  Elec       q    Type
REMARK                         _______ _______ _______ _____ _____    ______ ____
ROOT
ATOM      1  C   LIG    1       43.832  -3.154  17.144  0.00  0.00    +0.000 A 
ATOM      2  C   LIG    1       43.070  -2.091  17.628  0.00  0.00    +0.000 A 
ATOM      3  C   LIG    1       43.530  -1.339  18.709  0.00  0.00    +0.000 A 
ATOM      4  C   LIG    1       44.752  -1.650  19.307  0.00  0.00    +0.000 A 
ATOM      5  C   LIG    1       45.513  -2.714  18.823  0.00  0.00    +0.000 A 
ATOM      6  C   LIG    1       45.053  -3.467  17.742  0.00  0.00    +0.000 A 
ENDROOT
TORSDOF 0
ENDMDL
MODEL 2
REMARK VINA RESULT:      -4.6      0.022      1.973
REMARK  Name = 
REMARK                            x       y       z     vdW  Elec       q    Type
REMARK                         _______ _______ _______ _____ _____    ______ ____
ROOT
ATOM      1  C   LIG    1       45.060  -3.460  17.757  0.00  0.00    +0.000 A 
ATOM      2  C   LIG    1       45.509  -2.717  18.849  0.00  0.00    +0.000 A 
ATOM      3  C   LIG    1       44.742  -1.659  19.335  0.00  0.00    +0.000 A 
ATOM      4  C   LIG    1       43.526  -1.342  18.729  0.00  0.00    +0.000 A 
ATOM      5  C   LIG    1       43.077  -2.084  17.637  0.00  0.00    +0.000 A 
ATOM      6  C   LIG    1       43.844  -3.143  17.150  0.00  0.00    +0.000 A 
ENDROOT
TORSDOF 0
ENDMDL
MODEL 3
REMARK VINA RESULT:      -4.6      0.022      2.417
REMARK  Name = 
REMARK                            x       y       z     vdW  Elec       q    Type
REMARK                         _______ _______ _______ _____ _____    ______ ____
ROOT
ATOM      1  C   LIG    1       43.536  -1.327  18.729  0.00  0.00    +0.000 A 
ATOM      2  C   LIG    1       44.757  -1.641  19.327  0.00  0.00    +0.000 A 
ATOM      3  C   LIG    1       45.517  -2.705  18.842  0.00  0.00    +0.000 A 
ATOM      4  C   LIG    1       45.058  -3.455  17.759  0.00  0.00    +0.000 A 
ATOM      5  C   LIG    1       43.837  -3.142  17.162  0.00  0.00    +0.000 A 
ATOM      6  C   LIG    1       43.076  -2.078  17.647  0.00  0.00    +0.000 A 
ENDROOT
TORSDOF 0
ENDMDL
MODEL 4
REMARK VINA RESULT:      -4.6      0.056      1.973
REMARK  Name = 
REMARK                            x       y       z     vdW  Elec       q    Type
REMARK                         _______ _______ _______ _____ _____    ______ ____
ROOT
ATOM      1  C   LIG    1       44.821  -1.674  19.317  0.00  0.00    +0.000 A 
ATOM      2  C   LIG    1       43.595  -1.328  18.749  0.00  0.00    +0.000 A 
ATOM      3  C   LIG    1       43.095  -2.059  17.671  0.00  0.00    +0.000 A 
ATOM      4  C   LIG    1       43.821  -3.135  17.160  0.00  0.00    +0.000 A 
ATOM      5  C   LIG    1       45.048  -3.480  17.728  0.00  0.00    +0.000 A 
ATOM      6  C   LIG    1       45.548  -2.749  18.807  0.00  0.00    +0.000 A 
ENDROOT
TORSDOF 0
ENDMDL
MODEL 5
REMARK VINA RESULT:      -4.4      1.554      2.963
REMARK  Name = 
REMARK                            x       y       z     vdW  Elec       q    Type
REMARK                         _______ _______ _______ _____ _____    ______ ____
ROOT
ATOM      1  C   LIG    1       43.289  -4.406  15.932  0.00  0.00    +0.000 A 
ATOM      2  C   LIG    1       44.390  -5.256  16.030  0.00  0.00    +0.000 A 
ATOM      3  C   LIG    1       45.424  -4.958  16.917  0.00  0.00    +0.000 A 
ATOM      4  C   LIG    1       45.357  -3.810  17.707  0.00  0.00    +0.000 A 
ATOM      5  C   LIG    1       44.256  -2.959  17.608  0.00  0.00    +0.000 A 
ATOM      6  C   LIG    1       43.222  -3.257  16.721  0.00  0.00    +0.000 A 
ENDROOT
TORSDOF 0
ENDMDL
MODEL 6
REMARK VINA RESULT:      -4.3      1.190      2.527
REMARK  Name = 
REMARK                            x       y       z     vdW  Elec       q    Type
REMARK                         _______ _______ _______ _____ _____    ______ ____
ROOT
ATOM      1  C   LIG    1       44.915  -4.077  17.193  0.00  0.00    +0.000 A 
ATOM      2  C   LIG    1       44.715  -2.958  18.001  0.00  0.00    +0.000 A 
ATOM      3  C   LIG    1       43.548  -2.204  17.871  0.00  0.00    +0.000 A 
ATOM      4  C   LIG    1       42.583  -2.569  16.933  0.00  0.00    +0.000 A 
ATOM      5  C   LIG    1       42.784  -3.687  16.124  0.00  0.00    +0.000 A 
ATOM      6  C   LIG    1       43.951  -4.442  16.254  0.00  0.00    +0.000 A 
ENDROOT
TORSDOF 0
ENDMDL
MODEL 7
REMARK VINA RESULT:      -4.3      8.685      9.912
REMARK  Name = 
REMARK                            x       y       z     vdW  Elec       q    Type
REMARK                         _______ _______ _______ _____ _____    ______ ____
ROOT
ATOM      1  C   LIG    1       36.423   5.247  16.471  0.00  0.00    +0.000 A 
ATOM      2  C   LIG    1       35.898   4.151  17.155  0.00  0.00    +0.000 A 
ATOM      3  C   LIG    1       36.750   3.164  17.650  0.00  0.00    +0.000 A 
ATOM      4  C   LIG    1       38.128   3.273  17.459  0.00  0.00    +0.000 A 
ATOM      5  C   LIG    1       38.653   4.368  16.775  0.00  0.00    +0.000 A 
ATOM      6  C   LIG    1       37.800   5.356  16.280  0.00  0.00    +0.000 A 
ENDROOT
TORSDOF 0
ENDMDL
MODEL 8
REMARK VINA RESULT:      -4.3      8.723     10.072
REMARK  Name = 
REMARK                            x       y       z     vdW  Elec       q    Type
REMARK                         _______ _______ _______ _____ _____    ______ ____
ROOT
ATOM      1  C   LIG    1       36.668   3.202  17.676  0.00  0.00    +0.000 A 
ATOM      2  C   LIG    1       38.049   3.264  17.487  0.00  0.00    +0.000 A 
ATOM      3  C   LIG    1       38.610   4.333  16.788  0.00  0.00    +0.000 A 
ATOM      4  C   LIG    1       37.791   5.339  16.276  0.00  0.00    +0.000 A 
ATOM      5  C   LIG    1       36.410   5.277  16.465  0.00  0.00    +0.000 A 
ATOM      6  C   LIG    1       35.848   4.208  17.164  0.00  0.00    +0.000 A 
ENDROOT
TORSDOF 0
ENDMDL
MODEL 9
REMARK VINA RESULT:      -4.3      8.775      9.934
REMARK  Name = 
REMARK                            x       y       z     vdW  Elec       q    Type
REMARK                         _______ _______ _______ _____ _____    ______ ____
ROOT
ATOM      1  C   LIG    1       36.492   3.243  17.718  0.00  0.00    +0.000 A 
ATOM      2  C   LIG    1       35.750   4.286  17.164  0.00  0.00    +0.000 A 
ATOM      3  C   LIG    1       36.392   5.292  16.443  0.00  0.00    +0.000 A 
ATOM      4  C   LIG    1       37.777   5.257  16.278  0.00  0.00    +0.000 A 
ATOM      5  C   LIG    1       38.519   4.215  16.834  0.00  0.00    +0.000 A 
ATOM      6  C   LIG    1       37.877   3.208  17.554  0.00  0.00    +0.000 A 
ENDROOT
TORSDOF 0
ENDMDL
