MODEL 1
REMARK VINA RESULT:      -4.2      0.000      0.000
REMARK  Name = 
REMARK                            x       y       z     vdW  Elec       q    Type
REMARK                         _______ _______ _______ _____ _____    ______ ____
ROOT
ATOM      1  C   LIG    1       16.011  32.152  10.793  0.00  0.00    +0.000 A 
ATOM      2  C   LIG    1       17.343  31.738  10.777  0.00  0.00    +0.000 A 
ATOM      3  C   LIG    1       17.779  30.830   9.813  0.00  0.00    +0.000 A 
ATOM      4  C   LIG    1       16.885  30.335   8.864  0.00  0.00    +0.000 A 
ATOM      5  C   LIG    1       15.552  30.748   8.880  0.00  0.00    +0.000 A 
ATOM      6  C   LIG    1       15.115  31.657   9.845  0.00  0.00    +0.000 A 
ENDROOT
TORSDOF 0
ENDMDL
MODEL 2
REMARK VINA RESULT:      -4.2      1.549      2.652
REMARK  Name = 
REMARK                            x       y       z     vdW  Elec       q    Type
REMARK                         _______ _______ _______ _____ _____    ______ ____
ROOT
ATOM      1  C   LIG    1       17.718  29.819  10.260  0.00  0.00    +0.000 A 
ATOM      2  C   LIG    1       17.061  30.832   9.560  0.00  0.00    +0.000 A 
ATOM      3  C   LIG    1       16.292  30.518   8.440  0.00  0.00    +0.000 A 
ATOM      4  C   LIG    1       16.180  29.194   8.018  0.00  0.00    +0.000 A 
ATOM      5  C   LIG    1       16.837  28.181   8.717  0.00  0.00    +0.000 A 
ATOM      6  C   LIG    1       17.608  28.494   9.838  0.00  0.00    +0.000 A 
ENDROOT
TORSDOF 0
ENDMDL
MODEL 3
REMARK VINA RESULT:      -4.2      0.276      1.976
REMARK  Name = 
REMARK                            x       y       z     vdW  Elec       q    Type
REMARK                         _______ _______ _______ _____ _____    ______ ____
ROOT
ATOM      1  C   LIG    1       15.783  32.047  10.619  0.00  0.00    +0.000 A 
ATOM      2  C   LIG    1       15.080  31.397   9.604  0.00  0.00    +0.000 A 
ATOM      3  C   LIG    1       15.740  30.500   8.764  0.00  0.00    +0.000 A 
ATOM      4  C   LIG    1       17.102  30.254   8.937  0.00  0.00    +0.000 A 
ATOM      5  C   LIG    1       17.805  30.906   9.951  0.00  0.00    +0.000 A 
ATOM      6  C   LIG    1       17.145  31.803  10.792  0.00  0.00    +0.000 A 
ENDROOT
TORSDOF 0
ENDMDL
MODEL 4
REMARK VINA RESULT:      -4.2      0.317      2.554
REMARK  Name = 
REMARK                            x       y       z     vdW  Elec       q    Type
REMARK                         _______ _______ _______ _____ _____    ______ ____
ROOT
ATOM      1  C   LIG    1       15.843  30.499   8.819  0.00  0.00    +0.000 A 
ATOM      2  C   LIG    1       15.142  31.382   9.640  0.00  0.00    +0.000 A 
ATOM      3  C   LIG    1       15.805  32.058  10.663  0.00  0.00    +0.000 A 
ATOM      4  C   LIG    1       17.169  31.851  10.868  0.00  0.00    +0.000 A 
ATOM      5  C   LIG    1       17.871  30.967  10.047  0.00  0.00    +0.000 A 
ATOM      6  C   LIG    1       17.207  30.290   9.023  0.00  0.00    +0.000 A 
ENDROOT
TORSDOF 0
ENDMDL
MODEL 5
REMARK VINA RESULT:      -4.2      0.341      1.976
REMARK  Name = 
REMARK                            x       y       z     vdW  Elec       q    Type
REMARK                         _______ _______ _______ _____ _____    ______ ____
ROOT
ATOM      1  C   LIG    1       15.095  31.340   9.559  0.00  0.00    +0.000 A 
ATOM      2  C   LIG    1       15.806  30.443   8.762  0.00  0.00    +0.000 A 
ATOM      3  C   LIG    1       17.169  30.246   8.980  0.00  0.00    +0.000 A 
ATOM      4  C   LIG    1       17.823  30.947   9.993  0.00  0.00    +0.000 A 
ATOM      5  C   LIG    1       17.112  31.845  10.790  0.00  0.00    +0.000 A 
ATOM      6  C   LIG    1       15.748  32.042  10.573  0.00  0.00    +0.000 A 
ENDROOT
TORSDOF 0
ENDMDL
MODEL 6
REMARK VINA RESULT:      -4.1      1.502      2.407
REMARK  Name = 
REMARK                            x       y       z     vdW  Elec       q    Type
REMARK                         _______ _______ _______ _____ _____    ______ ____
ROOT
ATOM      1  C   LIG    1       17.697  29.767  10.437  0.00  0.00    +0.000 A 
ATOM      2  C   LIG    1       17.633  28.518   9.820  0.00  0.00    +0.000 A 
ATOM      3  C   LIG    1       16.777  28.319   8.737  0.00  0.00    +0.000 A 
ATOM      4  C   LIG    1       15.985  29.368   8.271  0.00  0.00    +0.000 A 
ATOM      5  C   LIG    1       16.048  30.617   8.889  0.00  0.00    +0.000 A 
ATOM      6  C   LIG    1       16.904  30.817   9.973  0.00  0.00    +0.000 A 
ENDROOT
TORSDOF 0
ENDMDL
MODEL 7
REMARK VINA RESULT:      -4.1      8.770      9.345
REMARK  Name = 
REMARK                            x       y       z     vdW  Elec       q    Type
REMARK                         _______ _______ _______ _____ _____    ______ ____
ROOT
ATOM      1  C   LIG    1       12.738  35.125   2.516  0.00  0.00    +0.000 A 
ATOM      2  C   LIG    1       11.761  34.203   2.137  0.00  0.00    +0.000 A 
ATOM      3  C   LIG    1       10.586  34.089   2.879  0.00  0.00    +0.000 A 
ATOM      4  C   LIG    1       10.387  34.895   4.001  0.00  0.00    +0.000 A 
ATOM      5  C   LIG    1       11.364  35.815   4.380  0.00  0.00    +0.000 A 
ATOM      6  C   LIG    1       12.540  35.930   3.638  0.00  0.00    +0.000 A 
ENDROOT
TORSDOF 0
ENDMDL
MODEL 8
REMARK VINA RESULT:      -4.1      8.756      9.237
REMARK  Name = 
REMARK                            x       y       z     vdW  Elec       q    Type
REMARK                         _______ _______ _______ _____ _____    ______ ____
ROOT
ATOM      1  C   LIG    1       12.215  34.444   2.033  0.00  0.00    +0.000 A 
ATOM      2  C   LIG    1       12.915  35.440   2.713  0.00  0.00    +0.000 A 
ATOM      3  C   LIG    1       12.374  36.007   3.867  0.00  0.00    +0.000 A 
ATOM      4  C   LIG    1       11.133  35.579   4.340  0.00  0.00    +0.000 A 
ATOM      5  C   LIG    1       10.433  34.583   3.659  0.00  0.00    +0.000 A 
ATOM      6  C   LIG    1       10.974  34.016   2.504  0.00  0.00    +0.000 A 
ENDROOT
TORSDOF 0
ENDMDL
MODEL 9
REMARK VINA RESULT:      -4.0      8.794      9.198
REMARK  Name = 
REMARK                            x       y       z     vdW  Elec       q    Type
REMARK                         _______ _______ _______ _____ _____    ______ ____
ROOT
ATOM      1  C   LIG    1       10.409  34.479   3.523  0.00  0.00    +0.000 A 
ATOM      2  C   LIG    1       11.050  35.484   4.249  0.00  0.00    +0.000 A 
ATOM      3  C   LIG    1       12.294  35.957   3.834  0.00  0.00    +0.000 A 
ATOM      4  C   LIG    1       12.899  35.426   2.695  0.00  0.00    +0.000 A 
ATOM      5  C   LIG    1       12.259  34.420   1.970  0.00  0.00    +0.000 A 
ATOM      6  C   LIG    1       11.014  33.946   2.384  0.00  0.00    +0.000 A 
ENDROOT
TORSDOF 0
ENDMDL
