MODEL 1
REMARK VINA RESULT:      -4.2      0.000      0.000
REMARK  Name = 
REMARK                            x       y       z     vdW  Elec       q    Type
REMARK                         _______ _______ _______ _____ _____    ______ ____
ROOT
ATOM      1  C   LIG    1       27.800  -3.748  28.113  0.00  0.00    +0.000 A 
ATOM      2  C   LIG    1       26.531  -3.171  28.079  0.00  0.00    +0.000 A 
ATOM      3  C   LIG    1       26.397  -1.789  27.944  0.00  0.00    +0.000 A 
ATOM      4  C   LIG    1       27.531  -0.984  27.843  0.00  0.00    +0.000 A 
ATOM      5  C   LIG    1       28.801  -1.561  27.879  0.00  0.00    +0.000 A 
ATOM      6  C   LIG    1       28.936  -2.943  28.014  0.00  0.00    +0.000 A 
ENDROOT
TORSDOF 0
ENDMDL
MODEL 2
REMARK VINA RESULT:      -4.2      0.038      2.424
REMARK  Name = 
REMARK                            x       y       z     vdW  Elec       q    Type
REMARK                         _______ _______ _______ _____ _____    ______ ____
ROOT
ATOM      1  C   LIG    1       28.824  -1.561  27.875  0.00  0.00    +0.000 A 
ATOM      2  C   LIG    1       28.974  -2.940  28.017  0.00  0.00    +0.000 A 
ATOM      3  C   LIG    1       27.848  -3.757  28.114  0.00  0.00    +0.000 A 
ATOM      4  C   LIG    1       26.572  -3.196  28.071  0.00  0.00    +0.000 A 
ATOM      5  C   LIG    1       26.422  -1.816  27.930  0.00  0.00    +0.000 A 
ATOM      6  C   LIG    1       27.548  -0.998  27.832  0.00  0.00    +0.000 A 
ENDROOT
TORSDOF 0
ENDMDL
MODEL 3
REMARK VINA RESULT:      -4.2      0.053      1.973
REMARK  Name = 
REMARK                            x       y       z     vdW  Elec       q    Type
REMARK                         _______ _______ _______ _____ _____    ______ ____
ROOT
ATOM      1  C   LIG    1       28.949  -2.951  28.006  0.00  0.00    +0.000 A 
ATOM      2  C   LIG    1       28.780  -1.574  27.861  0.00  0.00    +0.000 A 
ATOM      3  C   LIG    1       27.497  -1.029  27.826  0.00  0.00    +0.000 A 
ATOM      4  C   LIG    1       26.382  -1.860  27.935  0.00  0.00    +0.000 A 
ATOM      5  C   LIG    1       26.550  -3.237  28.078  0.00  0.00    +0.000 A 
ATOM      6  C   LIG    1       27.834  -3.783  28.114  0.00  0.00    +0.000 A 
ENDROOT
TORSDOF 0
ENDMDL
MODEL 4
REMARK VINA RESULT:      -4.2      0.078      1.973
REMARK  Name = 
REMARK                            x       y       z     vdW  Elec       q    Type
REMARK                         _______ _______ _______ _____ _____    ______ ____
ROOT
ATOM      1  C   LIG    1       26.413  -1.823  27.979  0.00  0.00    +0.000 A 
ATOM      2  C   LIG    1       26.606  -3.201  28.081  0.00  0.00    +0.000 A 
ATOM      3  C   LIG    1       27.898  -3.725  28.094  0.00  0.00    +0.000 A 
ATOM      4  C   LIG    1       28.998  -2.872  28.004  0.00  0.00    +0.000 A 
ATOM      5  C   LIG    1       28.806  -1.495  27.901  0.00  0.00    +0.000 A 
ATOM      6  C   LIG    1       27.513  -0.970  27.888  0.00  0.00    +0.000 A 
ENDROOT
TORSDOF 0
ENDMDL
MODEL 5
REMARK VINA RESULT:      -4.1      1.153      2.099
REMARK  Name = 
REMARK                            x       y       z     vdW  Elec       q    Type
REMARK                         _______ _______ _______ _____ _____    ______ ____
ROOT
ATOM      1  C   LIG    1       27.274  -3.260  27.243  0.00  0.00    +0.000 A 
ATOM      2  C   LIG    1       28.353  -3.501  28.094  0.00  0.00    +0.000 A 
ATOM      3  C   LIG    1       29.403  -2.586  28.163  0.00  0.00    +0.000 A 
ATOM      4  C   LIG    1       29.376  -1.431  27.380  0.00  0.00    +0.000 A 
ATOM      5  C   LIG    1       28.298  -1.192  26.529  0.00  0.00    +0.000 A 
ATOM      6  C   LIG    1       27.247  -2.106  26.459  0.00  0.00    +0.000 A 
ENDROOT
TORSDOF 0
ENDMDL
MODEL 6
REMARK VINA RESULT:      -4.1      1.972      2.661
REMARK  Name = 
REMARK                            x       y       z     vdW  Elec       q    Type
REMARK                         _______ _______ _______ _____ _____    ______ ____
ROOT
ATOM      1  C   LIG    1       26.870  -1.305  27.017  0.00  0.00    +0.000 A 
ATOM      2  C   LIG    1       26.482  -0.052  27.492  0.00  0.00    +0.000 A 
ATOM      3  C   LIG    1       27.341   1.039  27.362  0.00  0.00    +0.000 A 
ATOM      4  C   LIG    1       28.588   0.879  26.758  0.00  0.00    +0.000 A 
ATOM      5  C   LIG    1       28.976  -0.374  26.284  0.00  0.00    +0.000 A 
ATOM      6  C   LIG    1       28.118  -1.467  26.413  0.00  0.00    +0.000 A 
ENDROOT
TORSDOF 0
ENDMDL
MODEL 7
REMARK VINA RESULT:      -4.0      1.933      3.345
REMARK  Name = 
REMARK                            x       y       z     vdW  Elec       q    Type
REMARK                         _______ _______ _______ _____ _____    ______ ____
ROOT
ATOM      1  C   LIG    1       28.747   0.525  26.692  0.00  0.00    +0.000 A 
ATOM      2  C   LIG    1       28.880  -0.807  26.301  0.00  0.00    +0.000 A 
ATOM      3  C   LIG    1       27.820  -1.695  26.478  0.00  0.00    +0.000 A 
ATOM      4  C   LIG    1       26.626  -1.252  27.047  0.00  0.00    +0.000 A 
ATOM      5  C   LIG    1       26.493   0.080  27.439  0.00  0.00    +0.000 A 
ATOM      6  C   LIG    1       27.554   0.969  27.262  0.00  0.00    +0.000 A 
ENDROOT
TORSDOF 0
ENDMDL
MODEL 8
REMARK VINA RESULT:      -4.0      1.182      2.140
REMARK  Name = 
REMARK                            x       y       z     vdW  Elec       q    Type
REMARK                         _______ _______ _______ _____ _____    ______ ____
ROOT
ATOM      1  C   LIG    1       27.459  -1.748  26.415  0.00  0.00    +0.000 A 
ATOM      2  C   LIG    1       27.265  -2.958  27.080  0.00  0.00    +0.000 A 
ATOM      3  C   LIG    1       28.225  -3.421  27.979  0.00  0.00    +0.000 A 
ATOM      4  C   LIG    1       29.380  -2.675  28.213  0.00  0.00    +0.000 A 
ATOM      5  C   LIG    1       29.575  -1.466  27.546  0.00  0.00    +0.000 A 
ATOM      6  C   LIG    1       28.615  -1.002  26.647  0.00  0.00    +0.000 A 
ENDROOT
TORSDOF 0
ENDMDL
MODEL 9
REMARK VINA RESULT:      -3.8      5.946      7.214
REMARK  Name = 
REMARK                            x       y       z     vdW  Elec       q    Type
REMARK                         _______ _______ _______ _____ _____    ______ ____
ROOT
ATOM      1  C   LIG    1       33.569   2.100  26.424  0.00  0.00    +0.000 A 
ATOM      2  C   LIG    1       32.806   0.964  26.155  0.00  0.00    +0.000 A 
ATOM      3  C   LIG    1       32.913  -0.159  26.975  0.00  0.00    +0.000 A 
ATOM      4  C   LIG    1       33.784  -0.147  28.064  0.00  0.00    +0.000 A 
ATOM      5  C   LIG    1       34.548   0.988  28.333  0.00  0.00    +0.000 A 
ATOM      6  C   LIG    1       34.442   2.112  27.513  0.00  0.00    +0.000 A 
ENDROOT
TORSDOF 0
ENDMDL
