MODEL 1
REMARK VINA RESULT:      -4.9      0.000      0.000
REMARK  Name = 
REMARK                            x       y       z     vdW  Elec       q    Type
REMARK                         _______ _______ _______ _____ _____    ______ ____
ROOT
ATOM      1  C   LIG    1       67.732  56.537  87.797  0.00  0.00    +0.000 A 
ATOM      2  C   LIG    1       66.767  57.539  87.691  0.00  0.00    +0.000 A 
ATOM      3  C   LIG    1       65.620  57.488  88.483  0.00  0.00    +0.000 A 
ATOM      4  C   LIG    1       65.436  56.435  89.379  0.00  0.00    +0.000 A 
ATOM      5  C   LIG    1       66.400  55.432  89.483  0.00  0.00    +0.000 A 
ATOM      6  C   LIG    1       67.548  55.483  88.692  0.00  0.00    +0.000 A 
ENDROOT
TORSDOF 0
ENDMDL
MODEL 2
REMARK VINA RESULT:      -4.9      0.163      2.789
REMARK  Name = 
REMARK                            x       y       z     vdW  Elec       q    Type
REMARK                         _______ _______ _______ _____ _____    ______ ____
ROOT
ATOM      1  C   LIG    1       65.446  56.314  89.307  0.00  0.00    +0.000 A 
ATOM      2  C   LIG    1       66.414  55.311  89.273  0.00  0.00    +0.000 A 
ATOM      3  C   LIG    1       67.540  55.455  88.463  0.00  0.00    +0.000 A 
ATOM      4  C   LIG    1       67.698  56.602  87.685  0.00  0.00    +0.000 A 
ATOM      5  C   LIG    1       66.730  57.605  87.718  0.00  0.00    +0.000 A 
ATOM      6  C   LIG    1       65.603  57.461  88.528  0.00  0.00    +0.000 A 
ENDROOT
TORSDOF 0
ENDMDL
MODEL 3
REMARK VINA RESULT:      -4.2      2.885      4.362
REMARK  Name = 
REMARK                            x       y       z     vdW  Elec       q    Type
REMARK                         _______ _______ _______ _____ _____    ______ ____
ROOT
ATOM      1  C   LIG    1       68.866  55.113  87.691  0.00  0.00    +0.000 A 
ATOM      2  C   LIG    1       70.026  54.419  87.346  0.00  0.00    +0.000 A 
ATOM      3  C   LIG    1       71.211  54.652  88.043  0.00  0.00    +0.000 A 
ATOM      4  C   LIG    1       71.237  55.580  89.085  0.00  0.00    +0.000 A 
ATOM      5  C   LIG    1       70.078  56.274  89.429  0.00  0.00    +0.000 A 
ATOM      6  C   LIG    1       68.892  56.041  88.732  0.00  0.00    +0.000 A 
ENDROOT
TORSDOF 0
ENDMDL
MODEL 4
REMARK VINA RESULT:      -4.2      8.798     10.075
REMARK  Name = 
REMARK                            x       y       z     vdW  Elec       q    Type
REMARK                         _______ _______ _______ _____ _____    ______ ____
ROOT
ATOM      1  C   LIG    1       69.781  47.913  93.972  0.00  0.00    +0.000 A 
ATOM      2  C   LIG    1       68.647  47.375  94.581  0.00  0.00    +0.000 A 
ATOM      3  C   LIG    1       67.393  47.546  93.995  0.00  0.00    +0.000 A 
ATOM      4  C   LIG    1       67.272  48.256  92.800  0.00  0.00    +0.000 A 
ATOM      5  C   LIG    1       68.405  48.795  92.192  0.00  0.00    +0.000 A 
ATOM      6  C   LIG    1       69.660  48.624  92.778  0.00  0.00    +0.000 A 
ENDROOT
TORSDOF 0
ENDMDL
MODEL 5
REMARK VINA RESULT:      -4.2      8.803     10.081
REMARK  Name = 
REMARK                            x       y       z     vdW  Elec       q    Type
REMARK                         _______ _______ _______ _____ _____    ______ ____
ROOT
ATOM      1  C   LIG    1       67.386  47.546  93.994  0.00  0.00    +0.000 A 
ATOM      2  C   LIG    1       67.273  48.258  92.800  0.00  0.00    +0.000 A 
ATOM      3  C   LIG    1       68.411  48.794  92.198  0.00  0.00    +0.000 A 
ATOM      4  C   LIG    1       69.662  48.618  92.789  0.00  0.00    +0.000 A 
ATOM      5  C   LIG    1       69.775  47.906  93.983  0.00  0.00    +0.000 A 
ATOM      6  C   LIG    1       68.637  47.370  94.586  0.00  0.00    +0.000 A 
ENDROOT
TORSDOF 0
ENDMDL
MODEL 6
REMARK VINA RESULT:      -4.2      8.803     10.042
REMARK  Name = 
REMARK                            x       y       z     vdW  Elec       q    Type
REMARK                         _______ _______ _______ _____ _____    ______ ____
ROOT
ATOM      1  C   LIG    1       68.415  48.791  92.191  0.00  0.00    +0.000 A 
ATOM      2  C   LIG    1       69.666  48.617  92.783  0.00  0.00    +0.000 A 
ATOM      3  C   LIG    1       69.779  47.908  93.978  0.00  0.00    +0.000 A 
ATOM      4  C   LIG    1       68.641  47.374  94.583  0.00  0.00    +0.000 A 
ATOM      5  C   LIG    1       67.390  47.549  93.992  0.00  0.00    +0.000 A 
ATOM      6  C   LIG    1       67.276  48.258  92.796  0.00  0.00    +0.000 A 
ENDROOT
TORSDOF 0
ENDMDL
MODEL 7
REMARK VINA RESULT:      -4.2      8.793      9.949
REMARK  Name = 
REMARK                            x       y       z     vdW  Elec       q    Type
REMARK                         _______ _______ _______ _____ _____    ______ ____
ROOT
ATOM      1  C   LIG    1       69.803  47.925  93.957  0.00  0.00    +0.000 A 
ATOM      2  C   LIG    1       69.672  48.633  92.762  0.00  0.00    +0.000 A 
ATOM      3  C   LIG    1       68.414  48.799  92.185  0.00  0.00    +0.000 A 
ATOM      4  C   LIG    1       67.286  48.257  92.801  0.00  0.00    +0.000 A 
ATOM      5  C   LIG    1       67.417  47.548  93.995  0.00  0.00    +0.000 A 
ATOM      6  C   LIG    1       68.676  47.382  94.573  0.00  0.00    +0.000 A 
ENDROOT
TORSDOF 0
ENDMDL
MODEL 8
REMARK VINA RESULT:      -4.1      8.810     10.162
REMARK  Name = 
REMARK                            x       y       z     vdW  Elec       q    Type
REMARK                         _______ _______ _______ _____ _____    ______ ____
ROOT
ATOM      1  C   LIG    1       67.300  48.253  92.743  0.00  0.00    +0.000 A 
ATOM      2  C   LIG    1       67.380  47.554  93.948  0.00  0.00    +0.000 A 
ATOM      3  C   LIG    1       68.614  47.384  94.574  0.00  0.00    +0.000 A 
ATOM      4  C   LIG    1       69.769  47.911  93.996  0.00  0.00    +0.000 A 
ATOM      5  C   LIG    1       69.690  48.609  92.791  0.00  0.00    +0.000 A 
ATOM      6  C   LIG    1       68.455  48.779  92.164  0.00  0.00    +0.000 A 
ENDROOT
TORSDOF 0
ENDMDL
MODEL 9
REMARK VINA RESULT:      -3.9     11.061     12.475
REMARK  Name = 
REMARK                            x       y       z     vdW  Elec       q    Type
REMARK                         _______ _______ _______ _____ _____    ______ ____
ROOT
ATOM      1  C   LIG    1       68.301  47.173  94.846  0.00  0.00    +0.000 A 
ATOM      2  C   LIG    1       68.754  46.130  95.653  0.00  0.00    +0.000 A 
ATOM      3  C   LIG    1       67.872  45.127  96.058  0.00  0.00    +0.000 A 
ATOM      4  C   LIG    1       66.537  45.168  95.655  0.00  0.00    +0.000 A 
ATOM      5  C   LIG    1       66.084  46.211  94.848  0.00  0.00    +0.000 A 
ATOM      6  C   LIG    1       66.965  47.214  94.443  0.00  0.00    +0.000 A 
ENDROOT
TORSDOF 0
ENDMDL
