MODEL 1
REMARK VINA RESULT:      -4.7      0.000      0.000
REMARK  Name = 
REMARK                            x       y       z     vdW  Elec       q    Type
REMARK                         _______ _______ _______ _____ _____    ______ ____
ROOT
ATOM      1  C   LIG    1        0.467  -1.508  24.734  0.00  0.00    +0.000 A 
ATOM      2  C   LIG    1       -0.286  -1.938  25.826  0.00  0.00    +0.000 A 
ATOM      3  C   LIG    1       -0.377  -3.299  26.118  0.00  0.00    +0.000 A 
ATOM      4  C   LIG    1        0.284  -4.230  25.317  0.00  0.00    +0.000 A 
ATOM      5  C   LIG    1        1.036  -3.801  24.224  0.00  0.00    +0.000 A 
ATOM      6  C   LIG    1        1.128  -2.439  23.932  0.00  0.00    +0.000 A 
ENDROOT
TORSDOF 0
ENDMDL
MODEL 2
REMARK VINA RESULT:      -4.7      0.053      2.790
REMARK  Name = 
REMARK                            x       y       z     vdW  Elec       q    Type
REMARK                         _______ _______ _______ _____ _____    ______ ____
ROOT
ATOM      1  C   LIG    1        0.285  -4.213  25.254  0.00  0.00    +0.000 A 
ATOM      2  C   LIG    1        1.030  -3.771  24.160  0.00  0.00    +0.000 A 
ATOM      3  C   LIG    1        1.128  -2.407  23.889  0.00  0.00    +0.000 A 
ATOM      4  C   LIG    1        0.481  -1.483  24.710  0.00  0.00    +0.000 A 
ATOM      5  C   LIG    1       -0.265  -1.925  25.803  0.00  0.00    +0.000 A 
ATOM      6  C   LIG    1       -0.363  -3.290  26.075  0.00  0.00    +0.000 A 
ENDROOT
TORSDOF 0
ENDMDL
MODEL 3
REMARK VINA RESULT:      -4.5      7.134      8.121
REMARK  Name = 
REMARK                            x       y       z     vdW  Elec       q    Type
REMARK                         _______ _______ _______ _____ _____    ______ ____
ROOT
ATOM      1  C   LIG    1        3.575   2.878  22.441  0.00  0.00    +0.000 A 
ATOM      2  C   LIG    1        2.876   3.586  23.419  0.00  0.00    +0.000 A 
ATOM      3  C   LIG    1        2.161   4.732  23.072  0.00  0.00    +0.000 A 
ATOM      4  C   LIG    1        2.145   5.171  21.748  0.00  0.00    +0.000 A 
ATOM      5  C   LIG    1        2.845   4.464  20.771  0.00  0.00    +0.000 A 
ATOM      6  C   LIG    1        3.560   3.317  21.117  0.00  0.00    +0.000 A 
ENDROOT
TORSDOF 0
ENDMDL
MODEL 4
REMARK VINA RESULT:      -4.5      7.153      8.139
REMARK  Name = 
REMARK                            x       y       z     vdW  Elec       q    Type
REMARK                         _______ _______ _______ _____ _____    ______ ____
ROOT
ATOM      1  C   LIG    1        2.156   4.743  23.069  0.00  0.00    +0.000 A 
ATOM      2  C   LIG    1        2.137   5.183  21.745  0.00  0.00    +0.000 A 
ATOM      3  C   LIG    1        2.838   4.480  20.767  0.00  0.00    +0.000 A 
ATOM      4  C   LIG    1        3.561   3.337  21.110  0.00  0.00    +0.000 A 
ATOM      5  C   LIG    1        3.581   2.897  22.434  0.00  0.00    +0.000 A 
ATOM      6  C   LIG    1        2.879   3.600  23.414  0.00  0.00    +0.000 A 
ENDROOT
TORSDOF 0
ENDMDL
MODEL 5
REMARK VINA RESULT:      -4.5      7.131      8.156
REMARK  Name = 
REMARK                            x       y       z     vdW  Elec       q    Type
REMARK                         _______ _______ _______ _____ _____    ______ ____
ROOT
ATOM      1  C   LIG    1        2.848   4.449  20.761  0.00  0.00    +0.000 A 
ATOM      2  C   LIG    1        3.559   3.302  21.114  0.00  0.00    +0.000 A 
ATOM      3  C   LIG    1        3.572   2.870  22.440  0.00  0.00    +0.000 A 
ATOM      4  C   LIG    1        2.874   3.585  23.414  0.00  0.00    +0.000 A 
ATOM      5  C   LIG    1        2.164   4.733  23.061  0.00  0.00    +0.000 A 
ATOM      6  C   LIG    1        2.151   5.165  21.734  0.00  0.00    +0.000 A 
ENDROOT
TORSDOF 0
ENDMDL
MODEL 6
REMARK VINA RESULT:      -3.7      5.576      6.736
REMARK  Name = 
REMARK                            x       y       z     vdW  Elec       q    Type
REMARK                         _______ _______ _______ _____ _____    ______ ____
ROOT
ATOM      1  C   LIG    1        2.816   4.199  22.127  0.00  0.00    +0.000 A 
ATOM      2  C   LIG    1        1.532   3.688  22.321  0.00  0.00    +0.000 A 
ATOM      3  C   LIG    1        1.354   2.328  22.575  0.00  0.00    +0.000 A 
ATOM      4  C   LIG    1        2.459   1.478  22.634  0.00  0.00    +0.000 A 
ATOM      5  C   LIG    1        3.742   1.989  22.439  0.00  0.00    +0.000 A 
ATOM      6  C   LIG    1        3.921   3.349  22.185  0.00  0.00    +0.000 A 
ENDROOT
TORSDOF 0
ENDMDL
MODEL 7
REMARK VINA RESULT:      -3.7      5.277      6.621
REMARK  Name = 
REMARK                            x       y       z     vdW  Elec       q    Type
REMARK                         _______ _______ _______ _____ _____    ______ ____
ROOT
ATOM      1  C   LIG    1        1.167   3.464  22.112  0.00  0.00    +0.000 A 
ATOM      2  C   LIG    1        2.091   4.316  22.716  0.00  0.00    +0.000 A 
ATOM      3  C   LIG    1        3.031   3.805  23.610  0.00  0.00    +0.000 A 
ATOM      4  C   LIG    1        3.048   2.441  23.901  0.00  0.00    +0.000 A 
ATOM      5  C   LIG    1        2.123   1.588  23.298  0.00  0.00    +0.000 A 
ATOM      6  C   LIG    1        1.182   2.099  22.404  0.00  0.00    +0.000 A 
ENDROOT
TORSDOF 0
ENDMDL
MODEL 8
REMARK VINA RESULT:      -3.7     11.416     12.598
REMARK  Name = 
REMARK                            x       y       z     vdW  Elec       q    Type
REMARK                         _______ _______ _______ _____ _____    ______ ____
ROOT
ATOM      1  C   LIG    1       10.112  -1.319  18.108  0.00  0.00    +0.000 A 
ATOM      2  C   LIG    1        9.848  -2.488  18.821  0.00  0.00    +0.000 A 
ATOM      3  C   LIG    1       10.228  -3.724  18.298  0.00  0.00    +0.000 A 
ATOM      4  C   LIG    1       10.870  -3.792  17.062  0.00  0.00    +0.000 A 
ATOM      5  C   LIG    1       11.133  -2.623  16.348  0.00  0.00    +0.000 A 
ATOM      6  C   LIG    1       10.754  -1.386  16.871  0.00  0.00    +0.000 A 
ENDROOT
TORSDOF 0
ENDMDL
MODEL 9
REMARK VINA RESULT:      -3.7     11.405     12.687
REMARK  Name = 
REMARK                            x       y       z     vdW  Elec       q    Type
REMARK                         _______ _______ _______ _____ _____    ______ ____
ROOT
ATOM      1  C   LIG    1       11.157  -2.621  16.370  0.00  0.00    +0.000 A 
ATOM      2  C   LIG    1       10.756  -1.387  16.881  0.00  0.00    +0.000 A 
ATOM      3  C   LIG    1       10.096  -1.322  18.108  0.00  0.00    +0.000 A 
ATOM      4  C   LIG    1        9.837  -2.491  18.824  0.00  0.00    +0.000 A 
ATOM      5  C   LIG    1       10.238  -3.725  18.313  0.00  0.00    +0.000 A 
ATOM      6  C   LIG    1       10.898  -3.791  17.085  0.00  0.00    +0.000 A 
ENDROOT
TORSDOF 0
ENDMDL
