MODEL 1
REMARK VINA RESULT:      -4.9      0.000      0.000
REMARK  Name = 
REMARK                            x       y       z     vdW  Elec       q    Type
REMARK                         _______ _______ _______ _____ _____    ______ ____
ROOT
ATOM      1  C   LIG    1       10.179   1.629  34.389  0.00  0.00    +0.000 A 
ATOM      2  C   LIG    1        9.977   1.384  35.747  0.00  0.00    +0.000 A 
ATOM      3  C   LIG    1       10.944   1.765  36.676  0.00  0.00    +0.000 A 
ATOM      4  C   LIG    1       12.115   2.391  36.248  0.00  0.00    +0.000 A 
ATOM      5  C   LIG    1       12.318   2.636  34.890  0.00  0.00    +0.000 A 
ATOM      6  C   LIG    1       11.350   2.255  33.960  0.00  0.00    +0.000 A 
ENDROOT
TORSDOF 0
ENDMDL
MODEL 2
REMARK VINA RESULT:      -4.9      0.012      1.973
REMARK  Name = 
REMARK                            x       y       z     vdW  Elec       q    Type
REMARK                         _______ _______ _______ _____ _____    ______ ____
ROOT
ATOM      1  C   LIG    1       10.177   1.627  34.394  0.00  0.00    +0.000 A 
ATOM      2  C   LIG    1       11.342   2.257  33.957  0.00  0.00    +0.000 A 
ATOM      3  C   LIG    1       12.313   2.645  34.880  0.00  0.00    +0.000 A 
ATOM      4  C   LIG    1       12.119   2.405  36.240  0.00  0.00    +0.000 A 
ATOM      5  C   LIG    1       10.953   1.776  36.677  0.00  0.00    +0.000 A 
ATOM      6  C   LIG    1        9.981   1.388  35.754  0.00  0.00    +0.000 A 
ENDROOT
TORSDOF 0
ENDMDL
MODEL 3
REMARK VINA RESULT:      -4.9      0.054      1.973
REMARK  Name = 
REMARK                            x       y       z     vdW  Elec       q    Type
REMARK                         _______ _______ _______ _____ _____    ______ ____
ROOT
ATOM      1  C   LIG    1       11.369   2.267  34.002  0.00  0.00    +0.000 A 
ATOM      2  C   LIG    1       12.334   2.609  34.949  0.00  0.00    +0.000 A 
ATOM      3  C   LIG    1       12.116   2.331  36.298  0.00  0.00    +0.000 A 
ATOM      4  C   LIG    1       10.934   1.710  36.701  0.00  0.00    +0.000 A 
ATOM      5  C   LIG    1        9.968   1.368  35.754  0.00  0.00    +0.000 A 
ATOM      6  C   LIG    1       10.185   1.647  34.404  0.00  0.00    +0.000 A 
ENDROOT
TORSDOF 0
ENDMDL
MODEL 4
REMARK VINA RESULT:      -4.9      0.016      1.395
REMARK  Name = 
REMARK                            x       y       z     vdW  Elec       q    Type
REMARK                         _______ _______ _______ _____ _____    ______ ____
ROOT
ATOM      1  C   LIG    1        9.973   1.382  35.760  0.00  0.00    +0.000 A 
ATOM      2  C   LIG    1       10.946   1.752  36.688  0.00  0.00    +0.000 A 
ATOM      3  C   LIG    1       12.118   2.375  36.260  0.00  0.00    +0.000 A 
ATOM      4  C   LIG    1       12.318   2.628  34.902  0.00  0.00    +0.000 A 
ATOM      5  C   LIG    1       11.345   2.258  33.974  0.00  0.00    +0.000 A 
ATOM      6  C   LIG    1       10.172   1.634  34.402  0.00  0.00    +0.000 A 
ENDROOT
TORSDOF 0
ENDMDL
MODEL 5
REMARK VINA RESULT:      -4.9      0.032      1.973
REMARK  Name = 
REMARK                            x       y       z     vdW  Elec       q    Type
REMARK                         _______ _______ _______ _____ _____    ______ ____
ROOT
ATOM      1  C   LIG    1       12.097   2.441  36.240  0.00  0.00    +0.000 A 
ATOM      2  C   LIG    1       10.936   1.802  36.677  0.00  0.00    +0.000 A 
ATOM      3  C   LIG    1        9.979   1.387  35.752  0.00  0.00    +0.000 A 
ATOM      4  C   LIG    1       10.181   1.611  34.390  0.00  0.00    +0.000 A 
ATOM      5  C   LIG    1       11.341   2.250  33.953  0.00  0.00    +0.000 A 
ATOM      6  C   LIG    1       12.299   2.666  34.878  0.00  0.00    +0.000 A 
ENDROOT
TORSDOF 0
ENDMDL
MODEL 6
REMARK VINA RESULT:      -4.9      0.153      1.976
REMARK  Name = 
REMARK                            x       y       z     vdW  Elec       q    Type
REMARK                         _______ _______ _______ _____ _____    ______ ____
ROOT
ATOM      1  C   LIG    1       10.953   1.659  36.550  0.00  0.00    +0.000 A 
ATOM      2  C   LIG    1        9.952   1.391  35.617  0.00  0.00    +0.000 A 
ATOM      3  C   LIG    1       10.158   1.687  34.269  0.00  0.00    +0.000 A 
ATOM      4  C   LIG    1       11.364   2.252  33.855  0.00  0.00    +0.000 A 
ATOM      5  C   LIG    1       12.365   2.522  34.789  0.00  0.00    +0.000 A 
ATOM      6  C   LIG    1       12.159   2.226  36.137  0.00  0.00    +0.000 A 
ENDROOT
TORSDOF 0
ENDMDL
MODEL 7
REMARK VINA RESULT:      -4.1      1.064      1.798
REMARK  Name = 
REMARK                            x       y       z     vdW  Elec       q    Type
REMARK                         _______ _______ _______ _____ _____    ______ ____
ROOT
ATOM      1  C   LIG    1       11.401   2.333  32.626  0.00  0.00    +0.000 A 
ATOM      2  C   LIG    1       10.404   1.603  33.273  0.00  0.00    +0.000 A 
ATOM      3  C   LIG    1       10.346   1.585  34.666  0.00  0.00    +0.000 A 
ATOM      4  C   LIG    1       11.286   2.296  35.414  0.00  0.00    +0.000 A 
ATOM      5  C   LIG    1       12.284   3.025  34.767  0.00  0.00    +0.000 A 
ATOM      6  C   LIG    1       12.342   3.043  33.373  0.00  0.00    +0.000 A 
ENDROOT
TORSDOF 0
ENDMDL
MODEL 8
REMARK VINA RESULT:      -3.8      6.685      8.104
REMARK  Name = 
REMARK                            x       y       z     vdW  Elec       q    Type
REMARK                         _______ _______ _______ _____ _____    ______ ____
ROOT
ATOM      1  C   LIG    1        8.207   1.227  29.532  0.00  0.00    +0.000 A 
ATOM      2  C   LIG    1        7.571   1.735  28.399  0.00  0.00    +0.000 A 
ATOM      3  C   LIG    1        7.511   0.973  27.233  0.00  0.00    +0.000 A 
ATOM      4  C   LIG    1        8.087  -0.297  27.197  0.00  0.00    +0.000 A 
ATOM      5  C   LIG    1        8.724  -0.805  28.330  0.00  0.00    +0.000 A 
ATOM      6  C   LIG    1        8.785  -0.043  29.497  0.00  0.00    +0.000 A 
ENDROOT
TORSDOF 0
ENDMDL
MODEL 9
REMARK VINA RESULT:      -3.8     13.366     14.585
REMARK  Name = 
REMARK                            x       y       z     vdW  Elec       q    Type
REMARK                         _______ _______ _______ _____ _____    ______ ____
ROOT
ATOM      1  C   LIG    1       19.142   3.609  21.984  0.00  0.00    +0.000 A 
ATOM      2  C   LIG    1       19.089   2.305  22.476  0.00  0.00    +0.000 A 
ATOM      3  C   LIG    1       17.953   1.863  23.155  0.00  0.00    +0.000 A 
ATOM      4  C   LIG    1       16.872   2.724  23.343  0.00  0.00    +0.000 A 
ATOM      5  C   LIG    1       16.926   4.028  22.851  0.00  0.00    +0.000 A 
ATOM      6  C   LIG    1       18.062   4.471  22.172  0.00  0.00    +0.000 A 
ENDROOT
TORSDOF 0
ENDMDL
