MODEL 1
REMARK VINA RESULT:      -4.5      0.000      0.000
REMARK  Name = 
REMARK                            x       y       z     vdW  Elec       q    Type
REMARK                         _______ _______ _______ _____ _____    ______ ____
ROOT
ATOM      1  C   LIG    1        1.881  15.695  32.763  0.00  0.00    +0.000 A 
ATOM      2  C   LIG    1        2.520  16.654  31.977  0.00  0.00    +0.000 A 
ATOM      3  C   LIG    1        2.985  17.834  32.557  0.00  0.00    +0.000 A 
ATOM      4  C   LIG    1        2.810  18.056  33.923  0.00  0.00    +0.000 A 
ATOM      5  C   LIG    1        2.170  17.098  34.709  0.00  0.00    +0.000 A 
ATOM      6  C   LIG    1        1.705  15.917  34.129  0.00  0.00    +0.000 A 
ENDROOT
TORSDOF 0
ENDMDL
MODEL 2
REMARK VINA RESULT:      -4.5      0.046      1.973
REMARK  Name = 
REMARK                            x       y       z     vdW  Elec       q    Type
REMARK                         _______ _______ _______ _____ _____    ______ ____
ROOT
ATOM      1  C   LIG    1        2.575  16.660  31.957  0.00  0.00    +0.000 A 
ATOM      2  C   LIG    1        1.930  15.687  32.721  0.00  0.00    +0.000 A 
ATOM      3  C   LIG    1        1.719  15.897  34.084  0.00  0.00    +0.000 A 
ATOM      4  C   LIG    1        2.152  17.080  34.683  0.00  0.00    +0.000 A 
ATOM      5  C   LIG    1        2.797  18.053  33.919  0.00  0.00    +0.000 A 
ATOM      6  C   LIG    1        3.009  17.842  32.556  0.00  0.00    +0.000 A 
ENDROOT
TORSDOF 0
ENDMDL
MODEL 3
REMARK VINA RESULT:      -4.5      0.106      1.973
REMARK  Name = 
REMARK                            x       y       z     vdW  Elec       q    Type
REMARK                         _______ _______ _______ _____ _____    ______ ____
ROOT
ATOM      1  C   LIG    1        1.595  15.946  34.154  0.00  0.00    +0.000 A 
ATOM      2  C   LIG    1        2.054  17.152  34.683  0.00  0.00    +0.000 A 
ATOM      3  C   LIG    1        2.740  18.054  33.870  0.00  0.00    +0.000 A 
ATOM      4  C   LIG    1        2.967  17.751  32.527  0.00  0.00    +0.000 A 
ATOM      5  C   LIG    1        2.508  16.544  31.998  0.00  0.00    +0.000 A 
ATOM      6  C   LIG    1        1.822  15.641  32.811  0.00  0.00    +0.000 A 
ENDROOT
TORSDOF 0
ENDMDL
MODEL 4
REMARK VINA RESULT:      -4.2      4.342      5.390
REMARK  Name = 
REMARK                            x       y       z     vdW  Elec       q    Type
REMARK                         _______ _______ _______ _____ _____    ______ ____
ROOT
ATOM      1  C   LIG    1        5.417  18.967  28.835  0.00  0.00    +0.000 A 
ATOM      2  C   LIG    1        6.414  19.751  29.413  0.00  0.00    +0.000 A 
ATOM      3  C   LIG    1        6.942  19.403  30.656  0.00  0.00    +0.000 A 
ATOM      4  C   LIG    1        6.472  18.270  31.322  0.00  0.00    +0.000 A 
ATOM      5  C   LIG    1        5.473  17.487  30.744  0.00  0.00    +0.000 A 
ATOM      6  C   LIG    1        4.945  17.835  29.500  0.00  0.00    +0.000 A 
ENDROOT
TORSDOF 0
ENDMDL
MODEL 5
REMARK VINA RESULT:      -4.2      4.297      5.479
REMARK  Name = 
REMARK                            x       y       z     vdW  Elec       q    Type
REMARK                         _______ _______ _______ _____ _____    ______ ____
ROOT
ATOM      1  C   LIG    1        6.872  19.335  30.724  0.00  0.00    +0.000 A 
ATOM      2  C   LIG    1        6.409  19.733  29.470  0.00  0.00    +0.000 A 
ATOM      3  C   LIG    1        5.423  18.989  28.823  0.00  0.00    +0.000 A 
ATOM      4  C   LIG    1        4.900  17.846  29.428  0.00  0.00    +0.000 A 
ATOM      5  C   LIG    1        5.364  17.447  30.682  0.00  0.00    +0.000 A 
ATOM      6  C   LIG    1        6.351  18.191  31.330  0.00  0.00    +0.000 A 
ENDROOT
TORSDOF 0
ENDMDL
MODEL 6
REMARK VINA RESULT:      -4.2      4.225      5.491
REMARK  Name = 
REMARK                            x       y       z     vdW  Elec       q    Type
REMARK                         _______ _______ _______ _____ _____    ______ ____
ROOT
ATOM      1  C   LIG    1        6.275  17.958  31.279  0.00  0.00    +0.000 A 
ATOM      2  C   LIG    1        5.255  17.252  30.641  0.00  0.00    +0.000 A 
ATOM      3  C   LIG    1        4.766  17.692  29.412  0.00  0.00    +0.000 A 
ATOM      4  C   LIG    1        5.296  18.839  28.819  0.00  0.00    +0.000 A 
ATOM      5  C   LIG    1        6.316  19.545  29.457  0.00  0.00    +0.000 A 
ATOM      6  C   LIG    1        6.805  19.105  30.688  0.00  0.00    +0.000 A 
ENDROOT
TORSDOF 0
ENDMDL
MODEL 7
REMARK VINA RESULT:      -4.2      4.359      5.663
REMARK  Name = 
REMARK                            x       y       z     vdW  Elec       q    Type
REMARK                         _______ _______ _______ _____ _____    ______ ____
ROOT
ATOM      1  C   LIG    1        4.960  20.174  29.601  0.00  0.00    +0.000 A 
ATOM      2  C   LIG    1        4.533  18.932  30.071  0.00  0.00    +0.000 A 
ATOM      3  C   LIG    1        5.384  18.154  30.856  0.00  0.00    +0.000 A 
ATOM      4  C   LIG    1        6.662  18.616  31.169  0.00  0.00    +0.000 A 
ATOM      5  C   LIG    1        7.090  19.858  30.698  0.00  0.00    +0.000 A 
ATOM      6  C   LIG    1        6.239  20.637  29.913  0.00  0.00    +0.000 A 
ENDROOT
TORSDOF 0
ENDMDL
MODEL 8
REMARK VINA RESULT:      -4.1      4.252      5.506
REMARK  Name = 
REMARK                            x       y       z     vdW  Elec       q    Type
REMARK                         _______ _______ _______ _____ _____    ______ ____
ROOT
ATOM      1  C   LIG    1        6.143  20.301  30.011  0.00  0.00    +0.000 A 
ATOM      2  C   LIG    1        7.028  19.527  30.761  0.00  0.00    +0.000 A 
ATOM      3  C   LIG    1        6.650  18.255  31.191  0.00  0.00    +0.000 A 
ATOM      4  C   LIG    1        5.387  17.758  30.872  0.00  0.00    +0.000 A 
ATOM      5  C   LIG    1        4.501  18.532  30.123  0.00  0.00    +0.000 A 
ATOM      6  C   LIG    1        4.879  19.805  29.692  0.00  0.00    +0.000 A 
ENDROOT
TORSDOF 0
ENDMDL
MODEL 9
REMARK VINA RESULT:      -4.1      5.444      6.596
REMARK  Name = 
REMARK                            x       y       z     vdW  Elec       q    Type
REMARK                         _______ _______ _______ _____ _____    ______ ____
ROOT
ATOM      1  C   LIG    1        5.478  19.137  28.702  0.00  0.00    +0.000 A 
ATOM      2  C   LIG    1        6.345  19.904  27.924  0.00  0.00    +0.000 A 
ATOM      3  C   LIG    1        7.538  20.377  28.469  0.00  0.00    +0.000 A 
ATOM      4  C   LIG    1        7.865  20.084  29.793  0.00  0.00    +0.000 A 
ATOM      5  C   LIG    1        6.998  19.317  30.572  0.00  0.00    +0.000 A 
ATOM      6  C   LIG    1        5.804  18.844  30.026  0.00  0.00    +0.000 A 
ENDROOT
TORSDOF 0
ENDMDL
