MODEL 1
REMARK VINA RESULT:      -4.5      0.000      0.000
REMARK  Name = 
REMARK                            x       y       z     vdW  Elec       q    Type
REMARK                         _______ _______ _______ _____ _____    ______ ____
ROOT
ATOM      1  C   LIG    1       20.052 -15.770  17.849  0.00  0.00    +0.000 A 
ATOM      2  C   LIG    1       20.398 -14.573  17.221  0.00  0.00    +0.000 A 
ATOM      3  C   LIG    1       21.588 -14.484  16.499  0.00  0.00    +0.000 A 
ATOM      4  C   LIG    1       22.432 -15.591  16.405  0.00  0.00    +0.000 A 
ATOM      5  C   LIG    1       22.086 -16.787  17.034  0.00  0.00    +0.000 A 
ATOM      6  C   LIG    1       20.896 -16.876  17.757  0.00  0.00    +0.000 A 
ENDROOT
TORSDOF 0
ENDMDL
MODEL 2
REMARK VINA RESULT:      -4.5      0.002      1.973
REMARK  Name = 
REMARK                            x       y       z     vdW  Elec       q    Type
REMARK                         _______ _______ _______ _____ _____    ______ ____
ROOT
ATOM      1  C   LIG    1       20.052 -15.768  17.849  0.00  0.00    +0.000 A 
ATOM      2  C   LIG    1       20.894 -16.876  17.757  0.00  0.00    +0.000 A 
ATOM      3  C   LIG    1       22.085 -16.788  17.036  0.00  0.00    +0.000 A 
ATOM      4  C   LIG    1       22.433 -15.593  16.406  0.00  0.00    +0.000 A 
ATOM      5  C   LIG    1       21.590 -14.485  16.498  0.00  0.00    +0.000 A 
ATOM      6  C   LIG    1       20.399 -14.573  17.219  0.00  0.00    +0.000 A 
ENDROOT
TORSDOF 0
ENDMDL
MODEL 3
REMARK VINA RESULT:      -4.4      0.115      1.974
REMARK  Name = 
REMARK                            x       y       z     vdW  Elec       q    Type
REMARK                         _______ _______ _______ _____ _____    ______ ____
ROOT
ATOM      1  C   LIG    1       21.723 -14.555  16.473  0.00  0.00    +0.000 A 
ATOM      2  C   LIG    1       20.518 -14.547  17.175  0.00  0.00    +0.000 A 
ATOM      3  C   LIG    1       20.080 -15.704  17.820  0.00  0.00    +0.000 A 
ATOM      4  C   LIG    1       20.845 -16.869  17.762  0.00  0.00    +0.000 A 
ATOM      5  C   LIG    1       22.050 -16.876  17.059  0.00  0.00    +0.000 A 
ATOM      6  C   LIG    1       22.489 -15.719  16.414  0.00  0.00    +0.000 A 
ENDROOT
TORSDOF 0
ENDMDL
MODEL 4
REMARK VINA RESULT:      -4.4      0.116      2.788
REMARK  Name = 
REMARK                            x       y       z     vdW  Elec       q    Type
REMARK                         _______ _______ _______ _____ _____    ______ ____
ROOT
ATOM      1  C   LIG    1       22.463 -15.735  16.436  0.00  0.00    +0.000 A 
ATOM      2  C   LIG    1       22.024 -16.886  17.091  0.00  0.00    +0.000 A 
ATOM      3  C   LIG    1       20.818 -16.872  17.791  0.00  0.00    +0.000 A 
ATOM      4  C   LIG    1       20.051 -15.707  17.838  0.00  0.00    +0.000 A 
ATOM      5  C   LIG    1       20.491 -14.557  17.184  0.00  0.00    +0.000 A 
ATOM      6  C   LIG    1       21.697 -14.570  16.483  0.00  0.00    +0.000 A 
ENDROOT
TORSDOF 0
ENDMDL
MODEL 5
REMARK VINA RESULT:      -4.3      1.677      2.964
REMARK  Name = 
REMARK                            x       y       z     vdW  Elec       q    Type
REMARK                         _______ _______ _______ _____ _____    ______ ____
ROOT
ATOM      1  C   LIG    1       23.546 -14.351  18.100  0.00  0.00    +0.000 A 
ATOM      2  C   LIG    1       24.296 -15.456  17.698  0.00  0.00    +0.000 A 
ATOM      3  C   LIG    1       23.815 -16.298  16.697  0.00  0.00    +0.000 A 
ATOM      4  C   LIG    1       22.582 -16.038  16.098  0.00  0.00    +0.000 A 
ATOM      5  C   LIG    1       21.831 -14.933  16.500  0.00  0.00    +0.000 A 
ATOM      6  C   LIG    1       22.313 -14.089  17.502  0.00  0.00    +0.000 A 
ENDROOT
TORSDOF 0
ENDMDL
MODEL 6
REMARK VINA RESULT:      -4.3      1.681      2.520
REMARK  Name = 
REMARK                            x       y       z     vdW  Elec       q    Type
REMARK                         _______ _______ _______ _____ _____    ______ ____
ROOT
ATOM      1  C   LIG    1       22.287 -14.124  17.477  0.00  0.00    +0.000 A 
ATOM      2  C   LIG    1       21.855 -15.004  16.484  0.00  0.00    +0.000 A 
ATOM      3  C   LIG    1       22.652 -16.088  16.118  0.00  0.00    +0.000 A 
ATOM      4  C   LIG    1       23.883 -16.292  16.743  0.00  0.00    +0.000 A 
ATOM      5  C   LIG    1       24.315 -15.412  17.735  0.00  0.00    +0.000 A 
ATOM      6  C   LIG    1       23.518 -14.327  18.102  0.00  0.00    +0.000 A 
ENDROOT
TORSDOF 0
ENDMDL
MODEL 7
REMARK VINA RESULT:      -4.1      3.566      4.724
REMARK  Name = 
REMARK                            x       y       z     vdW  Elec       q    Type
REMARK                         _______ _______ _______ _____ _____    ______ ____
ROOT
ATOM      1  C   LIG    1       24.054 -17.106  16.167  0.00  0.00    +0.000 A 
ATOM      2  C   LIG    1       23.474 -18.362  15.988  0.00  0.00    +0.000 A 
ATOM      3  C   LIG    1       24.028 -19.481  16.609  0.00  0.00    +0.000 A 
ATOM      4  C   LIG    1       25.163 -19.345  17.410  0.00  0.00    +0.000 A 
ATOM      5  C   LIG    1       25.743 -18.089  17.588  0.00  0.00    +0.000 A 
ATOM      6  C   LIG    1       25.190 -16.969  16.967  0.00  0.00    +0.000 A 
ENDROOT
TORSDOF 0
ENDMDL
MODEL 8
REMARK VINA RESULT:      -4.0      1.864      2.838
REMARK  Name = 
REMARK                            x       y       z     vdW  Elec       q    Type
REMARK                         _______ _______ _______ _____ _____    ______ ____
ROOT
ATOM      1  C   LIG    1       18.128 -17.185  18.781  0.00  0.00    +0.000 A 
ATOM      2  C   LIG    1       17.573 -15.918  18.600  0.00  0.00    +0.000 A 
ATOM      3  C   LIG    1       18.361 -14.876  18.110  0.00  0.00    +0.000 A 
ATOM      4  C   LIG    1       19.703 -15.100  17.803  0.00  0.00    +0.000 A 
ATOM      5  C   LIG    1       20.258 -16.367  17.985  0.00  0.00    +0.000 A 
ATOM      6  C   LIG    1       19.470 -17.409  18.475  0.00  0.00    +0.000 A 
ENDROOT
TORSDOF 0
ENDMDL
MODEL 9
REMARK VINA RESULT:      -4.0      1.814      3.253
REMARK  Name = 
REMARK                            x       y       z     vdW  Elec       q    Type
REMARK                         _______ _______ _______ _____ _____    ______ ____
ROOT
ATOM      1  C   LIG    1       17.616 -16.094  18.636  0.00  0.00    +0.000 A 
ATOM      2  C   LIG    1       18.383 -17.256  18.717  0.00  0.00    +0.000 A 
ATOM      3  C   LIG    1       19.722 -17.236  18.329  0.00  0.00    +0.000 A 
ATOM      4  C   LIG    1       20.296 -16.055  17.859  0.00  0.00    +0.000 A 
ATOM      5  C   LIG    1       19.529 -14.892  17.778  0.00  0.00    +0.000 A 
ATOM      6  C   LIG    1       18.189 -14.912  18.166  0.00  0.00    +0.000 A 
ENDROOT
TORSDOF 0
ENDMDL
