MODEL 1
REMARK VINA RESULT:      -4.4      0.000      0.000
REMARK  Name = 
REMARK                            x       y       z     vdW  Elec       q    Type
REMARK                         _______ _______ _______ _____ _____    ______ ____
ROOT
ATOM      1  C   LIG    1       14.364   0.147  -8.610  0.00  0.00    +0.000 A 
ATOM      2  C   LIG    1       15.597   0.780  -8.456  0.00  0.00    +0.000 A 
ATOM      3  C   LIG    1       16.417   0.988  -9.565  0.00  0.00    +0.000 A 
ATOM      4  C   LIG    1       16.005   0.561 -10.827  0.00  0.00    +0.000 A 
ATOM      5  C   LIG    1       14.772  -0.073 -10.981  0.00  0.00    +0.000 A 
ATOM      6  C   LIG    1       13.952  -0.281  -9.872  0.00  0.00    +0.000 A 
ENDROOT
TORSDOF 0
ENDMDL
MODEL 2
REMARK VINA RESULT:      -4.4      0.199      1.973
REMARK  Name = 
REMARK                            x       y       z     vdW  Elec       q    Type
REMARK                         _______ _______ _______ _____ _____    ______ ____
ROOT
ATOM      1  C   LIG    1       14.216   0.037  -8.683  0.00  0.00    +0.000 A 
ATOM      2  C   LIG    1       13.936  -0.270 -10.015  0.00  0.00    +0.000 A 
ATOM      3  C   LIG    1       14.876   0.008 -11.007  0.00  0.00    +0.000 A 
ATOM      4  C   LIG    1       16.096   0.595 -10.668  0.00  0.00    +0.000 A 
ATOM      5  C   LIG    1       16.375   0.903  -9.337  0.00  0.00    +0.000 A 
ATOM      6  C   LIG    1       15.435   0.625  -8.344  0.00  0.00    +0.000 A 
ENDROOT
TORSDOF 0
ENDMDL
MODEL 3
REMARK VINA RESULT:      -4.4      0.274      1.977
REMARK  Name = 
REMARK                            x       y       z     vdW  Elec       q    Type
REMARK                         _______ _______ _______ _____ _____    ______ ____
ROOT
ATOM      1  C   LIG    1       16.528   1.028  -9.873  0.00  0.00    +0.000 A 
ATOM      2  C   LIG    1       15.902   0.856  -8.638  0.00  0.00    +0.000 A 
ATOM      3  C   LIG    1       14.686   0.177  -8.562  0.00  0.00    +0.000 A 
ATOM      4  C   LIG    1       14.094  -0.328  -9.719  0.00  0.00    +0.000 A 
ATOM      5  C   LIG    1       14.719  -0.155 -10.954  0.00  0.00    +0.000 A 
ATOM      6  C   LIG    1       15.936   0.523 -11.031  0.00  0.00    +0.000 A 
ENDROOT
TORSDOF 0
ENDMDL
MODEL 4
REMARK VINA RESULT:      -4.4      0.208      1.542
REMARK  Name = 
REMARK                            x       y       z     vdW  Elec       q    Type
REMARK                         _______ _______ _______ _____ _____    ______ ____
ROOT
ATOM      1  C   LIG    1       15.777   0.894  -8.623  0.00  0.00    +0.000 A 
ATOM      2  C   LIG    1       16.467   1.048  -9.826  0.00  0.00    +0.000 A 
ATOM      3  C   LIG    1       15.941   0.515 -11.003  0.00  0.00    +0.000 A 
ATOM      4  C   LIG    1       14.728  -0.172 -10.978  0.00  0.00    +0.000 A 
ATOM      5  C   LIG    1       14.039  -0.326  -9.775  0.00  0.00    +0.000 A 
ATOM      6  C   LIG    1       14.564   0.206  -8.597  0.00  0.00    +0.000 A 
ENDROOT
TORSDOF 0
ENDMDL
MODEL 5
REMARK VINA RESULT:      -4.4      1.114      2.223
REMARK  Name = 
REMARK                            x       y       z     vdW  Elec       q    Type
REMARK                         _______ _______ _______ _____ _____    ______ ____
ROOT
ATOM      1  C   LIG    1       15.815   0.509  -7.379  0.00  0.00    +0.000 A 
ATOM      2  C   LIG    1       14.440   0.613  -7.594  0.00  0.00    +0.000 A 
ATOM      3  C   LIG    1       13.899   0.254  -8.828  0.00  0.00    +0.000 A 
ATOM      4  C   LIG    1       14.731  -0.207  -9.848  0.00  0.00    +0.000 A 
ATOM      5  C   LIG    1       16.105  -0.310  -9.634  0.00  0.00    +0.000 A 
ATOM      6  C   LIG    1       16.648   0.049  -8.399  0.00  0.00    +0.000 A 
ENDROOT
TORSDOF 0
ENDMDL
MODEL 6
REMARK VINA RESULT:      -4.3      1.148      2.956
REMARK  Name = 
REMARK                            x       y       z     vdW  Elec       q    Type
REMARK                         _______ _______ _______ _____ _____    ______ ____
ROOT
ATOM      1  C   LIG    1       16.229  -0.338  -9.577  0.00  0.00    +0.000 A 
ATOM      2  C   LIG    1       14.865  -0.251  -9.853  0.00  0.00    +0.000 A 
ATOM      3  C   LIG    1       13.987   0.231  -8.883  0.00  0.00    +0.000 A 
ATOM      4  C   LIG    1       14.472   0.626  -7.636  0.00  0.00    +0.000 A 
ATOM      5  C   LIG    1       15.837   0.538  -7.360  0.00  0.00    +0.000 A 
ATOM      6  C   LIG    1       16.715   0.055  -8.330  0.00  0.00    +0.000 A 
ENDROOT
TORSDOF 0
ENDMDL
MODEL 7
REMARK VINA RESULT:      -4.3      1.132      2.318
REMARK  Name = 
REMARK                            x       y       z     vdW  Elec       q    Type
REMARK                         _______ _______ _______ _____ _____    ______ ____
ROOT
ATOM      1  C   LIG    1       14.830  -0.229  -9.866  0.00  0.00    +0.000 A 
ATOM      2  C   LIG    1       16.192  -0.303  -9.577  0.00  0.00    +0.000 A 
ATOM      3  C   LIG    1       16.660   0.083  -8.321  0.00  0.00    +0.000 A 
ATOM      4  C   LIG    1       15.766   0.544  -7.354  0.00  0.00    +0.000 A 
ATOM      5  C   LIG    1       14.404   0.619  -7.643  0.00  0.00    +0.000 A 
ATOM      6  C   LIG    1       13.935   0.233  -8.900  0.00  0.00    +0.000 A 
ENDROOT
TORSDOF 0
ENDMDL
MODEL 8
REMARK VINA RESULT:      -4.1      2.130      3.211
REMARK  Name = 
REMARK                            x       y       z     vdW  Elec       q    Type
REMARK                         _______ _______ _______ _____ _____    ______ ____
ROOT
ATOM      1  C   LIG    1       15.755   0.398  -5.765  0.00  0.00    +0.000 A 
ATOM      2  C   LIG    1       14.967   1.186  -6.604  0.00  0.00    +0.000 A 
ATOM      3  C   LIG    1       15.273   1.282  -7.961  0.00  0.00    +0.000 A 
ATOM      4  C   LIG    1       16.369   0.592  -8.480  0.00  0.00    +0.000 A 
ATOM      5  C   LIG    1       17.158  -0.195  -7.641  0.00  0.00    +0.000 A 
ATOM      6  C   LIG    1       16.852  -0.292  -6.283  0.00  0.00    +0.000 A 
ENDROOT
TORSDOF 0
ENDMDL
MODEL 9
REMARK VINA RESULT:      -4.1     11.118     11.403
REMARK  Name = 
REMARK                            x       y       z     vdW  Elec       q    Type
REMARK                         _______ _______ _______ _____ _____    ______ ____
ROOT
ATOM      1  C   LIG    1       11.063  10.541 -14.263  0.00  0.00    +0.000 A 
ATOM      2  C   LIG    1       11.679   9.411 -13.726  0.00  0.00    +0.000 A 
ATOM      3  C   LIG    1       11.084   8.732 -12.662  0.00  0.00    +0.000 A 
ATOM      4  C   LIG    1        9.875   9.185 -12.134  0.00  0.00    +0.000 A 
ATOM      5  C   LIG    1        9.260  10.316 -12.670  0.00  0.00    +0.000 A 
ATOM      6  C   LIG    1        9.854  10.994 -13.735  0.00  0.00    +0.000 A 
ENDROOT
TORSDOF 0
ENDMDL
