MODEL 1
REMARK VINA RESULT:      -4.7      0.000      0.000
REMARK  Name = 
REMARK                            x       y       z     vdW  Elec       q    Type
REMARK                         _______ _______ _______ _____ _____    ______ ____
ROOT
ATOM      1  C   LIG    1        4.768  23.090  11.329  0.00  0.00    +0.000 A 
ATOM      2  C   LIG    1        3.755  22.203  10.965  0.00  0.00    +0.000 A 
ATOM      3  C   LIG    1        3.261  21.290  11.896  0.00  0.00    +0.000 A 
ATOM      4  C   LIG    1        3.779  21.263  13.191  0.00  0.00    +0.000 A 
ATOM      5  C   LIG    1        4.792  22.150  13.555  0.00  0.00    +0.000 A 
ATOM      6  C   LIG    1        5.287  23.064  12.624  0.00  0.00    +0.000 A 
ENDROOT
TORSDOF 0
ENDMDL
MODEL 2
REMARK VINA RESULT:      -4.7      0.020      1.973
REMARK  Name = 
REMARK                            x       y       z     vdW  Elec       q    Type
REMARK                         _______ _______ _______ _____ _____    ______ ____
ROOT
ATOM      1  C   LIG    1        3.787  21.251  13.183  0.00  0.00    +0.000 A 
ATOM      2  C   LIG    1        3.266  21.291  11.890  0.00  0.00    +0.000 A 
ATOM      3  C   LIG    1        3.751  22.223  10.972  0.00  0.00    +0.000 A 
ATOM      4  C   LIG    1        4.756  23.114  11.347  0.00  0.00    +0.000 A 
ATOM      5  C   LIG    1        5.276  23.075  12.640  0.00  0.00    +0.000 A 
ATOM      6  C   LIG    1        4.791  22.143  13.559  0.00  0.00    +0.000 A 
ENDROOT
TORSDOF 0
ENDMDL
MODEL 3
REMARK VINA RESULT:      -4.7      0.020      2.412
REMARK  Name = 
REMARK                            x       y       z     vdW  Elec       q    Type
REMARK                         _______ _______ _______ _____ _____    ______ ____
ROOT
ATOM      1  C   LIG    1        3.265  21.291  11.890  0.00  0.00    +0.000 A 
ATOM      2  C   LIG    1        3.786  21.250  13.183  0.00  0.00    +0.000 A 
ATOM      3  C   LIG    1        4.790  22.142  13.559  0.00  0.00    +0.000 A 
ATOM      4  C   LIG    1        5.275  23.074  12.641  0.00  0.00    +0.000 A 
ATOM      5  C   LIG    1        4.755  23.114  11.347  0.00  0.00    +0.000 A 
ATOM      6  C   LIG    1        3.750  22.222  10.971  0.00  0.00    +0.000 A 
ENDROOT
TORSDOF 0
ENDMDL
MODEL 4
REMARK VINA RESULT:      -4.2      2.607      3.806
REMARK  Name = 
REMARK                            x       y       z     vdW  Elec       q    Type
REMARK                         _______ _______ _______ _____ _____    ______ ____
ROOT
ATOM      1  C   LIG    1        4.125  21.189   9.847  0.00  0.00    +0.000 A 
ATOM      2  C   LIG    1        3.927  20.633   8.583  0.00  0.00    +0.000 A 
ATOM      3  C   LIG    1        2.634  20.465   8.090  0.00  0.00    +0.000 A 
ATOM      4  C   LIG    1        1.537  20.851   8.861  0.00  0.00    +0.000 A 
ATOM      5  C   LIG    1        1.734  21.405  10.125  0.00  0.00    +0.000 A 
ATOM      6  C   LIG    1        3.028  21.574  10.619  0.00  0.00    +0.000 A 
ENDROOT
TORSDOF 0
ENDMDL
MODEL 5
REMARK VINA RESULT:      -4.2      2.622      4.064
REMARK  Name = 
REMARK                            x       y       z     vdW  Elec       q    Type
REMARK                         _______ _______ _______ _____ _____    ______ ____
ROOT
ATOM      1  C   LIG    1        4.140  21.217   9.761  0.00  0.00    +0.000 A 
ATOM      2  C   LIG    1        3.071  21.597  10.573  0.00  0.00    +0.000 A 
ATOM      3  C   LIG    1        1.761  21.416  10.132  0.00  0.00    +0.000 A 
ATOM      4  C   LIG    1        1.518  20.856   8.877  0.00  0.00    +0.000 A 
ATOM      5  C   LIG    1        2.586  20.477   8.065  0.00  0.00    +0.000 A 
ATOM      6  C   LIG    1        3.898  20.658   8.506  0.00  0.00    +0.000 A 
ENDROOT
TORSDOF 0
ENDMDL
MODEL 6
REMARK VINA RESULT:      -4.2      2.618      3.853
REMARK  Name = 
REMARK                            x       y       z     vdW  Elec       q    Type
REMARK                         _______ _______ _______ _____ _____    ______ ____
ROOT
ATOM      1  C   LIG    1        1.748  21.402  10.137  0.00  0.00    +0.000 A 
ATOM      2  C   LIG    1        1.521  20.849   8.877  0.00  0.00    +0.000 A 
ATOM      3  C   LIG    1        2.599  20.466   8.079  0.00  0.00    +0.000 A 
ATOM      4  C   LIG    1        3.904  20.637   8.540  0.00  0.00    +0.000 A 
ATOM      5  C   LIG    1        4.132  21.190   9.800  0.00  0.00    +0.000 A 
ATOM      6  C   LIG    1        3.053  21.574  10.599  0.00  0.00    +0.000 A 
ENDROOT
TORSDOF 0
ENDMDL
MODEL 7
REMARK VINA RESULT:      -4.2      1.583      3.081
REMARK  Name = 
REMARK                            x       y       z     vdW  Elec       q    Type
REMARK                         _______ _______ _______ _____ _____    ______ ____
ROOT
ATOM      1  C   LIG    1        5.142  21.002  11.161  0.00  0.00    +0.000 A 
ATOM      2  C   LIG    1        5.144  22.222  11.837  0.00  0.00    +0.000 A 
ATOM      3  C   LIG    1        4.450  23.311  11.313  0.00  0.00    +0.000 A 
ATOM      4  C   LIG    1        3.753  23.182  10.111  0.00  0.00    +0.000 A 
ATOM      5  C   LIG    1        3.751  21.962   9.434  0.00  0.00    +0.000 A 
ATOM      6  C   LIG    1        4.446  20.872   9.959  0.00  0.00    +0.000 A 
ENDROOT
TORSDOF 0
ENDMDL
MODEL 8
REMARK VINA RESULT:      -4.2      2.584      3.699
REMARK  Name = 
REMARK                            x       y       z     vdW  Elec       q    Type
REMARK                         _______ _______ _______ _____ _____    ______ ____
ROOT
ATOM      1  C   LIG    1        2.933  20.378   8.102  0.00  0.00    +0.000 A 
ATOM      2  C   LIG    1        1.738  20.802   8.683  0.00  0.00    +0.000 A 
ATOM      3  C   LIG    1        1.750  21.408   9.939  0.00  0.00    +0.000 A 
ATOM      4  C   LIG    1        2.957  21.591  10.614  0.00  0.00    +0.000 A 
ATOM      5  C   LIG    1        4.152  21.167  10.033  0.00  0.00    +0.000 A 
ATOM      6  C   LIG    1        4.141  20.560   8.777  0.00  0.00    +0.000 A 
ENDROOT
TORSDOF 0
ENDMDL
MODEL 9
REMARK VINA RESULT:      -4.2      8.870      9.976
REMARK  Name = 
REMARK                            x       y       z     vdW  Elec       q    Type
REMARK                         _______ _______ _______ _____ _____    ______ ____
ROOT
ATOM      1  C   LIG    1        4.461  28.659   5.479  0.00  0.00    +0.000 A 
ATOM      2  C   LIG    1        3.896  27.406   5.243  0.00  0.00    +0.000 A 
ATOM      3  C   LIG    1        2.639  27.310   4.646  0.00  0.00    +0.000 A 
ATOM      4  C   LIG    1        1.945  28.466   4.287  0.00  0.00    +0.000 A 
ATOM      5  C   LIG    1        2.510  29.719   4.525  0.00  0.00    +0.000 A 
ATOM      6  C   LIG    1        3.768  29.816   5.122  0.00  0.00    +0.000 A 
ENDROOT
TORSDOF 0
ENDMDL
