MODEL 1
REMARK VINA RESULT:      -4.2      0.000      0.000
REMARK  Name = 
REMARK                            x       y       z     vdW  Elec       q    Type
REMARK                         _______ _______ _______ _____ _____    ______ ____
ROOT
ATOM      1  C   LIG    1      -45.579  17.114 -31.467  0.00  0.00    +0.000 A 
ATOM      2  C   LIG    1      -46.008  16.986 -32.788  0.00  0.00    +0.000 A 
ATOM      3  C   LIG    1      -45.849  15.774 -33.459  0.00  0.00    +0.000 A 
ATOM      4  C   LIG    1      -45.260  14.689 -32.809  0.00  0.00    +0.000 A 
ATOM      5  C   LIG    1      -44.830  14.816 -31.489  0.00  0.00    +0.000 A 
ATOM      6  C   LIG    1      -44.988  16.029 -30.817  0.00  0.00    +0.000 A 
ENDROOT
TORSDOF 0
ENDMDL
MODEL 2
REMARK VINA RESULT:      -4.2      0.021      1.973
REMARK  Name = 
REMARK                            x       y       z     vdW  Elec       q    Type
REMARK                         _______ _______ _______ _____ _____    ______ ____
ROOT
ATOM      1  C   LIG    1      -44.836  14.829 -31.494  0.00  0.00    +0.000 A 
ATOM      2  C   LIG    1      -45.261  14.711 -32.817  0.00  0.00    +0.000 A 
ATOM      3  C   LIG    1      -45.852  15.798 -33.460  0.00  0.00    +0.000 A 
ATOM      4  C   LIG    1      -46.020  17.004 -32.780  0.00  0.00    +0.000 A 
ATOM      5  C   LIG    1      -45.596  17.123 -31.456  0.00  0.00    +0.000 A 
ATOM      6  C   LIG    1      -45.004  16.035 -30.813  0.00  0.00    +0.000 A 
ENDROOT
TORSDOF 0
ENDMDL
MODEL 3
REMARK VINA RESULT:      -4.2     10.281     10.859
REMARK  Name = 
REMARK                            x       y       z     vdW  Elec       q    Type
REMARK                         _______ _______ _______ _____ _____    ______ ____
ROOT
ATOM      1  C   LIG    1      -49.594  10.792 -40.163  0.00  0.00    +0.000 A 
ATOM      2  C   LIG    1      -50.419  11.913 -40.066  0.00  0.00    +0.000 A 
ATOM      3  C   LIG    1      -50.317  12.936 -41.008  0.00  0.00    +0.000 A 
ATOM      4  C   LIG    1      -49.391  12.841 -42.046  0.00  0.00    +0.000 A 
ATOM      5  C   LIG    1      -48.566  11.720 -42.143  0.00  0.00    +0.000 A 
ATOM      6  C   LIG    1      -48.667  10.696 -41.201  0.00  0.00    +0.000 A 
ENDROOT
TORSDOF 0
ENDMDL
MODEL 4
REMARK VINA RESULT:      -4.2      0.035      2.428
REMARK  Name = 
REMARK                            x       y       z     vdW  Elec       q    Type
REMARK                         _______ _______ _______ _____ _____    ______ ____
ROOT
ATOM      1  C   LIG    1      -44.819  14.830 -31.518  0.00  0.00    +0.000 A 
ATOM      2  C   LIG    1      -44.988  16.026 -30.821  0.00  0.00    +0.000 A 
ATOM      3  C   LIG    1      -45.590  17.118 -31.447  0.00  0.00    +0.000 A 
ATOM      4  C   LIG    1      -46.022  17.014 -32.769  0.00  0.00    +0.000 A 
ATOM      5  C   LIG    1      -45.852  15.818 -33.466  0.00  0.00    +0.000 A 
ATOM      6  C   LIG    1      -45.250  14.725 -32.841  0.00  0.00    +0.000 A 
ENDROOT
TORSDOF 0
ENDMDL
MODEL 5
REMARK VINA RESULT:      -4.2     10.277     10.872
REMARK  Name = 
REMARK                            x       y       z     vdW  Elec       q    Type
REMARK                         _______ _______ _______ _____ _____    ______ ____
ROOT
ATOM      1  C   LIG    1      -50.389  11.843 -40.044  0.00  0.00    +0.000 A 
ATOM      2  C   LIG    1      -49.544  10.741 -40.180  0.00  0.00    +0.000 A 
ATOM      3  C   LIG    1      -48.636  10.684 -41.236  0.00  0.00    +0.000 A 
ATOM      4  C   LIG    1      -48.572  11.729 -42.159  0.00  0.00    +0.000 A 
ATOM      5  C   LIG    1      -49.416  12.831 -42.024  0.00  0.00    +0.000 A 
ATOM      6  C   LIG    1      -50.326  12.888 -40.967  0.00  0.00    +0.000 A 
ENDROOT
TORSDOF 0
ENDMDL
MODEL 6
REMARK VINA RESULT:      -4.2      0.051      1.973
REMARK  Name = 
REMARK                            x       y       z     vdW  Elec       q    Type
REMARK                         _______ _______ _______ _____ _____    ______ ____
ROOT
ATOM      1  C   LIG    1      -46.011  17.032 -32.736  0.00  0.00    +0.000 A 
ATOM      2  C   LIG    1      -45.578  17.120 -31.413  0.00  0.00    +0.000 A 
ATOM      3  C   LIG    1      -44.991  16.015 -30.798  0.00  0.00    +0.000 A 
ATOM      4  C   LIG    1      -44.838  14.821 -31.504  0.00  0.00    +0.000 A 
ATOM      5  C   LIG    1      -45.273  14.733 -32.826  0.00  0.00    +0.000 A 
ATOM      6  C   LIG    1      -45.860  15.839 -33.443  0.00  0.00    +0.000 A 
ENDROOT
TORSDOF 0
ENDMDL
MODEL 7
REMARK VINA RESULT:      -4.1     10.267     10.833
REMARK  Name = 
REMARK                            x       y       z     vdW  Elec       q    Type
REMARK                         _______ _______ _______ _____ _____    ______ ____
ROOT
ATOM      1  C   LIG    1      -48.782  10.436 -40.793  0.00  0.00    +0.000 A 
ATOM      2  C   LIG    1      -48.427  11.236 -41.879  0.00  0.00    +0.000 A 
ATOM      3  C   LIG    1      -49.083  12.447 -42.097  0.00  0.00    +0.000 A 
ATOM      4  C   LIG    1      -50.095  12.858 -41.229  0.00  0.00    +0.000 A 
ATOM      5  C   LIG    1      -50.451  12.058 -40.144  0.00  0.00    +0.000 A 
ATOM      6  C   LIG    1      -49.794  10.846 -39.925  0.00  0.00    +0.000 A 
ENDROOT
TORSDOF 0
ENDMDL
MODEL 8
REMARK VINA RESULT:      -4.1     10.223     10.672
REMARK  Name = 
REMARK                            x       y       z     vdW  Elec       q    Type
REMARK                         _______ _______ _______ _____ _____    ______ ____
ROOT
ATOM      1  C   LIG    1      -50.369  12.273 -40.326  0.00  0.00    +0.000 A 
ATOM      2  C   LIG    1      -49.790  12.753 -41.501  0.00  0.00    +0.000 A 
ATOM      3  C   LIG    1      -48.812  12.003 -42.153  0.00  0.00    +0.000 A 
ATOM      4  C   LIG    1      -48.412  10.773 -41.632  0.00  0.00    +0.000 A 
ATOM      5  C   LIG    1      -48.990  10.293 -40.457  0.00  0.00    +0.000 A 
ATOM      6  C   LIG    1      -49.969  11.043 -39.803  0.00  0.00    +0.000 A 
ENDROOT
TORSDOF 0
ENDMDL
MODEL 9
REMARK VINA RESULT:      -3.9      9.638     10.704
REMARK  Name = 
REMARK                            x       y       z     vdW  Elec       q    Type
REMARK                         _______ _______ _______ _____ _____    ______ ____
ROOT
ATOM      1  C   LIG    1      -49.024  10.551 -39.403  0.00  0.00    +0.000 A 
ATOM      2  C   LIG    1      -48.168   9.637 -38.788  0.00  0.00    +0.000 A 
ATOM      3  C   LIG    1      -47.343   8.824 -39.564  0.00  0.00    +0.000 A 
ATOM      4  C   LIG    1      -47.373   8.924 -40.955  0.00  0.00    +0.000 A 
ATOM      5  C   LIG    1      -48.230   9.837 -41.570  0.00  0.00    +0.000 A 
ATOM      6  C   LIG    1      -49.056  10.651 -40.794  0.00  0.00    +0.000 A 
ENDROOT
TORSDOF 0
ENDMDL
