MODEL 1
REMARK VINA RESULT:      -4.4      0.000      0.000
REMARK  Name = 
REMARK                            x       y       z     vdW  Elec       q    Type
REMARK                         _______ _______ _______ _____ _____    ______ ____
ROOT
ATOM      1  C   LIG    1       23.945 -24.110 -11.779  0.00  0.00    +0.000 A 
ATOM      2  C   LIG    1       24.482 -25.086 -10.939  0.00  0.00    +0.000 A 
ATOM      3  C   LIG    1       25.837 -25.404 -11.018  0.00  0.00    +0.000 A 
ATOM      4  C   LIG    1       26.656 -24.748 -11.937  0.00  0.00    +0.000 A 
ATOM      5  C   LIG    1       26.119 -23.773 -12.778  0.00  0.00    +0.000 A 
ATOM      6  C   LIG    1       24.763 -23.454 -12.699  0.00  0.00    +0.000 A 
ENDROOT
TORSDOF 0
ENDMDL
MODEL 2
REMARK VINA RESULT:      -4.4      0.076      1.974
REMARK  Name = 
REMARK                            x       y       z     vdW  Elec       q    Type
REMARK                         _______ _______ _______ _____ _____    ______ ____
ROOT
ATOM      1  C   LIG    1       24.433 -25.090 -10.880  0.00  0.00    +0.000 A 
ATOM      2  C   LIG    1       23.913 -24.104 -11.718  0.00  0.00    +0.000 A 
ATOM      3  C   LIG    1       24.742 -23.465 -12.640  0.00  0.00    +0.000 A 
ATOM      4  C   LIG    1       26.091 -23.811 -12.723  0.00  0.00    +0.000 A 
ATOM      5  C   LIG    1       26.611 -24.796 -11.883  0.00  0.00    +0.000 A 
ATOM      6  C   LIG    1       25.782 -25.436 -10.961  0.00  0.00    +0.000 A 
ENDROOT
TORSDOF 0
ENDMDL
MODEL 3
REMARK VINA RESULT:      -4.4      0.108      1.976
REMARK  Name = 
REMARK                            x       y       z     vdW  Elec       q    Type
REMARK                         _______ _______ _______ _____ _____    ______ ____
ROOT
ATOM      1  C   LIG    1       26.599 -24.792 -11.895  0.00  0.00    +0.000 A 
ATOM      2  C   LIG    1       25.796 -25.473 -10.980  0.00  0.00    +0.000 A 
ATOM      3  C   LIG    1       24.442 -25.157 -10.872  0.00  0.00    +0.000 A 
ATOM      4  C   LIG    1       23.891 -24.160 -11.677  0.00  0.00    +0.000 A 
ATOM      5  C   LIG    1       24.694 -23.479 -12.591  0.00  0.00    +0.000 A 
ATOM      6  C   LIG    1       26.049 -23.794 -12.701  0.00  0.00    +0.000 A 
ENDROOT
TORSDOF 0
ENDMDL
MODEL 4
REMARK VINA RESULT:      -4.4      0.171      1.366
REMARK  Name = 
REMARK                            x       y       z     vdW  Elec       q    Type
REMARK                         _______ _______ _______ _____ _____    ______ ____
ROOT
ATOM      1  C   LIG    1       24.350 -25.151 -10.870  0.00  0.00    +0.000 A 
ATOM      2  C   LIG    1       25.704 -25.486 -10.902  0.00  0.00    +0.000 A 
ATOM      3  C   LIG    1       26.568 -24.812 -11.765  0.00  0.00    +0.000 A 
ATOM      4  C   LIG    1       26.079 -23.803 -12.595  0.00  0.00    +0.000 A 
ATOM      5  C   LIG    1       24.725 -23.469 -12.563  0.00  0.00    +0.000 A 
ATOM      6  C   LIG    1       23.860 -24.143 -11.701  0.00  0.00    +0.000 A 
ENDROOT
TORSDOF 0
ENDMDL
MODEL 5
REMARK VINA RESULT:      -4.4      0.057      1.973
REMARK  Name = 
REMARK                            x       y       z     vdW  Elec       q    Type
REMARK                         _______ _______ _______ _____ _____    ______ ____
ROOT
ATOM      1  C   LIG    1       23.946 -24.080 -11.818  0.00  0.00    +0.000 A 
ATOM      2  C   LIG    1       24.804 -23.449 -12.718  0.00  0.00    +0.000 A 
ATOM      3  C   LIG    1       26.149 -23.813 -12.773  0.00  0.00    +0.000 A 
ATOM      4  C   LIG    1       26.637 -24.809 -11.926  0.00  0.00    +0.000 A 
ATOM      5  C   LIG    1       25.779 -25.440 -11.025  0.00  0.00    +0.000 A 
ATOM      6  C   LIG    1       24.433 -25.076 -10.971  0.00  0.00    +0.000 A 
ENDROOT
TORSDOF 0
ENDMDL
MODEL 6
REMARK VINA RESULT:      -4.0      4.773      5.318
REMARK  Name = 
REMARK                            x       y       z     vdW  Elec       q    Type
REMARK                         _______ _______ _______ _____ _____    ______ ____
ROOT
ATOM      1  C   LIG    1       22.119 -29.290 -12.225  0.00  0.00    +0.000 A 
ATOM      2  C   LIG    1       22.708 -30.185 -11.331  0.00  0.00    +0.000 A 
ATOM      3  C   LIG    1       24.096 -30.317 -11.290  0.00  0.00    +0.000 A 
ATOM      4  C   LIG    1       24.895 -29.555 -12.142  0.00  0.00    +0.000 A 
ATOM      5  C   LIG    1       24.307 -28.661 -13.036  0.00  0.00    +0.000 A 
ATOM      6  C   LIG    1       22.918 -28.528 -13.078  0.00  0.00    +0.000 A 
ENDROOT
TORSDOF 0
ENDMDL
MODEL 7
REMARK VINA RESULT:      -4.0      4.778      5.672
REMARK  Name = 
REMARK                            x       y       z     vdW  Elec       q    Type
REMARK                         _______ _______ _______ _____ _____    ______ ____
ROOT
ATOM      1  C   LIG    1       24.892 -29.558 -12.134  0.00  0.00    +0.000 A 
ATOM      2  C   LIG    1       24.088 -30.316 -11.282  0.00  0.00    +0.000 A 
ATOM      3  C   LIG    1       22.701 -30.185 -11.333  0.00  0.00    +0.000 A 
ATOM      4  C   LIG    1       22.116 -29.295 -12.234  0.00  0.00    +0.000 A 
ATOM      5  C   LIG    1       22.920 -28.536 -13.085  0.00  0.00    +0.000 A 
ATOM      6  C   LIG    1       24.308 -28.667 -13.035  0.00  0.00    +0.000 A 
ENDROOT
TORSDOF 0
ENDMDL
MODEL 8
REMARK VINA RESULT:      -4.0      4.774      5.673
REMARK  Name = 
REMARK                            x       y       z     vdW  Elec       q    Type
REMARK                         _______ _______ _______ _____ _____    ______ ____
ROOT
ATOM      1  C   LIG    1       22.121 -29.298 -12.240  0.00  0.00    +0.000 A 
ATOM      2  C   LIG    1       22.925 -28.534 -13.086  0.00  0.00    +0.000 A 
ATOM      3  C   LIG    1       24.313 -28.660 -13.031  0.00  0.00    +0.000 A 
ATOM      4  C   LIG    1       24.898 -29.550 -12.129  0.00  0.00    +0.000 A 
ATOM      5  C   LIG    1       24.094 -30.313 -11.282  0.00  0.00    +0.000 A 
ATOM      6  C   LIG    1       22.705 -30.187 -11.337  0.00  0.00    +0.000 A 
ENDROOT
TORSDOF 0
ENDMDL
MODEL 9
REMARK VINA RESULT:      -4.0      4.781      5.841
REMARK  Name = 
REMARK                            x       y       z     vdW  Elec       q    Type
REMARK                         _______ _______ _______ _____ _____    ______ ____
ROOT
ATOM      1  C   LIG    1       24.333 -28.675 -13.020  0.00  0.00    +0.000 A 
ATOM      2  C   LIG    1       22.946 -28.544 -13.097  0.00  0.00    +0.000 A 
ATOM      3  C   LIG    1       22.126 -29.300 -12.260  0.00  0.00    +0.000 A 
ATOM      4  C   LIG    1       22.692 -30.189 -11.346  0.00  0.00    +0.000 A 
ATOM      5  C   LIG    1       24.079 -30.321 -11.269  0.00  0.00    +0.000 A 
ATOM      6  C   LIG    1       24.899 -29.565 -12.107  0.00  0.00    +0.000 A 
ENDROOT
TORSDOF 0
ENDMDL
