REMARK  Name = 
REMARK                            x       y       z     vdW  Elec       q    Type
REMARK                         _______ _______ _______ _____ _____    ______ ____
ROOT
ATOM      1  C   LIG    1       -0.760   1.169  -0.001  0.00  0.00    +0.000 A 
ATOM      2  C   LIG    1       -1.391  -0.075  -0.001  0.00  0.00    +0.000 A 
ATOM      3  C   LIG    1       -0.629  -1.243   0.001  0.00  0.00    +0.000 A 
ATOM      4  C   LIG    1        0.764  -1.168   0.002  0.00  0.00    +0.000 A 
ATOM      5  C   LIG    1        1.395   0.076   0.001  0.00  0.00    +0.000 A 
ATOM      6  C   LIG    1        0.633   1.245  -0.001  0.00  0.00    +0.000 A 
ENDROOT
TORSDOF 0
