MODEL 1
REMARK VINA RESULT:      -7.4      0.000      0.000
REMARK  Name = 
REMARK                            x       y       z     vdW  Elec       q    Type
REMARK                         _______ _______ _______ _____ _____    ______ ____
ROOT
ATOM      1  C   LIG    1       -9.546  -1.731  12.076  0.00  0.00    +0.352 C 
ENDROOT
BRANCH   1   4
ATOM      2  O   LIG    1       -7.718  -1.775   9.824  0.00  0.00    -0.270 OA
ATOM      3  C   LIG    1       -8.428  -2.717  10.124  0.00  0.00    +0.252 C 
ATOM      4  N   LIG    1       -9.320  -2.814  11.144  0.00  0.00    -0.200 N 
ATOM      5  C   LIG    1       -9.922  -4.032  11.136  0.00  0.00    +0.252 C 
ATOM      6  O   LIG    1      -10.769  -4.506  11.871  0.00  0.00    -0.270 OA
ATOM      7  C   LIG    1       -9.353  -4.772  10.006  0.00  0.00    +0.023 C 
ATOM      8  C   LIG    1       -9.716  -6.146   9.621  0.00  0.00    +0.041 C 
ATOM      9  C   LIG    1       -8.906  -6.696   8.441  0.00  0.00    +0.005 C 
ATOM     10  C   LIG    1       -7.962  -5.756   7.666  0.00  0.00    +0.005 C 
ATOM     11  C   LIG    1       -7.653  -4.359   8.229  0.00  0.00    +0.041 C 
ATOM     12  C   LIG    1       -8.461  -3.994   9.405  0.00  0.00    +0.023 C 
ENDBRANCH   1   4
BRANCH   1  13
ATOM     13  O   LIG    1       -9.224  -2.150  13.391  0.00  0.00    -0.444 OA
BRANCH  13  14
ATOM     14  C   LIG    1       -8.045  -2.793  13.521  0.00  0.00    +0.313 C 
ATOM     15  O   LIG    1       -6.969  -2.414  13.079  0.00  0.00    -0.250 OA
BRANCH  14  16
ATOM     16  C   LIG    1       -8.230  -4.013  14.341  0.00  0.00    +0.111 C 
ATOM     17  C   LIG    1       -7.179  -4.667  15.224  0.00  0.00    -0.014 C 
ATOM     18  C   LIG    1       -7.680  -5.334  16.487  0.00  0.00    +0.012 C 
ATOM     19  C   LIG    1       -5.814  -4.051  15.397  0.00  0.00    +0.012 C 
ATOM     20  C   LIG    1       -7.586  -5.322  13.916  0.00  0.00    +0.032 C 
BRANCH  20  21
ATOM     21  C   LIG    1       -6.706  -5.354  12.736  0.00  0.00    -0.023 C 
ATOM     22  C   LIG    1       -6.643  -6.323  11.801  0.00  0.00    -0.079 C 
ATOM     23  C   LIG    1       -5.695  -6.225  10.637  0.00  0.00    +0.038 C 
ATOM     24  C   LIG    1       -7.482  -7.572  11.824  0.00  0.00    +0.038 C 
ENDBRANCH  20  21
ENDBRANCH  14  16
ENDBRANCH  13  14
ENDBRANCH   1  13
TORSDOF 5
ENDMDL
MODEL 2
REMARK VINA RESULT:      -7.3      2.075      4.820
REMARK  Name = 
REMARK                            x       y       z     vdW  Elec       q    Type
REMARK                         _______ _______ _______ _____ _____    ______ ____
ROOT
ATOM      1  C   LIG    1       -8.954  -5.759   8.688  0.00  0.00    +0.352 C 
ENDROOT
BRANCH   1   4
ATOM      2  O   LIG    1      -10.411  -5.903  11.192  0.00  0.00    -0.270 OA
ATOM      3  C   LIG    1       -9.847  -4.895  10.807  0.00  0.00    +0.252 C 
ATOM      4  N   LIG    1       -9.142  -4.705   9.661  0.00  0.00    -0.200 N 
ATOM      5  C   LIG    1       -8.672  -3.431   9.596  0.00  0.00    +0.252 C 
ATOM      6  O   LIG    1       -8.008  -2.871   8.744  0.00  0.00    -0.270 OA
ATOM      7  C   LIG    1       -9.122  -2.758  10.819  0.00  0.00    +0.023 C 
ATOM      8  C   LIG    1       -8.837  -1.357  11.170  0.00  0.00    +0.041 C 
ATOM      9  C   LIG    1       -9.370  -0.940  12.547  0.00  0.00    +0.005 C 
ATOM     10  C   LIG    1      -10.280  -1.906  13.330  0.00  0.00    +0.005 C 
ATOM     11  C   LIG    1      -10.439  -3.357  12.849  0.00  0.00    +0.041 C 
ATOM     12  C   LIG    1       -9.817  -3.628  11.543  0.00  0.00    +0.023 C 
ENDBRANCH   1   4
BRANCH   1  13
ATOM     13  O   LIG    1       -7.962  -6.664   9.141  0.00  0.00    -0.444 OA
BRANCH  13  14
ATOM     14  C   LIG    1       -6.688  -6.242   9.005  0.00  0.00    +0.313 C 
ATOM     15  O   LIG    1       -6.308  -5.328   8.286  0.00  0.00    -0.250 OA
BRANCH  14  16
ATOM     16  C   LIG    1       -5.807  -7.016   9.910  0.00  0.00    +0.111 C 
ATOM     17  C   LIG    1       -6.240  -7.751  11.169  0.00  0.00    -0.014 C 
ATOM     18  C   LIG    1       -5.492  -9.025  11.497  0.00  0.00    +0.012 C 
ATOM     19  C   LIG    1       -7.691  -7.812  11.575  0.00  0.00    +0.012 C 
ATOM     20  C   LIG    1       -5.446  -6.462  11.278  0.00  0.00    +0.032 C 
BRANCH  20  21
ATOM     21  C   LIG    1       -6.044  -5.197  11.735  0.00  0.00    -0.023 C 
ATOM     22  C   LIG    1       -5.815  -4.572  12.909  0.00  0.00    -0.079 C 
ATOM     23  C   LIG    1       -6.495  -3.273  13.247  0.00  0.00    +0.038 C 
ATOM     24  C   LIG    1       -4.889  -5.093  13.973  0.00  0.00    +0.038 C 
ENDBRANCH  20  21
ENDBRANCH  14  16
ENDBRANCH  13  14
ENDBRANCH   1  13
TORSDOF 5
ENDMDL
MODEL 3
REMARK VINA RESULT:      -7.2      2.224      5.865
REMARK  Name = 
REMARK                            x       y       z     vdW  Elec       q    Type
REMARK                         _______ _______ _______ _____ _____    ______ ____
ROOT
ATOM      1  C   LIG    1       -6.017  -6.692  10.510  0.00  0.00    +0.352 C 
ENDROOT
BRANCH   1   4
ATOM      2  O   LIG    1       -3.841  -5.492  12.007  0.00  0.00    -0.270 OA
ATOM      3  C   LIG    1       -4.976  -5.584  12.439  0.00  0.00    +0.252 C 
ATOM      4  N   LIG    1       -6.069  -6.124  11.840  0.00  0.00    -0.200 N 
ATOM      5  C   LIG    1       -7.151  -6.040  12.657  0.00  0.00    +0.252 C 
ATOM      6  O   LIG    1       -8.301  -6.406  12.495  0.00  0.00    -0.270 OA
ATOM      7  C   LIG    1       -6.696  -5.382  13.886  0.00  0.00    +0.023 C 
ATOM      8  C   LIG    1       -7.543  -5.081  15.052  0.00  0.00    +0.041 C 
ATOM      9  C   LIG    1       -6.818  -4.319  16.167  0.00  0.00    +0.005 C 
ATOM     10  C   LIG    1       -5.294  -4.108  16.074  0.00  0.00    +0.005 C 
ATOM     11  C   LIG    1       -4.562  -4.436  14.762  0.00  0.00    +0.041 C 
ATOM     12  C   LIG    1       -5.404  -5.105  13.757  0.00  0.00    +0.023 C 
ENDBRANCH   1   4
BRANCH   1  13
ATOM     13  O   LIG    1       -6.393  -5.717   9.553  0.00  0.00    -0.444 OA
BRANCH  13  14
ATOM     14  C   LIG    1       -7.666  -5.798   9.113  0.00  0.00    +0.313 C 
ATOM     15  O   LIG    1       -8.342  -6.815   9.058  0.00  0.00    -0.250 OA
BRANCH  14  16
ATOM     16  C   LIG    1       -8.157  -4.446   8.757  0.00  0.00    +0.111 C 
ATOM     17  C   LIG    1       -8.116  -3.214   9.647  0.00  0.00    -0.014 C 
ATOM     18  C   LIG    1       -7.910  -1.886   8.952  0.00  0.00    +0.012 C 
ATOM     19  C   LIG    1       -7.471  -3.259  11.010  0.00  0.00    +0.012 C 
ATOM     20  C   LIG    1       -9.437  -3.912   9.378  0.00  0.00    +0.032 C 
BRANCH  20  21
ATOM     21  C   LIG    1      -10.138  -4.706  10.402  0.00  0.00    -0.023 C 
ATOM     22  C   LIG    1      -10.648  -4.254  11.565  0.00  0.00    -0.079 C 
ATOM     23  C   LIG    1      -11.349  -5.178  12.522  0.00  0.00    +0.038 C 
ATOM     24  C   LIG    1      -10.567  -2.822  12.020  0.00  0.00    +0.038 C 
ENDBRANCH  20  21
ENDBRANCH  14  16
ENDBRANCH  13  14
ENDBRANCH   1  13
TORSDOF 5
ENDMDL
MODEL 4
REMARK VINA RESULT:      -6.7      1.436      3.496
REMARK  Name = 
REMARK                            x       y       z     vdW  Elec       q    Type
REMARK                         _______ _______ _______ _____ _____    ______ ____
ROOT
ATOM      1  C   LIG    1       -9.961  -3.072  12.946  0.00  0.00    +0.352 C 
ENDROOT
BRANCH   1   4
ATOM      2  O   LIG    1      -10.466  -5.784  12.050  0.00  0.00    -0.270 OA
ATOM      3  C   LIG    1       -9.805  -4.984  11.413  0.00  0.00    +0.252 C 
ATOM      4  N   LIG    1       -9.498  -3.700  11.727  0.00  0.00    -0.200 N 
ATOM      5  C   LIG    1       -8.730  -3.141  10.755  0.00  0.00    +0.252 C 
ATOM      6  O   LIG    1       -8.251  -2.026  10.662  0.00  0.00    -0.270 OA
ATOM      7  C   LIG    1       -8.538  -4.172   9.731  0.00  0.00    +0.023 C 
ATOM      8  C   LIG    1       -7.768  -4.002   8.488  0.00  0.00    +0.041 C 
ATOM      9  C   LIG    1       -7.799  -5.226   7.564  0.00  0.00    +0.005 C 
ATOM     10  C   LIG    1       -8.436  -6.537   8.065  0.00  0.00    +0.005 C 
ATOM     11  C   LIG    1       -9.249  -6.535   9.370  0.00  0.00    +0.041 C 
ATOM     12  C   LIG    1       -9.181  -5.269  10.117  0.00  0.00    +0.023 C 
ENDBRANCH   1   4
BRANCH   1  13
ATOM     13  O   LIG    1       -8.858  -2.769  13.783  0.00  0.00    -0.444 OA
BRANCH  13  14
ATOM     14  C   LIG    1       -8.080  -3.819  14.119  0.00  0.00    +0.313 C 
ATOM     15  O   LIG    1       -8.418  -4.770  14.809  0.00  0.00    -0.250 OA
BRANCH  14  16
ATOM     16  C   LIG    1       -6.755  -3.684  13.471  0.00  0.00    +0.111 C 
ATOM     17  C   LIG    1       -5.950  -4.807  12.835  0.00  0.00    -0.014 C 
ATOM     18  C   LIG    1       -5.111  -4.437  11.631  0.00  0.00    +0.012 C 
ATOM     19  C   LIG    1       -6.503  -6.208  12.746  0.00  0.00    +0.012 C 
ATOM     20  C   LIG    1       -5.511  -4.217  14.163  0.00  0.00    +0.032 C 
BRANCH  20  21
ATOM     21  C   LIG    1       -5.639  -4.945  15.436  0.00  0.00    -0.023 C 
ATOM     22  C   LIG    1       -4.793  -4.892  16.486  0.00  0.00    -0.079 C 
ATOM     23  C   LIG    1       -5.049  -5.689  17.735  0.00  0.00    +0.038 C 
ATOM     24  C   LIG    1       -3.540  -4.061  16.516  0.00  0.00    +0.038 C 
ENDBRANCH  20  21
ENDBRANCH  14  16
ENDBRANCH  13  14
ENDBRANCH   1  13
TORSDOF 5
ENDMDL
MODEL 5
REMARK VINA RESULT:      -6.7      4.481      7.257
REMARK  Name = 
REMARK                            x       y       z     vdW  Elec       q    Type
REMARK                         _______ _______ _______ _____ _____    ______ ____
ROOT
ATOM      1  C   LIG    1      -10.657   0.876  13.874  0.00  0.00    +0.352 C 
ENDROOT
BRANCH   1   4
ATOM      2  O   LIG    1      -11.640   2.380  11.596  0.00  0.00    -0.270 OA
ATOM      3  C   LIG    1      -10.800   2.810  12.366  0.00  0.00    +0.252 C 
ATOM      4  N   LIG    1      -10.262   2.204  13.456  0.00  0.00    -0.200 N 
ATOM      5  C   LIG    1       -9.346   3.015  14.049  0.00  0.00    +0.252 C 
ATOM      6  O   LIG    1       -8.652   2.844  15.033  0.00  0.00    -0.270 OA
ATOM      7  C   LIG    1       -9.307   4.248  13.257  0.00  0.00    +0.023 C 
ATOM      8  C   LIG    1       -8.451   5.412  13.541  0.00  0.00    +0.041 C 
ATOM      9  C   LIG    1       -8.674   6.594  12.589  0.00  0.00    +0.005 C 
ATOM     10  C   LIG    1       -9.585   6.415  11.359  0.00  0.00    +0.005 C 
ATOM     11  C   LIG    1      -10.451   5.152  11.234  0.00  0.00    +0.041 C 
ATOM     12  C   LIG    1      -10.174   4.131  12.258  0.00  0.00    +0.023 C 
ENDBRANCH   1   4
BRANCH   1  13
ATOM     13  O   LIG    1       -9.646  -0.058  13.536  0.00  0.00    -0.444 OA
BRANCH  13  14
ATOM     14  C   LIG    1      -10.026  -1.042  12.695  0.00  0.00    +0.313 C 
ATOM     15  O   LIG    1      -11.090  -1.644  12.729  0.00  0.00    -0.250 OA
BRANCH  14  16
ATOM     16  C   LIG    1       -8.978  -1.252  11.668  0.00  0.00    +0.111 C 
ATOM     17  C   LIG    1       -8.647  -2.567  10.982  0.00  0.00    -0.014 C 
ATOM     18  C   LIG    1       -8.185  -2.479   9.543  0.00  0.00    +0.012 C 
ATOM     19  C   LIG    1       -9.451  -3.813  11.256  0.00  0.00    +0.012 C 
ATOM     20  C   LIG    1       -7.702  -1.995  12.023  0.00  0.00    +0.032 C 
BRANCH  20  21
ATOM     21  C   LIG    1       -7.548  -2.584  13.364  0.00  0.00    -0.023 C 
ATOM     22  C   LIG    1       -6.705  -3.575  13.720  0.00  0.00    -0.079 C 
ATOM     23  C   LIG    1       -6.647  -4.080  15.135  0.00  0.00    +0.038 C 
ATOM     24  C   LIG    1       -5.767  -4.265  12.767  0.00  0.00    +0.038 C 
ENDBRANCH  20  21
ENDBRANCH  14  16
ENDBRANCH  13  14
ENDBRANCH   1  13
TORSDOF 5
ENDMDL
MODEL 6
REMARK VINA RESULT:      -6.5      2.056      4.617
REMARK  Name = 
REMARK                            x       y       z     vdW  Elec       q    Type
REMARK                         _______ _______ _______ _____ _____    ______ ____
ROOT
ATOM      1  C   LIG    1       -8.026  -4.241   8.433  0.00  0.00    +0.352 C 
ENDROOT
BRANCH   1   4
ATOM      2  O   LIG    1       -7.755  -1.446   9.162  0.00  0.00    -0.270 OA
ATOM      3  C   LIG    1       -8.382  -2.250   9.828  0.00  0.00    +0.252 C 
ATOM      4  N   LIG    1       -8.575  -3.574   9.594  0.00  0.00    -0.200 N 
ATOM      5  C   LIG    1       -9.330  -4.127  10.580  0.00  0.00    +0.252 C 
ATOM      6  O   LIG    1       -9.719  -5.269  10.739  0.00  0.00    -0.270 OA
ATOM      7  C   LIG    1       -9.643  -3.047  11.521  0.00  0.00    +0.023 C 
ATOM      8  C   LIG    1      -10.447  -3.194  12.745  0.00  0.00    +0.041 C 
ATOM      9  C   LIG    1      -10.676  -1.880  13.501  0.00  0.00    +0.005 C 
ATOM     10  C   LIG    1       -9.927  -0.609  13.054  0.00  0.00    +0.005 C 
ATOM     11  C   LIG    1       -9.164  -0.608  11.719  0.00  0.00    +0.041 C 
ATOM     12  C   LIG    1       -9.084  -1.929  11.074  0.00  0.00    +0.023 C 
ENDBRANCH   1   4
BRANCH   1  13
ATOM     13  O   LIG    1       -6.941  -5.068   8.818  0.00  0.00    -0.444 OA
BRANCH  13  14
ATOM     14  C   LIG    1       -7.229  -6.380   8.939  0.00  0.00    +0.313 C 
ATOM     15  O   LIG    1       -8.214  -6.944   8.484  0.00  0.00    -0.250 OA
BRANCH  14  16
ATOM     16  C   LIG    1       -6.132  -7.066   9.662  0.00  0.00    +0.111 C 
ATOM     17  C   LIG    1       -6.262  -7.830  10.970  0.00  0.00    -0.014 C 
ATOM     18  C   LIG    1       -5.354  -9.029  11.144  0.00  0.00    +0.012 C 
ATOM     19  C   LIG    1       -7.604  -8.020  11.631  0.00  0.00    +0.012 C 
ATOM     20  C   LIG    1       -5.581  -6.473  10.948  0.00  0.00    +0.032 C 
BRANCH  20  21
ATOM     21  C   LIG    1       -6.199  -5.265  11.520  0.00  0.00    -0.023 C 
ATOM     22  C   LIG    1       -5.809  -4.607  12.631  0.00  0.00    -0.079 C 
ATOM     23  C   LIG    1       -6.532  -3.375  13.102  0.00  0.00    +0.038 C 
ATOM     24  C   LIG    1       -4.650  -5.025  13.494  0.00  0.00    +0.038 C 
ENDBRANCH  20  21
ENDBRANCH  14  16
ENDBRANCH  13  14
ENDBRANCH   1  13
TORSDOF 5
ENDMDL
MODEL 7
REMARK VINA RESULT:      -6.2      2.181      6.137
REMARK  Name = 
REMARK                            x       y       z     vdW  Elec       q    Type
REMARK                         _______ _______ _______ _____ _____    ______ ____
ROOT
ATOM      1  C   LIG    1       -6.074  -6.300  11.152  0.00  0.00    +0.352 C 
ENDROOT
BRANCH   1   4
ATOM      2  O   LIG    1       -3.545  -5.641  12.413  0.00  0.00    -0.270 OA
ATOM      3  C   LIG    1       -4.620  -5.512  12.969  0.00  0.00    +0.252 C 
ATOM      4  N   LIG    1       -5.860  -5.788  12.489  0.00  0.00    -0.200 N 
ATOM      5  C   LIG    1       -6.806  -5.513  13.425  0.00  0.00    +0.252 C 
ATOM      6  O   LIG    1       -8.018  -5.623  13.388  0.00  0.00    -0.270 OA
ATOM      7  C   LIG    1       -6.093  -5.014  14.605  0.00  0.00    +0.023 C 
ATOM      8  C   LIG    1       -6.727  -4.590  15.864  0.00  0.00    +0.041 C 
ATOM      9  C   LIG    1       -5.742  -4.042  16.903  0.00  0.00    +0.005 C 
ATOM     10  C   LIG    1       -4.227  -4.150  16.641  0.00  0.00    +0.005 C 
ATOM     11  C   LIG    1       -3.726  -4.570  15.249  0.00  0.00    +0.041 C 
ATOM     12  C   LIG    1       -4.793  -5.008  14.335  0.00  0.00    +0.023 C 
ENDBRANCH   1   4
BRANCH   1  13
ATOM     13  O   LIG    1       -5.748  -5.306  10.196  0.00  0.00    -0.444 OA
BRANCH  13  14
ATOM     14  C   LIG    1       -6.788  -4.573   9.746  0.00  0.00    +0.313 C 
ATOM     15  O   LIG    1       -6.709  -3.524   9.120  0.00  0.00    -0.250 OA
BRANCH  14  16
ATOM     16  C   LIG    1       -8.059  -5.260  10.070  0.00  0.00    +0.111 C 
ATOM     17  C   LIG    1       -9.383  -5.084   9.343  0.00  0.00    -0.014 C 
ATOM     18  C   LIG    1      -10.272  -6.306   9.256  0.00  0.00    +0.012 C 
ATOM     19  C   LIG    1       -9.492  -4.201   8.125  0.00  0.00    +0.012 C 
ATOM     20  C   LIG    1       -9.193  -4.493  10.729  0.00  0.00    +0.032 C 
BRANCH  20  21
ATOM     21  C   LIG    1       -9.058  -3.046  10.963  0.00  0.00    -0.023 C 
ATOM     22  C   LIG    1       -9.444  -2.365  12.061  0.00  0.00    -0.079 C 
ATOM     23  C   LIG    1       -9.239  -0.879  12.171  0.00  0.00    +0.038 C 
ATOM     24  C   LIG    1      -10.107  -2.998  13.254  0.00  0.00    +0.038 C 
ENDBRANCH  20  21
ENDBRANCH  14  16
ENDBRANCH  13  14
ENDBRANCH   1  13
TORSDOF 5
ENDMDL
MODEL 8
REMARK VINA RESULT:      -6.1      4.034      6.434
REMARK  Name = 
REMARK                            x       y       z     vdW  Elec       q    Type
REMARK                         _______ _______ _______ _____ _____    ______ ____
ROOT
ATOM      1  C   LIG    1      -10.779   0.121  14.153  0.00  0.00    +0.352 C 
ENDROOT
BRANCH   1   4
ATOM      2  O   LIG    1       -8.927   2.180  15.016  0.00  0.00    -0.270 OA
ATOM      3  C   LIG    1       -9.674   2.313  14.064  0.00  0.00    +0.252 C 
ATOM      4  N   LIG    1      -10.581   1.430  13.570  0.00  0.00    -0.200 N 
ATOM      5  C   LIG    1      -11.226   1.960  12.498  0.00  0.00    +0.252 C 
ATOM      6  O   LIG    1      -12.099   1.497  11.786  0.00  0.00    -0.270 OA
ATOM      7  C   LIG    1      -10.671   3.302  12.297  0.00  0.00    +0.023 C 
ATOM      8  C   LIG    1      -11.078   4.240  11.238  0.00  0.00    +0.041 C 
ATOM      9  C   LIG    1      -10.274   5.545  11.221  0.00  0.00    +0.005 C 
ATOM     10  C   LIG    1       -9.288   5.843  12.368  0.00  0.00    +0.005 C 
ATOM     11  C   LIG    1       -8.936   4.734  13.372  0.00  0.00    +0.041 C 
ATOM     12  C   LIG    1       -9.744   3.512  13.224  0.00  0.00    +0.023 C 
ENDBRANCH   1   4
BRANCH   1  13
ATOM     13  O   LIG    1      -10.990  -0.837  13.129  0.00  0.00    -0.444 OA
BRANCH  13  14
ATOM     14  C   LIG    1       -9.879  -1.454  12.676  0.00  0.00    +0.313 C 
ATOM     15  O   LIG    1       -9.173  -1.072  11.753  0.00  0.00    -0.250 OA
BRANCH  14  16
ATOM     16  C   LIG    1       -9.597  -2.647  13.507  0.00  0.00    +0.111 C 
ATOM     17  C   LIG    1       -8.400  -3.574  13.368  0.00  0.00    -0.014 C 
ATOM     18  C   LIG    1       -7.868  -4.185  14.646  0.00  0.00    +0.012 C 
ATOM     19  C   LIG    1       -7.310  -3.293  12.364  0.00  0.00    +0.012 C 
ATOM     20  C   LIG    1       -9.776  -4.040  12.926  0.00  0.00    +0.032 C 
BRANCH  20  21
ATOM     21  C   LIG    1      -10.143  -4.199  11.509  0.00  0.00    -0.023 C 
ATOM     22  C   LIG    1       -9.859  -5.250  10.713  0.00  0.00    -0.079 C 
ATOM     23  C   LIG    1      -10.302  -5.285   9.277  0.00  0.00    +0.038 C 
ATOM     24  C   LIG    1       -9.087  -6.461  11.162  0.00  0.00    +0.038 C 
ENDBRANCH  20  21
ENDBRANCH  14  16
ENDBRANCH  13  14
ENDBRANCH   1  13
TORSDOF 5
ENDMDL
MODEL 9
REMARK VINA RESULT:      -6.1      1.669      3.805
REMARK  Name = 
REMARK                            x       y       z     vdW  Elec       q    Type
REMARK                         _______ _______ _______ _____ _____    ______ ____
ROOT
ATOM      1  C   LIG    1       -8.181  -4.861  14.045  0.00  0.00    +0.352 C 
ENDROOT
BRANCH   1   4
ATOM      2  O   LIG    1       -5.917  -5.791  12.488  0.00  0.00    -0.270 OA
ATOM      3  C   LIG    1       -7.055  -5.764  12.057  0.00  0.00    +0.252 C 
ATOM      4  N   LIG    1       -8.187  -5.350  12.683  0.00  0.00    -0.200 N 
ATOM      5  C   LIG    1       -9.260  -5.472  11.858  0.00  0.00    +0.252 C 
ATOM      6  O   LIG    1      -10.435  -5.210  12.038  0.00  0.00    -0.270 OA
ATOM      7  C   LIG    1       -8.755  -6.017  10.594  0.00  0.00    +0.023 C 
ATOM      8  C   LIG    1       -9.576  -6.314   9.410  0.00  0.00    +0.041 C 
ATOM      9  C   LIG    1       -8.793  -6.948   8.253  0.00  0.00    +0.005 C 
ATOM     10  C   LIG    1       -7.257  -7.041   8.340  0.00  0.00    +0.005 C 
ATOM     11  C   LIG    1       -6.553  -6.735   9.671  0.00  0.00    +0.041 C 
ATOM     12  C   LIG    1       -7.445  -6.196  10.712  0.00  0.00    +0.023 C 
ENDBRANCH   1   4
BRANCH   1  13
ATOM     13  O   LIG    1       -8.502  -3.481  14.065  0.00  0.00    -0.444 OA
BRANCH  13  14
ATOM     14  C   LIG    1       -7.563  -2.660  13.549  0.00  0.00    +0.313 C 
ATOM     15  O   LIG    1       -6.379  -2.929  13.402  0.00  0.00    -0.250 OA
BRANCH  14  16
ATOM     16  C   LIG    1       -8.192  -1.388  13.124  0.00  0.00    +0.111 C 
ATOM     17  C   LIG    1       -9.650  -1.195  12.738  0.00  0.00    -0.014 C 
ATOM     18  C   LIG    1      -10.267   0.143  13.084  0.00  0.00    +0.012 C 
ATOM     19  C   LIG    1      -10.638  -2.330  12.833  0.00  0.00    +0.012 C 
ATOM     20  C   LIG    1       -8.573  -1.177  11.668  0.00  0.00    +0.032 C 
BRANCH  20  21
ATOM     21  C   LIG    1       -8.397  -2.272  10.700  0.00  0.00    -0.023 C 
ATOM     22  C   LIG    1       -8.076  -2.154   9.395  0.00  0.00    -0.079 C 
ATOM     23  C   LIG    1       -7.922  -3.365   8.516  0.00  0.00    +0.038 C 
ATOM     24  C   LIG    1       -7.850  -0.840   8.699  0.00  0.00    +0.038 C 
ENDBRANCH  20  21
ENDBRANCH  14  16
ENDBRANCH  13  14
ENDBRANCH   1  13
TORSDOF 5
ENDMDL
