MODEL 1
REMARK VINA RESULT:      -8.7      0.000      0.000
REMARK  Name = 
REMARK                            x       y       z     vdW  Elec       q    Type
REMARK                         _______ _______ _______ _____ _____    ______ ____
ROOT
ATOM      1  C   LIG    1       64.195  45.724  28.455  0.00  0.00    +0.352 C 
ENDROOT
BRANCH   1   4
ATOM      2  O   LIG    1       62.131  43.850  29.258  0.00  0.00    -0.270 OA
ATOM      3  C   LIG    1       61.912  45.027  29.034  0.00  0.00    +0.252 C 
ATOM      4  N   LIG    1       62.786  45.992  28.651  0.00  0.00    -0.200 N 
ATOM      5  C   LIG    1       62.146  47.181  28.496  0.00  0.00    +0.252 C 
ATOM      6  O   LIG    1       62.567  48.274  28.165  0.00  0.00    -0.270 OA
ATOM      7  C   LIG    1       60.735  46.940  28.815  0.00  0.00    +0.023 C 
ATOM      8  C   LIG    1       59.672  47.957  28.781  0.00  0.00    +0.041 C 
ATOM      9  C   LIG    1       58.302  47.439  29.236  0.00  0.00    +0.005 C 
ATOM     10  C   LIG    1       58.109  45.931  29.492  0.00  0.00    +0.005 C 
ATOM     11  C   LIG    1       59.336  45.006  29.536  0.00  0.00    +0.041 C 
ATOM     12  C   LIG    1       60.594  45.660  29.140  0.00  0.00    +0.023 C 
ENDBRANCH   1   4
BRANCH   1  13
ATOM     13  O   LIG    1       64.919  46.066  29.625  0.00  0.00    -0.444 OA
BRANCH  13  14
ATOM     14  C   LIG    1       65.280  45.026  30.406  0.00  0.00    +0.313 C 
ATOM     15  O   LIG    1       65.286  43.849  30.075  0.00  0.00    -0.250 OA
BRANCH  14  16
ATOM     16  C   LIG    1       65.732  45.528  31.725  0.00  0.00    +0.111 C 
ATOM     17  C   LIG    1       65.416  44.907  33.076  0.00  0.00    -0.014 C 
ATOM     18  C   LIG    1       66.488  45.020  34.137  0.00  0.00    +0.012 C 
ATOM     19  C   LIG    1       64.634  43.621  33.178  0.00  0.00    +0.012 C 
ATOM     20  C   LIG    1       64.746  46.205  32.661  0.00  0.00    +0.032 C 
BRANCH  20  21
ATOM     21  C   LIG    1       63.322  46.281  32.293  0.00  0.00    -0.023 C 
ATOM     22  C   LIG    1       62.283  46.503  33.124  0.00  0.00    -0.079 C 
ATOM     23  C   LIG    1       60.871  46.562  32.609  0.00  0.00    +0.038 C 
ATOM     24  C   LIG    1       62.420  46.703  34.608  0.00  0.00    +0.038 C 
ENDBRANCH  20  21
ENDBRANCH  14  16
ENDBRANCH  13  14
ENDBRANCH   1  13
TORSDOF 5
ENDMDL
MODEL 2
REMARK VINA RESULT:      -8.6      0.082      1.815
REMARK  Name = 
REMARK                            x       y       z     vdW  Elec       q    Type
REMARK                         _______ _______ _______ _____ _____    ______ ____
ROOT
ATOM      1  C   LIG    1       64.255  45.745  28.466  0.00  0.00    +0.352 C 
ENDROOT
BRANCH   1   4
ATOM      2  O   LIG    1       62.725  48.197  28.213  0.00  0.00    -0.270 OA
ATOM      3  C   LIG    1       62.229  47.132  28.534  0.00  0.00    +0.252 C 
ATOM      4  N   LIG    1       62.837  45.928  28.689  0.00  0.00    -0.200 N 
ATOM      5  C   LIG    1       61.935  44.983  29.064  0.00  0.00    +0.252 C 
ATOM      6  O   LIG    1       62.077  43.798  29.302  0.00  0.00    -0.270 OA
ATOM      7  C   LIG    1       60.636  45.657  29.150  0.00  0.00    +0.023 C 
ATOM      8  C   LIG    1       59.367  45.010  29.523  0.00  0.00    +0.041 C 
ATOM      9  C   LIG    1       58.151  45.943  29.458  0.00  0.00    +0.005 C 
ATOM     10  C   LIG    1       58.364  47.449  29.211  0.00  0.00    +0.005 C 
ATOM     11  C   LIG    1       59.751  47.959  28.785  0.00  0.00    +0.041 C 
ATOM     12  C   LIG    1       60.807  46.935  28.831  0.00  0.00    +0.023 C 
ENDBRANCH   1   4
BRANCH   1  13
ATOM     13  O   LIG    1       64.974  46.047  29.650  0.00  0.00    -0.444 OA
BRANCH  13  14
ATOM     14  C   LIG    1       65.274  44.988  30.430  0.00  0.00    +0.313 C 
ATOM     15  O   LIG    1       65.240  43.813  30.088  0.00  0.00    -0.250 OA
BRANCH  14  16
ATOM     16  C   LIG    1       65.718  45.459  31.762  0.00  0.00    +0.111 C 
ATOM     17  C   LIG    1       65.365  44.828  33.099  0.00  0.00    -0.014 C 
ATOM     18  C   LIG    1       66.424  44.900  34.178  0.00  0.00    +0.012 C 
ATOM     19  C   LIG    1       64.551  43.561  33.172  0.00  0.00    +0.012 C 
ATOM     20  C   LIG    1       64.734  46.147  32.693  0.00  0.00    +0.032 C 
BRANCH  20  21
ATOM     21  C   LIG    1       63.318  46.263  32.304  0.00  0.00    -0.023 C 
ATOM     22  C   LIG    1       62.269  46.477  33.124  0.00  0.00    -0.079 C 
ATOM     23  C   LIG    1       60.867  46.580  32.589  0.00  0.00    +0.038 C 
ATOM     24  C   LIG    1       62.385  46.625  34.617  0.00  0.00    +0.038 C 
ENDBRANCH  20  21
ENDBRANCH  14  16
ENDBRANCH  13  14
ENDBRANCH   1  13
TORSDOF 5
ENDMDL
MODEL 3
REMARK VINA RESULT:      -8.4      1.872      2.702
REMARK  Name = 
REMARK                            x       y       z     vdW  Elec       q    Type
REMARK                         _______ _______ _______ _____ _____    ______ ____
ROOT
ATOM      1  C   LIG    1       62.041  47.074  30.143  0.00  0.00    +0.352 C 
ENDROOT
BRANCH   1   4
ATOM      2  O   LIG    1       60.254  46.844  27.870  0.00  0.00    -0.270 OA
ATOM      3  C   LIG    1       59.924  46.562  29.007  0.00  0.00    +0.252 C 
ATOM      4  N   LIG    1       60.663  46.632  30.144  0.00  0.00    -0.200 N 
ATOM      5  C   LIG    1       59.928  46.235  31.216  0.00  0.00    +0.252 C 
ATOM      6  O   LIG    1       60.219  46.156  32.395  0.00  0.00    -0.270 OA
ATOM      7  C   LIG    1       58.601  45.879  30.704  0.00  0.00    +0.023 C 
ATOM      8  C   LIG    1       57.478  45.391  31.520  0.00  0.00    +0.041 C 
ATOM      9  C   LIG    1       56.231  45.025  30.707  0.00  0.00    +0.005 C 
ATOM     10  C   LIG    1       56.181  45.360  29.204  0.00  0.00    +0.005 C 
ATOM     11  C   LIG    1       57.461  45.821  28.487  0.00  0.00    +0.041 C 
ATOM     12  C   LIG    1       58.597  46.068  29.389  0.00  0.00    +0.023 C 
ENDBRANCH   1   4
BRANCH   1  13
ATOM     13  O   LIG    1       62.658  46.739  31.374  0.00  0.00    -0.444 OA
BRANCH  13  14
ATOM     14  C   LIG    1       63.547  45.725  31.318  0.00  0.00    +0.313 C 
ATOM     15  O   LIG    1       63.478  44.751  30.581  0.00  0.00    -0.250 OA
BRANCH  14  16
ATOM     16  C   LIG    1       64.668  45.994  32.248  0.00  0.00    +0.111 C 
ATOM     17  C   LIG    1       65.088  45.123  33.421  0.00  0.00    -0.014 C 
ATOM     18  C   LIG    1       66.568  45.083  33.736  0.00  0.00    +0.012 C 
ATOM     19  C   LIG    1       64.402  43.809  33.700  0.00  0.00    +0.012 C 
ATOM     20  C   LIG    1       64.386  46.446  33.671  0.00  0.00    +0.032 C 
BRANCH  20  21
ATOM     21  C   LIG    1       62.996  46.529  34.149  0.00  0.00    -0.023 C 
ATOM     22  C   LIG    1       62.497  47.418  35.032  0.00  0.00    -0.079 C 
ATOM     23  C   LIG    1       61.047  47.393  35.431  0.00  0.00    +0.038 C 
ATOM     24  C   LIG    1       63.313  48.494  35.696  0.00  0.00    +0.038 C 
ENDBRANCH  20  21
ENDBRANCH  14  16
ENDBRANCH  13  14
ENDBRANCH   1  13
TORSDOF 5
ENDMDL
MODEL 4
REMARK VINA RESULT:      -8.3      1.331      5.842
REMARK  Name = 
REMARK                            x       y       z     vdW  Elec       q    Type
REMARK                         _______ _______ _______ _____ _____    ______ ____
ROOT
ATOM      1  C   LIG    1       63.442  43.936  28.833  0.00  0.00    +0.352 C 
ENDROOT
BRANCH   1   4
ATOM      2  O   LIG    1       64.898  46.266  29.763  0.00  0.00    -0.270 OA
ATOM      3  C   LIG    1       64.676  45.296  30.464  0.00  0.00    +0.252 C 
ATOM      4  N   LIG    1       64.015  44.154  30.143  0.00  0.00    -0.200 N 
ATOM      5  C   LIG    1       63.987  43.305  31.204  0.00  0.00    +0.252 C 
ATOM      6  O   LIG    1       63.500  42.196  31.323  0.00  0.00    -0.270 OA
ATOM      7  C   LIG    1       64.695  43.979  32.297  0.00  0.00    +0.023 C 
ATOM      8  C   LIG    1       64.904  43.424  33.644  0.00  0.00    +0.041 C 
ATOM      9  C   LIG    1       65.613  44.382  34.609  0.00  0.00    +0.005 C 
ATOM     10  C   LIG    1       66.196  45.704  34.072  0.00  0.00    +0.005 C 
ATOM     11  C   LIG    1       65.844  46.164  32.648  0.00  0.00    +0.041 C 
ATOM     12  C   LIG    1       65.102  45.166  31.861  0.00  0.00    +0.023 C 
ENDBRANCH   1   4
BRANCH   1  13
ATOM     13  O   LIG    1       62.033  44.086  28.890  0.00  0.00    -0.444 OA
BRANCH  13  14
ATOM     14  C   LIG    1       61.574  45.334  28.666  0.00  0.00    +0.313 C 
ATOM     15  O   LIG    1       62.165  46.217  28.058  0.00  0.00    -0.250 OA
BRANCH  14  16
ATOM     16  C   LIG    1       60.205  45.468  29.215  0.00  0.00    +0.111 C 
ATOM     17  C   LIG    1       59.421  46.763  29.360  0.00  0.00    -0.014 C 
ATOM     18  C   LIG    1       57.921  46.666  29.181  0.00  0.00    +0.012 C 
ATOM     19  C   LIG    1       59.979  48.072  28.862  0.00  0.00    +0.012 C 
ATOM     20  C   LIG    1       59.993  46.080  30.590  0.00  0.00    +0.032 C 
BRANCH  20  21
ATOM     21  C   LIG    1       61.143  46.620  31.335  0.00  0.00    -0.023 C 
ATOM     22  C   LIG    1       61.268  46.708  32.675  0.00  0.00    -0.079 C 
ATOM     23  C   LIG    1       62.507  47.280  33.308  0.00  0.00    +0.038 C 
ATOM     24  C   LIG    1       60.212  46.264  33.650  0.00  0.00    +0.038 C 
ENDBRANCH  20  21
ENDBRANCH  14  16
ENDBRANCH  13  14
ENDBRANCH   1  13
TORSDOF 5
ENDMDL
MODEL 5
REMARK VINA RESULT:      -8.3      1.332      5.575
REMARK  Name = 
REMARK                            x       y       z     vdW  Elec       q    Type
REMARK                         _______ _______ _______ _____ _____    ______ ____
ROOT
ATOM      1  C   LIG    1       63.383  43.852  28.888  0.00  0.00    +0.352 C 
ENDROOT
BRANCH   1   4
ATOM      2  O   LIG    1       63.493  42.210  31.277  0.00  0.00    -0.270 OA
ATOM      3  C   LIG    1       63.981  43.324  31.211  0.00  0.00    +0.252 C 
ATOM      4  N   LIG    1       63.990  44.182  30.159  0.00  0.00    -0.200 N 
ATOM      5  C   LIG    1       64.633  45.334  30.489  0.00  0.00    +0.252 C 
ATOM      6  O   LIG    1       64.851  46.338  29.837  0.00  0.00    -0.270 OA
ATOM      7  C   LIG    1       65.071  45.183  31.880  0.00  0.00    +0.023 C 
ATOM      8  C   LIG    1       65.814  46.194  32.650  0.00  0.00    +0.041 C 
ATOM      9  C   LIG    1       66.207  45.736  34.060  0.00  0.00    +0.005 C 
ATOM     10  C   LIG    1       65.659  44.403  34.604  0.00  0.00    +0.005 C 
ATOM     11  C   LIG    1       64.938  43.434  33.652  0.00  0.00    +0.041 C 
ATOM     12  C   LIG    1       64.689  43.986  32.310  0.00  0.00    +0.023 C 
ENDBRANCH   1   4
BRANCH   1  13
ATOM     13  O   LIG    1       61.978  44.022  28.964  0.00  0.00    -0.444 OA
BRANCH  13  14
ATOM     14  C   LIG    1       61.530  45.263  28.681  0.00  0.00    +0.313 C 
ATOM     15  O   LIG    1       62.131  46.115  28.041  0.00  0.00    -0.250 OA
BRANCH  14  16
ATOM     16  C   LIG    1       60.157  45.429  29.213  0.00  0.00    +0.111 C 
ATOM     17  C   LIG    1       59.393  46.739  29.326  0.00  0.00    -0.014 C 
ATOM     18  C   LIG    1       57.894  46.664  29.132  0.00  0.00    +0.012 C 
ATOM     19  C   LIG    1       59.979  48.030  28.812  0.00  0.00    +0.012 C 
ATOM     20  C   LIG    1       59.940  46.069  30.574  0.00  0.00    +0.032 C 
BRANCH  20  21
ATOM     21  C   LIG    1       61.090  46.602  31.323  0.00  0.00    -0.023 C 
ATOM     22  C   LIG    1       61.214  46.683  32.663  0.00  0.00    -0.079 C 
ATOM     23  C   LIG    1       62.454  47.249  33.300  0.00  0.00    +0.038 C 
ATOM     24  C   LIG    1       60.156  46.236  33.635  0.00  0.00    +0.038 C 
ENDBRANCH  20  21
ENDBRANCH  14  16
ENDBRANCH  13  14
ENDBRANCH   1  13
TORSDOF 5
ENDMDL
MODEL 6
REMARK VINA RESULT:      -8.2      2.378      4.319
REMARK  Name = 
REMARK                            x       y       z     vdW  Elec       q    Type
REMARK                         _______ _______ _______ _____ _____    ______ ____
ROOT
ATOM      1  C   LIG    1       60.952  46.167  30.419  0.00  0.00    +0.352 C 
ENDROOT
BRANCH   1   4
ATOM      2  O   LIG    1       59.288  46.593  28.082  0.00  0.00    -0.270 OA
ATOM      3  C   LIG    1       58.842  46.256  29.164  0.00  0.00    +0.252 C 
ATOM      4  N   LIG    1       59.514  46.032  30.322  0.00  0.00    -0.200 N 
ATOM      5  C   LIG    1       58.653  45.677  31.312  0.00  0.00    +0.252 C 
ATOM      6  O   LIG    1       58.853  45.399  32.480  0.00  0.00    -0.270 OA
ATOM      7  C   LIG    1       57.312  45.676  30.718  0.00  0.00    +0.023 C 
ATOM      8  C   LIG    1       56.068  45.346  31.431  0.00  0.00    +0.041 C 
ATOM      9  C   LIG    1       54.819  45.354  30.540  0.00  0.00    +0.005 C 
ATOM     10  C   LIG    1       54.926  45.867  29.091  0.00  0.00    +0.005 C 
ATOM     11  C   LIG    1       56.313  46.125  28.478  0.00  0.00    +0.041 C 
ATOM     12  C   LIG    1       57.423  46.016  29.439  0.00  0.00    +0.023 C 
ENDBRANCH   1   4
BRANCH   1  13
ATOM     13  O   LIG    1       61.285  47.032  31.491  0.00  0.00    -0.444 OA
BRANCH  13  14
ATOM     14  C   LIG    1       62.313  46.626  32.264  0.00  0.00    +0.313 C 
ATOM     15  O   LIG    1       63.462  46.435  31.888  0.00  0.00    -0.250 OA
BRANCH  14  16
ATOM     16  C   LIG    1       61.861  46.503  33.670  0.00  0.00    +0.111 C 
ATOM     17  C   LIG    1       62.057  47.535  34.768  0.00  0.00    -0.014 C 
ATOM     18  C   LIG    1       60.959  47.633  35.805  0.00  0.00    +0.012 C 
ATOM     19  C   LIG    1       62.697  48.870  34.478  0.00  0.00    +0.012 C 
ATOM     20  C   LIG    1       62.873  46.256  34.776  0.00  0.00    +0.032 C 
BRANCH  20  21
ATOM     21  C   LIG    1       64.311  46.229  34.459  0.00  0.00    -0.023 C 
ATOM     22  C   LIG    1       65.102  45.139  34.383  0.00  0.00    -0.079 C 
ATOM     23  C   LIG    1       66.562  45.256  34.043  0.00  0.00    +0.038 C 
ATOM     24  C   LIG    1       64.624  43.734  34.631  0.00  0.00    +0.038 C 
ENDBRANCH  20  21
ENDBRANCH  14  16
ENDBRANCH  13  14
ENDBRANCH   1  13
TORSDOF 5
ENDMDL
MODEL 7
REMARK VINA RESULT:      -8.2      1.823      5.709
REMARK  Name = 
REMARK                            x       y       z     vdW  Elec       q    Type
REMARK                         _______ _______ _______ _____ _____    ______ ____
ROOT
ATOM      1  C   LIG    1       64.417  43.857  29.339  0.00  0.00    +0.352 C 
ENDROOT
BRANCH   1   4
ATOM      2  O   LIG    1       63.957  42.067  31.575  0.00  0.00    -0.270 OA
ATOM      3  C   LIG    1       64.256  43.239  31.711  0.00  0.00    +0.252 C 
ATOM      4  N   LIG    1       64.490  44.170  30.749  0.00  0.00    -0.200 N 
ATOM      5  C   LIG    1       64.789  45.371  31.311  0.00  0.00    +0.252 C 
ATOM      6  O   LIG    1       65.056  46.443  30.801  0.00  0.00    -0.270 OA
ATOM      7  C   LIG    1       64.741  45.176  32.763  0.00  0.00    +0.023 C 
ATOM      8  C   LIG    1       65.003  46.218  33.769  0.00  0.00    +0.041 C 
ATOM      9  C   LIG    1       64.956  45.712  35.216  0.00  0.00    +0.005 C 
ATOM     10  C   LIG    1       64.472  44.277  35.501  0.00  0.00    +0.005 C 
ATOM     11  C   LIG    1       64.286  43.293  34.334  0.00  0.00    +0.041 C 
ATOM     12  C   LIG    1       64.428  43.908  33.004  0.00  0.00    +0.023 C 
ENDBRANCH   1   4
BRANCH   1  13
ATOM     13  O   LIG    1       63.682  44.859  28.658  0.00  0.00    -0.444 OA
BRANCH  13  14
ATOM     14  C   LIG    1       62.340  44.725  28.705  0.00  0.00    +0.313 C 
ATOM     15  O   LIG    1       61.729  43.805  29.231  0.00  0.00    -0.250 OA
BRANCH  14  16
ATOM     16  C   LIG    1       61.699  45.901  28.071  0.00  0.00    +0.111 C 
ATOM     17  C   LIG    1       61.474  47.257  28.722  0.00  0.00    -0.014 C 
ATOM     18  C   LIG    1       61.557  48.463  27.812  0.00  0.00    +0.012 C 
ATOM     19  C   LIG    1       61.977  47.547  30.114  0.00  0.00    +0.012 C 
ATOM     20  C   LIG    1       60.300  46.323  28.488  0.00  0.00    +0.032 C 
BRANCH  20  21
ATOM     21  C   LIG    1       59.619  45.614  29.585  0.00  0.00    -0.023 C 
ATOM     22  C   LIG    1       58.290  45.547  29.801  0.00  0.00    -0.079 C 
ATOM     23  C   LIG    1       57.726  44.779  30.965  0.00  0.00    +0.038 C 
ATOM     24  C   LIG    1       57.261  46.220  28.934  0.00  0.00    +0.038 C 
ENDBRANCH  20  21
ENDBRANCH  14  16
ENDBRANCH  13  14
ENDBRANCH   1  13
TORSDOF 5
ENDMDL
MODEL 8
REMARK VINA RESULT:      -8.0      1.941      5.587
REMARK  Name = 
REMARK                            x       y       z     vdW  Elec       q    Type
REMARK                         _______ _______ _______ _____ _____    ______ ____
ROOT
ATOM      1  C   LIG    1       64.178  43.585  31.247  0.00  0.00    +0.352 C 
ENDROOT
BRANCH   1   4
ATOM      2  O   LIG    1       65.417  43.549  33.870  0.00  0.00    -0.270 OA
ATOM      3  C   LIG    1       64.608  44.392  33.527  0.00  0.00    +0.252 C 
ATOM      4  N   LIG    1       63.962  44.510  32.339  0.00  0.00    -0.200 N 
ATOM      5  C   LIG    1       63.130  45.585  32.353  0.00  0.00    +0.252 C 
ATOM      6  O   LIG    1       62.385  46.026  31.498  0.00  0.00    -0.270 OA
ATOM      7  C   LIG    1       63.269  46.202  33.676  0.00  0.00    +0.023 C 
ATOM      8  C   LIG    1       62.550  47.403  34.132  0.00  0.00    +0.041 C 
ATOM      9  C   LIG    1       62.948  47.869  35.538  0.00  0.00    +0.005 C 
ATOM     10  C   LIG    1       63.874  46.985  36.396  0.00  0.00    +0.005 C 
ATOM     11  C   LIG    1       64.586  45.784  35.752  0.00  0.00    +0.041 C 
ATOM     12  C   LIG    1       64.151  45.497  34.375  0.00  0.00    +0.023 C 
ENDBRANCH   1   4
BRANCH   1  13
ATOM     13  O   LIG    1       64.361  44.300  30.037  0.00  0.00    -0.444 OA
BRANCH  13  14
ATOM     14  C   LIG    1       63.447  44.052  29.075  0.00  0.00    +0.313 C 
ATOM     15  O   LIG    1       62.518  43.261  29.156  0.00  0.00    -0.250 OA
BRANCH  14  16
ATOM     16  C   LIG    1       63.697  44.934  27.911  0.00  0.00    +0.111 C 
ATOM     17  C   LIG    1       63.902  46.440  27.956  0.00  0.00    -0.014 C 
ATOM     18  C   LIG    1       64.853  47.021  26.932  0.00  0.00    +0.012 C 
ATOM     19  C   LIG    1       63.940  47.182  29.268  0.00  0.00    +0.012 C 
ATOM     20  C   LIG    1       62.605  45.866  27.414  0.00  0.00    +0.032 C 
BRANCH  20  21
ATOM     21  C   LIG    1       61.330  45.955  28.146  0.00  0.00    -0.023 C 
ATOM     22  C   LIG    1       60.520  47.030  28.231  0.00  0.00    -0.079 C 
ATOM     23  C   LIG    1       59.237  46.981  29.014  0.00  0.00    +0.038 C 
ATOM     24  C   LIG    1       60.808  48.355  27.578  0.00  0.00    +0.038 C 
ENDBRANCH  20  21
ENDBRANCH  14  16
ENDBRANCH  13  14
ENDBRANCH   1  13
TORSDOF 5
ENDMDL
MODEL 9
REMARK VINA RESULT:      -7.8      2.464      4.501
REMARK  Name = 
REMARK                            x       y       z     vdW  Elec       q    Type
REMARK                         _______ _______ _______ _____ _____    ______ ____
ROOT
ATOM      1  C   LIG    1       60.432  45.141  30.041  0.00  0.00    +0.352 C 
ENDROOT
BRANCH   1   4
ATOM      2  O   LIG    1       59.019  46.894  28.212  0.00  0.00    -0.270 OA
ATOM      3  C   LIG    1       58.459  46.229  29.065  0.00  0.00    +0.252 C 
ATOM      4  N   LIG    1       59.007  45.383  29.974  0.00  0.00    -0.200 N 
ATOM      5  C   LIG    1       58.043  44.835  30.759  0.00  0.00    +0.252 C 
ATOM      6  O   LIG    1       58.120  44.043  31.679  0.00  0.00    -0.270 OA
ATOM      7  C   LIG    1       56.766  45.389  30.298  0.00  0.00    +0.023 C 
ATOM      8  C   LIG    1       55.446  45.067  30.865  0.00  0.00    +0.041 C 
ATOM      9  C   LIG    1       54.275  45.735  30.135  0.00  0.00    +0.005 C 
ATOM     10  C   LIG    1       54.562  46.788  29.047  0.00  0.00    +0.005 C 
ATOM     11  C   LIG    1       55.999  46.972  28.530  0.00  0.00    +0.041 C 
ATOM     12  C   LIG    1       57.010  46.214  29.287  0.00  0.00    +0.023 C 
ENDBRANCH   1   4
BRANCH   1  13
ATOM     13  O   LIG    1       61.133  46.373  30.047  0.00  0.00    -0.444 OA
BRANCH  13  14
ATOM     14  C   LIG    1       62.098  46.485  30.983  0.00  0.00    +0.313 C 
ATOM     15  O   LIG    1       62.324  47.476  31.666  0.00  0.00    -0.250 OA
BRANCH  14  16
ATOM     16  C   LIG    1       62.818  45.197  31.114  0.00  0.00    +0.111 C 
ATOM     17  C   LIG    1       64.199  45.000  31.718  0.00  0.00    -0.014 C 
ATOM     18  C   LIG    1       64.434  43.698  32.453  0.00  0.00    +0.012 C 
ATOM     19  C   LIG    1       64.953  46.154  32.330  0.00  0.00    +0.012 C 
ATOM     20  C   LIG    1       64.006  44.895  30.216  0.00  0.00    +0.032 C 
BRANCH  20  21
ATOM     21  C   LIG    1       64.494  45.921  29.279  0.00  0.00    -0.023 C 
ATOM     22  C   LIG    1       64.085  46.115  28.008  0.00  0.00    -0.079 C 
ATOM     23  C   LIG    1       64.668  47.211  27.159  0.00  0.00    +0.038 C 
ATOM     24  C   LIG    1       63.040  45.277  27.323  0.00  0.00    +0.038 C 
ENDBRANCH  20  21
ENDBRANCH  14  16
ENDBRANCH  13  14
ENDBRANCH   1  13
TORSDOF 5
ENDMDL
