MODEL 1
REMARK VINA RESULT:     -10.2      0.000      0.000
REMARK  Name = 
REMARK                            x       y       z     vdW  Elec       q    Type
REMARK                         _______ _______ _______ _____ _____    ______ ____
ROOT
ATOM      1  C   LIG    1       41.962  -0.355  17.895  0.00  0.00    +0.352 C 
ENDROOT
BRANCH   1   4
ATOM      2  O   LIG    1       44.514  -1.122  19.040  0.00  0.00    -0.270 OA
ATOM      3  C   LIG    1       43.937  -1.783  18.195  0.00  0.00    +0.252 C 
ATOM      4  N   LIG    1       42.751  -1.528  17.586  0.00  0.00    -0.200 N 
ATOM      5  C   LIG    1       42.453  -2.508  16.693  0.00  0.00    +0.252 C 
ATOM      6  O   LIG    1       41.496  -2.647  15.954  0.00  0.00    -0.270 OA
ATOM      7  C   LIG    1       43.556  -3.472  16.748  0.00  0.00    +0.023 C 
ATOM      8  C   LIG    1       43.649  -4.702  15.945  0.00  0.00    +0.041 C 
ATOM      9  C   LIG    1       44.878  -5.562  16.265  0.00  0.00    +0.005 C 
ATOM     10  C   LIG    1       45.964  -5.010  17.210  0.00  0.00    +0.005 C 
ATOM     11  C   LIG    1       45.689  -3.728  18.013  0.00  0.00    +0.041 C 
ATOM     12  C   LIG    1       44.438  -3.046  17.645  0.00  0.00    +0.023 C 
ENDBRANCH   1   4
BRANCH   1  13
ATOM     13  O   LIG    1       40.710  -0.743  18.436  0.00  0.00    -0.444 OA
BRANCH  13  14
ATOM     14  C   LIG    1       39.634  -0.436  17.682  0.00  0.00    +0.313 C 
ATOM     15  O   LIG    1       38.760  -1.216  17.329  0.00  0.00    -0.250 OA
BRANCH  14  16
ATOM     16  C   LIG    1       39.629   1.016  17.387  0.00  0.00    +0.111 C 
ATOM     17  C   LIG    1       38.440   1.826  16.896  0.00  0.00    -0.014 C 
ATOM     18  C   LIG    1       38.357   3.259  17.373  0.00  0.00    +0.012 C 
ATOM     19  C   LIG    1       37.081   1.193  16.730  0.00  0.00    +0.012 C 
ATOM     20  C   LIG    1       39.580   1.501  15.948  0.00  0.00    +0.032 C 
BRANCH  20  21
ATOM     21  C   LIG    1       39.449   0.526  14.852  0.00  0.00    -0.023 C 
ATOM     22  C   LIG    1       38.913   0.747  13.634  0.00  0.00    -0.079 C 
ATOM     23  C   LIG    1       38.847  -0.344  12.601  0.00  0.00    +0.038 C 
ATOM     24  C   LIG    1       38.338   2.065  13.194  0.00  0.00    +0.038 C 
ENDBRANCH  20  21
ENDBRANCH  14  16
ENDBRANCH  13  14
ENDBRANCH   1  13
TORSDOF 5
ENDMDL
MODEL 2
REMARK VINA RESULT:     -10.1      0.065      1.814
REMARK  Name = 
REMARK                            x       y       z     vdW  Elec       q    Type
REMARK                         _______ _______ _______ _____ _____    ______ ____
ROOT
ATOM      1  C   LIG    1       41.972  -0.376  17.803  0.00  0.00    +0.352 C 
ENDROOT
BRANCH   1   4
ATOM      2  O   LIG    1       41.564  -2.584  15.967  0.00  0.00    -0.270 OA
ATOM      3  C   LIG    1       42.531  -2.499  16.702  0.00  0.00    +0.252 C 
ATOM      4  N   LIG    1       42.828  -1.525  17.600  0.00  0.00    -0.200 N 
ATOM      5  C   LIG    1       43.999  -1.800  18.232  0.00  0.00    +0.252 C 
ATOM      6  O   LIG    1       44.602  -1.187  19.094  0.00  0.00    -0.270 OA
ATOM      7  C   LIG    1       44.485  -3.067  17.677  0.00  0.00    +0.023 C 
ATOM      8  C   LIG    1       45.731  -3.745  18.072  0.00  0.00    +0.041 C 
ATOM      9  C   LIG    1       46.027  -5.019  17.270  0.00  0.00    +0.005 C 
ATOM     10  C   LIG    1       44.963  -5.568  16.301  0.00  0.00    +0.005 C 
ATOM     11  C   LIG    1       43.733  -4.711  15.959  0.00  0.00    +0.041 C 
ATOM     12  C   LIG    1       43.616  -3.483  16.762  0.00  0.00    +0.023 C 
ENDBRANCH   1   4
BRANCH   1  13
ATOM     13  O   LIG    1       40.742  -0.785  18.375  0.00  0.00    -0.444 OA
BRANCH  13  14
ATOM     14  C   LIG    1       39.639  -0.458  17.670  0.00  0.00    +0.313 C 
ATOM     15  O   LIG    1       38.736  -1.221  17.356  0.00  0.00    -0.250 OA
BRANCH  14  16
ATOM     16  C   LIG    1       39.647   0.994  17.378  0.00  0.00    +0.111 C 
ATOM     17  C   LIG    1       38.463   1.817  16.893  0.00  0.00    -0.014 C 
ATOM     18  C   LIG    1       38.398   3.251  17.372  0.00  0.00    +0.012 C 
ATOM     19  C   LIG    1       37.097   1.198  16.733  0.00  0.00    +0.012 C 
ATOM     20  C   LIG    1       39.596   1.482  15.939  0.00  0.00    +0.032 C 
BRANCH  20  21
ATOM     21  C   LIG    1       39.449   0.509  14.843  0.00  0.00    -0.023 C 
ATOM     22  C   LIG    1       38.903   0.735  13.630  0.00  0.00    -0.079 C 
ATOM     23  C   LIG    1       38.822  -0.354  12.596  0.00  0.00    +0.038 C 
ATOM     24  C   LIG    1       38.330   2.057  13.198  0.00  0.00    +0.038 C 
ENDBRANCH  20  21
ENDBRANCH  14  16
ENDBRANCH  13  14
ENDBRANCH   1  13
TORSDOF 5
ENDMDL
MODEL 3
REMARK VINA RESULT:     -10.0      1.357      3.152
REMARK  Name = 
REMARK                            x       y       z     vdW  Elec       q    Type
REMARK                         _______ _______ _______ _____ _____    ______ ____
ROOT
ATOM      1  C   LIG    1       41.914  -0.847  17.826  0.00  0.00    +0.352 C 
ENDROOT
BRANCH   1   4
ATOM      2  O   LIG    1       42.072  -3.205  16.143  0.00  0.00    -0.270 OA
ATOM      3  C   LIG    1       42.952  -2.880  16.918  0.00  0.00    +0.252 C 
ATOM      4  N   LIG    1       42.992  -1.810  17.754  0.00  0.00    -0.200 N 
ATOM      5  C   LIG    1       44.150  -1.802  18.465  0.00  0.00    +0.252 C 
ATOM      6  O   LIG    1       44.561  -1.026  19.307  0.00  0.00    -0.270 OA
ATOM      7  C   LIG    1       44.913  -2.977  18.033  0.00  0.00    +0.023 C 
ATOM      8  C   LIG    1       46.239  -3.363  18.541  0.00  0.00    +0.041 C 
ATOM      9  C   LIG    1       46.833  -4.599  17.855  0.00  0.00    +0.005 C 
ATOM     10  C   LIG    1       45.964  -5.413  16.876  0.00  0.00    +0.005 C 
ATOM     11  C   LIG    1       44.614  -4.845  16.408  0.00  0.00    +0.041 C 
ATOM     12  C   LIG    1       44.205  -3.618  17.109  0.00  0.00    +0.023 C 
ENDBRANCH   1   4
BRANCH   1  13
ATOM     13  O   LIG    1       42.039   0.098  16.777  0.00  0.00    -0.444 OA
BRANCH  13  14
ATOM     14  C   LIG    1       41.035   0.096  15.875  0.00  0.00    +0.313 C 
ATOM     15  O   LIG    1       41.144   0.340  14.681  0.00  0.00    -0.250 OA
BRANCH  14  16
ATOM     16  C   LIG    1       39.772  -0.309  16.534  0.00  0.00    +0.111 C 
ATOM     17  C   LIG    1       38.373  -0.157  15.960  0.00  0.00    -0.014 C 
ATOM     18  C   LIG    1       37.373  -1.232  16.328  0.00  0.00    +0.012 C 
ATOM     19  C   LIG    1       38.157   0.381  14.567  0.00  0.00    +0.012 C 
ATOM     20  C   LIG    1       38.831   0.746  17.090  0.00  0.00    +0.032 C 
BRANCH  20  21
ATOM     21  C   LIG    1       39.134   2.174  16.892  0.00  0.00    -0.023 C 
ATOM     22  C   LIG    1       38.287   3.210  17.057  0.00  0.00    -0.079 C 
ATOM     23  C   LIG    1       38.733   4.628  16.824  0.00  0.00    +0.038 C 
ATOM     24  C   LIG    1       36.848   3.064  17.471  0.00  0.00    +0.038 C 
ENDBRANCH  20  21
ENDBRANCH  14  16
ENDBRANCH  13  14
ENDBRANCH   1  13
TORSDOF 5
ENDMDL
MODEL 4
REMARK VINA RESULT:     -10.0      1.378      2.395
REMARK  Name = 
REMARK                            x       y       z     vdW  Elec       q    Type
REMARK                         _______ _______ _______ _____ _____    ______ ____
ROOT
ATOM      1  C   LIG    1       41.452  -0.273  17.856  0.00  0.00    +0.352 C 
ENDROOT
BRANCH   1   4
ATOM      2  O   LIG    1       44.043  -0.998  18.940  0.00  0.00    -0.270 OA
ATOM      3  C   LIG    1       43.465  -1.660  18.098  0.00  0.00    +0.252 C 
ATOM      4  N   LIG    1       42.261  -1.423  17.515  0.00  0.00    -0.200 N 
ATOM      5  C   LIG    1       41.968  -2.398  16.614  0.00  0.00    +0.252 C 
ATOM      6  O   LIG    1       41.000  -2.549  15.892  0.00  0.00    -0.270 OA
ATOM      7  C   LIG    1       43.093  -3.337  16.634  0.00  0.00    +0.023 C 
ATOM      8  C   LIG    1       43.199  -4.554  15.812  0.00  0.00    +0.041 C 
ATOM      9  C   LIG    1       44.453  -5.389  16.096  0.00  0.00    +0.005 C 
ATOM     10  C   LIG    1       45.544  -4.826  17.027  0.00  0.00    +0.005 C 
ATOM     11  C   LIG    1       45.256  -3.562  17.854  0.00  0.00    +0.041 C 
ATOM     12  C   LIG    1       43.983  -2.903  17.520  0.00  0.00    +0.023 C 
ENDBRANCH   1   4
BRANCH   1  13
ATOM     13  O   LIG    1       40.080  -0.572  17.660  0.00  0.00    -0.444 OA
BRANCH  13  14
ATOM     14  C   LIG    1       39.316   0.461  17.248  0.00  0.00    +0.313 C 
ATOM     15  O   LIG    1       39.507   1.642  17.506  0.00  0.00    -0.250 OA
BRANCH  14  16
ATOM     16  C   LIG    1       38.230  -0.040  16.374  0.00  0.00    +0.111 C 
ATOM     17  C   LIG    1       38.156   0.107  14.863  0.00  0.00    -0.014 C 
ATOM     18  C   LIG    1       37.500  -1.028  14.106  0.00  0.00    +0.012 C 
ATOM     19  C   LIG    1       39.281   0.745  14.086  0.00  0.00    +0.012 C 
ATOM     20  C   LIG    1       37.244   0.934  15.750  0.00  0.00    +0.032 C 
BRANCH  20  21
ATOM     21  C   LIG    1       37.425   2.383  15.945  0.00  0.00    -0.023 C 
ATOM     22  C   LIG    1       36.989   3.368  15.133  0.00  0.00    -0.079 C 
ATOM     23  C   LIG    1       37.241   4.815  15.457  0.00  0.00    +0.038 C 
ATOM     24  C   LIG    1       36.234   3.132  13.854  0.00  0.00    +0.038 C 
ENDBRANCH  20  21
ENDBRANCH  14  16
ENDBRANCH  13  14
ENDBRANCH   1  13
TORSDOF 5
ENDMDL
MODEL 5
REMARK VINA RESULT:     -10.0      1.738      3.193
REMARK  Name = 
REMARK                            x       y       z     vdW  Elec       q    Type
REMARK                         _______ _______ _______ _____ _____    ______ ____
ROOT
ATOM      1  C   LIG    1       40.176  -1.053  17.143  0.00  0.00    +0.352 C 
ENDROOT
BRANCH   1   4
ATOM      2  O   LIG    1       40.868  -3.345  15.504  0.00  0.00    -0.270 OA
ATOM      3  C   LIG    1       41.630  -2.852  16.315  0.00  0.00    +0.252 C 
ATOM      4  N   LIG    1       41.421  -1.790  17.137  0.00  0.00    -0.200 N 
ATOM      5  C   LIG    1       42.520  -1.556  17.902  0.00  0.00    +0.252 C 
ATOM      6  O   LIG    1       42.732  -0.711  18.751  0.00  0.00    -0.270 OA
ATOM      7  C   LIG    1       43.515  -2.564  17.523  0.00  0.00    +0.023 C 
ATOM      8  C   LIG    1       44.864  -2.684  18.100  0.00  0.00    +0.041 C 
ATOM      9  C   LIG    1       45.718  -3.785  17.460  0.00  0.00    +0.005 C 
ATOM     10  C   LIG    1       45.072  -4.756  16.453  0.00  0.00    +0.005 C 
ATOM     11  C   LIG    1       43.663  -4.462  15.913  0.00  0.00    +0.041 C 
ATOM     12  C   LIG    1       42.990  -3.333  16.576  0.00  0.00    +0.023 C 
ENDBRANCH   1   4
BRANCH   1  13
ATOM     13  O   LIG    1       40.404   0.285  16.736  0.00  0.00    -0.444 OA
BRANCH  13  14
ATOM     14  C   LIG    1       39.357   1.122  16.889  0.00  0.00    +0.313 C 
ATOM     15  O   LIG    1       39.389   2.217  17.435  0.00  0.00    -0.250 OA
BRANCH  14  16
ATOM     16  C   LIG    1       38.158   0.546  16.237  0.00  0.00    +0.111 C 
ATOM     17  C   LIG    1       37.853   0.564  14.748  0.00  0.00    -0.014 C 
ATOM     18  C   LIG    1       37.107  -0.632  14.198  0.00  0.00    +0.012 C 
ATOM     19  C   LIG    1       38.835   1.138  13.757  0.00  0.00    +0.012 C 
ATOM     20  C   LIG    1       37.074   1.461  15.693  0.00  0.00    +0.032 C 
BRANCH  20  21
ATOM     21  C   LIG    1       37.260   2.921  15.736  0.00  0.00    -0.023 C 
ATOM     22  C   LIG    1       36.733   3.828  14.888  0.00  0.00    -0.079 C 
ATOM     23  C   LIG    1       37.003   5.299  15.052  0.00  0.00    +0.038 C 
ATOM     24  C   LIG    1       35.853   3.477  13.719  0.00  0.00    +0.038 C 
ENDBRANCH  20  21
ENDBRANCH  14  16
ENDBRANCH  13  14
ENDBRANCH   1  13
TORSDOF 5
ENDMDL
MODEL 6
REMARK VINA RESULT:      -9.9      1.619      3.379
REMARK  Name = 
REMARK                            x       y       z     vdW  Elec       q    Type
REMARK                         _______ _______ _______ _____ _____    ______ ____
ROOT
ATOM      1  C   LIG    1       40.574  -0.731  17.041  0.00  0.00    +0.352 C 
ENDROOT
BRANCH   1   4
ATOM      2  O   LIG    1       40.892  -3.140  15.458  0.00  0.00    -0.270 OA
ATOM      3  C   LIG    1       41.726  -2.753  16.256  0.00  0.00    +0.252 C 
ATOM      4  N   LIG    1       41.689  -1.653  17.051  0.00  0.00    -0.200 N 
ATOM      5  C   LIG    1       42.815  -1.574  17.808  0.00  0.00    +0.252 C 
ATOM      6  O   LIG    1       43.160  -0.752  18.637  0.00  0.00    -0.270 OA
ATOM      7  C   LIG    1       43.638  -2.733  17.453  0.00  0.00    +0.023 C 
ATOM      8  C   LIG    1       44.955  -3.048  18.031  0.00  0.00    +0.041 C 
ATOM      9  C   LIG    1       45.624  -4.284  17.417  0.00  0.00    +0.005 C 
ATOM     10  C   LIG    1       44.829  -5.167  16.435  0.00  0.00    +0.005 C 
ATOM     11  C   LIG    1       43.480  -4.670  15.890  0.00  0.00    +0.041 C 
ATOM     12  C   LIG    1       42.995  -3.434  16.526  0.00  0.00    +0.023 C 
ENDBRANCH   1   4
BRANCH   1  13
ATOM     13  O   LIG    1       40.954   0.482  16.413  0.00  0.00    -0.444 OA
BRANCH  13  14
ATOM     14  C   LIG    1       40.130   0.909  15.434  0.00  0.00    +0.313 C 
ATOM     15  O   LIG    1       40.291   1.909  14.746  0.00  0.00    -0.250 OA
BRANCH  14  16
ATOM     16  C   LIG    1       39.016  -0.052  15.265  0.00  0.00    +0.111 C 
ATOM     17  C   LIG    1       38.340  -0.418  13.953  0.00  0.00    -0.014 C 
ATOM     18  C   LIG    1       37.846  -1.843  13.824  0.00  0.00    +0.012 C 
ATOM     19  C   LIG    1       38.827   0.145  12.642  0.00  0.00    +0.012 C 
ATOM     20  C   LIG    1       37.614   0.452  14.963  0.00  0.00    +0.032 C 
BRANCH  20  21
ATOM     21  C   LIG    1       37.385   1.891  14.751  0.00  0.00    -0.023 C 
ATOM     22  C   LIG    1       37.084   2.809  15.693  0.00  0.00    -0.079 C 
ATOM     23  C   LIG    1       36.880   4.255  15.337  0.00  0.00    +0.038 C 
ATOM     24  C   LIG    1       36.918   2.492  17.155  0.00  0.00    +0.038 C 
ENDBRANCH  20  21
ENDBRANCH  14  16
ENDBRANCH  13  14
ENDBRANCH   1  13
TORSDOF 5
ENDMDL
MODEL 7
REMARK VINA RESULT:      -9.6      2.019      3.245
REMARK  Name = 
REMARK                            x       y       z     vdW  Elec       q    Type
REMARK                         _______ _______ _______ _____ _____    ______ ____
ROOT
ATOM      1  C   LIG    1       43.474  -0.609  15.412  0.00  0.00    +0.352 C 
ENDROOT
BRANCH   1   4
ATOM      2  O   LIG    1       45.185  -2.694  14.343  0.00  0.00    -0.270 OA
ATOM      3  C   LIG    1       45.096  -2.451  15.532  0.00  0.00    +0.252 C 
ATOM      4  N   LIG    1       44.333  -1.511  16.149  0.00  0.00    -0.200 N 
ATOM      5  C   LIG    1       44.510  -1.562  17.495  0.00  0.00    +0.252 C 
ATOM      6  O   LIG    1       44.015  -0.900  18.389  0.00  0.00    -0.270 OA
ATOM      7  C   LIG    1       45.478  -2.634  17.749  0.00  0.00    +0.023 C 
ATOM      8  C   LIG    1       45.968  -3.039  19.077  0.00  0.00    +0.041 C 
ATOM      9  C   LIG    1       47.034  -4.141  19.037  0.00  0.00    +0.005 C 
ATOM     10  C   LIG    1       47.353  -4.838  17.700  0.00  0.00    +0.005 C 
ATOM     11  C   LIG    1       46.792  -4.260  16.390  0.00  0.00    +0.041 C 
ATOM     12  C   LIG    1       45.831  -3.161  16.582  0.00  0.00    +0.023 C 
ENDBRANCH   1   4
BRANCH   1  13
ATOM     13  O   LIG    1       42.207  -1.209  15.204  0.00  0.00    -0.444 OA
BRANCH  13  14
ATOM     14  C   LIG    1       41.145  -0.406  15.416  0.00  0.00    +0.313 C 
ATOM     15  O   LIG    1       40.336  -0.048  14.571  0.00  0.00    -0.250 OA
BRANCH  14  16
ATOM     16  C   LIG    1       41.059  -0.063  16.855  0.00  0.00    +0.111 C 
ATOM     17  C   LIG    1       40.087  -0.658  17.861  0.00  0.00    -0.014 C 
ATOM     18  C   LIG    1       40.595  -0.813  19.278  0.00  0.00    +0.012 C 
ATOM     19  C   LIG    1       39.131  -1.755  17.466  0.00  0.00    +0.012 C 
ATOM     20  C   LIG    1       39.895   0.767  17.372  0.00  0.00    +0.032 C 
BRANCH  20  21
ATOM     21  C   LIG    1       38.809   1.152  16.456  0.00  0.00    -0.023 C 
ATOM     22  C   LIG    1       38.247   2.372  16.337  0.00  0.00    -0.079 C 
ATOM     23  C   LIG    1       37.141   2.630  15.351  0.00  0.00    +0.038 C 
ATOM     24  C   LIG    1       38.649   3.568  17.158  0.00  0.00    +0.038 C 
ENDBRANCH  20  21
ENDBRANCH  14  16
ENDBRANCH  13  14
ENDBRANCH   1  13
TORSDOF 5
ENDMDL
MODEL 8
REMARK VINA RESULT:      -9.6      1.576      2.974
REMARK  Name = 
REMARK                            x       y       z     vdW  Elec       q    Type
REMARK                         _______ _______ _______ _____ _____    ______ ____
ROOT
ATOM      1  C   LIG    1       42.576  -1.307  15.898  0.00  0.00    +0.352 C 
ENDROOT
BRANCH   1   4
ATOM      2  O   LIG    1       43.576  -1.324  18.621  0.00  0.00    -0.270 OA
ATOM      3  C   LIG    1       44.063  -1.993  17.729  0.00  0.00    +0.252 C 
ATOM      4  N   LIG    1       43.689  -2.066  16.425  0.00  0.00    -0.200 N 
ATOM      5  C   LIG    1       44.494  -2.926  15.746  0.00  0.00    +0.252 C 
ATOM      6  O   LIG    1       44.491  -3.262  14.576  0.00  0.00    -0.270 OA
ATOM      7  C   LIG    1       45.464  -3.444  16.715  0.00  0.00    +0.023 C 
ATOM      8  C   LIG    1       46.529  -4.414  16.415  0.00  0.00    +0.041 C 
ATOM      9  C   LIG    1       47.350  -4.836  17.640  0.00  0.00    +0.005 C 
ATOM     10  C   LIG    1       47.137  -4.109  18.982  0.00  0.00    +0.005 C 
ATOM     11  C   LIG    1       45.943  -3.153  19.145  0.00  0.00    +0.041 C 
ATOM     12  C   LIG    1       45.207  -2.895  17.897  0.00  0.00    +0.023 C 
ENDBRANCH   1   4
BRANCH   1  13
ATOM     13  O   LIG    1       41.428  -2.134  15.807  0.00  0.00    -0.444 OA
BRANCH  13  14
ATOM     14  C   LIG    1       40.364  -1.729  16.531  0.00  0.00    +0.313 C 
ATOM     15  O   LIG    1       40.401  -1.271  17.665  0.00  0.00    -0.250 OA
BRANCH  14  16
ATOM     16  C   LIG    1       39.130  -1.861  15.722  0.00  0.00    +0.111 C 
ATOM     17  C   LIG    1       38.776  -1.046  14.489  0.00  0.00    -0.014 C 
ATOM     18  C   LIG    1       37.983  -1.759  13.415  0.00  0.00    +0.012 C 
ATOM     19  C   LIG    1       39.739  -0.035  13.920  0.00  0.00    +0.012 C 
ATOM     20  C   LIG    1       38.051  -0.794  15.798  0.00  0.00    +0.032 C 
BRANCH  20  21
ATOM     21  C   LIG    1       38.275   0.415  16.609  0.00  0.00    -0.023 C 
ATOM     22  C   LIG    1       37.813   1.656  16.353  0.00  0.00    -0.079 C 
ATOM     23  C   LIG    1       38.115   2.806  17.275  0.00  0.00    +0.038 C 
ATOM     24  C   LIG    1       36.980   2.014  15.153  0.00  0.00    +0.038 C 
ENDBRANCH  20  21
ENDBRANCH  14  16
ENDBRANCH  13  14
ENDBRANCH   1  13
TORSDOF 5
ENDMDL
MODEL 9
REMARK VINA RESULT:      -9.5      2.233      8.146
REMARK  Name = 
REMARK                            x       y       z     vdW  Elec       q    Type
REMARK                         _______ _______ _______ _____ _____    ______ ____
ROOT
ATOM      1  C   LIG    1       40.247  -0.318  15.454  0.00  0.00    +0.352 C 
ENDROOT
BRANCH   1   4
ATOM      2  O   LIG    1       38.798   0.727  13.169  0.00  0.00    -0.270 OA
ATOM      3  C   LIG    1       38.793   1.263  14.263  0.00  0.00    +0.252 C 
ATOM      4  N   LIG    1       39.430   0.874  15.397  0.00  0.00    -0.200 N 
ATOM      5  C   LIG    1       39.178   1.747  16.408  0.00  0.00    +0.252 C 
ATOM      6  O   LIG    1       39.557   1.757  17.565  0.00  0.00    -0.270 OA
ATOM      7  C   LIG    1       38.296   2.781  15.857  0.00  0.00    +0.023 C 
ATOM      8  C   LIG    1       37.765   3.932  16.605  0.00  0.00    +0.041 C 
ATOM      9  C   LIG    1       36.806   4.812  15.794  0.00  0.00    +0.005 C 
ATOM     10  C   LIG    1       36.632   4.552  14.285  0.00  0.00    +0.005 C 
ATOM     11  C   LIG    1       37.216   3.273  13.664  0.00  0.00    +0.041 C 
ATOM     12  C   LIG    1       38.062   2.492  14.582  0.00  0.00    +0.023 C 
ENDBRANCH   1   4
BRANCH   1  13
ATOM     13  O   LIG    1       41.614   0.024  15.293  0.00  0.00    -0.444 OA
BRANCH  13  14
ATOM     14  C   LIG    1       42.429  -0.366  16.294  0.00  0.00    +0.313 C 
ATOM     15  O   LIG    1       42.198  -0.260  17.491  0.00  0.00    -0.250 OA
BRANCH  14  16
ATOM     16  C   LIG    1       43.639  -1.009  15.730  0.00  0.00    +0.111 C 
ATOM     17  C   LIG    1       43.961  -2.494  15.759  0.00  0.00    -0.014 C 
ATOM     18  C   LIG    1       44.721  -3.043  14.570  0.00  0.00    +0.012 C 
ATOM     19  C   LIG    1       42.986  -3.492  16.332  0.00  0.00    +0.012 C 
ATOM     20  C   LIG    1       44.724  -1.535  16.655  0.00  0.00    +0.032 C 
BRANCH  20  21
ATOM     21  C   LIG    1       44.528  -1.486  18.114  0.00  0.00    -0.023 C 
ATOM     22  C   LIG    1       45.149  -2.245  19.039  0.00  0.00    -0.079 C 
ATOM     23  C   LIG    1       44.856  -2.086  20.505  0.00  0.00    +0.038 C 
ATOM     24  C   LIG    1       46.166  -3.305  18.713  0.00  0.00    +0.038 C 
ENDBRANCH  20  21
ENDBRANCH  14  16
ENDBRANCH  13  14
ENDBRANCH   1  13
TORSDOF 5
ENDMDL
