MODEL 1
REMARK VINA RESULT:      -7.7      0.000      0.000
REMARK  Name = 
REMARK                            x       y       z     vdW  Elec       q    Type
REMARK                         _______ _______ _______ _____ _____    ______ ____
ROOT
ATOM      1  C   LIG    1       20.259  28.962   9.280  0.00  0.00    +0.352 C 
ENDROOT
BRANCH   1   4
ATOM      2  O   LIG    1       21.348  31.098   7.647  0.00  0.00    -0.270 OA
ATOM      3  C   LIG    1       21.792  29.964   7.643  0.00  0.00    +0.252 C 
ATOM      4  N   LIG    1       21.368  28.887   8.354  0.00  0.00    -0.200 N 
ATOM      5  C   LIG    1       22.124  27.796   8.062  0.00  0.00    +0.252 C 
ATOM      6  O   LIG    1       22.066  26.654   8.478  0.00  0.00    -0.270 OA
ATOM      7  C   LIG    1       23.119  28.229   7.076  0.00  0.00    +0.023 C 
ATOM      8  C   LIG    1       24.152  27.369   6.477  0.00  0.00    +0.041 C 
ATOM      9  C   LIG    1       25.106  28.108   5.531  0.00  0.00    +0.005 C 
ATOM     10  C   LIG    1       24.810  29.571   5.147  0.00  0.00    +0.005 C 
ATOM     11  C   LIG    1       23.719  30.347   5.903  0.00  0.00    +0.041 C 
ATOM     12  C   LIG    1       22.927  29.520   6.829  0.00  0.00    +0.023 C 
ENDBRANCH   1   4
BRANCH   1  13
ATOM     13  O   LIG    1       20.720  29.379  10.554  0.00  0.00    -0.444 OA
BRANCH  13  14
ATOM     14  C   LIG    1       20.475  28.522  11.567  0.00  0.00    +0.313 C 
ATOM     15  O   LIG    1       20.695  27.319  11.557  0.00  0.00    -0.250 OA
BRANCH  14  16
ATOM     16  C   LIG    1       19.949  29.267  12.734  0.00  0.00    +0.111 C 
ATOM     17  C   LIG    1       18.800  28.834  13.630  0.00  0.00    -0.014 C 
ATOM     18  C   LIG    1       18.899  29.224  15.089  0.00  0.00    +0.012 C 
ATOM     19  C   LIG    1       18.117  27.504  13.432  0.00  0.00    +0.012 C 
ATOM     20  C   LIG    1       18.606  29.973  12.645  0.00  0.00    +0.032 C 
BRANCH  20  21
ATOM     21  C   LIG    1       17.789  29.838  11.427  0.00  0.00    -0.023 C 
ATOM     22  C   LIG    1       17.121  30.822  10.790  0.00  0.00    -0.079 C 
ATOM     23  C   LIG    1       16.325  30.544   9.544  0.00  0.00    +0.038 C 
ATOM     24  C   LIG    1       17.097  32.255  11.246  0.00  0.00    +0.038 C 
ENDBRANCH  20  21
ENDBRANCH  14  16
ENDBRANCH  13  14
ENDBRANCH   1  13
TORSDOF 5
ENDMDL
MODEL 2
REMARK VINA RESULT:      -7.7      1.566      3.804
REMARK  Name = 
REMARK                            x       y       z     vdW  Elec       q    Type
REMARK                         _______ _______ _______ _____ _____    ______ ____
ROOT
ATOM      1  C   LIG    1       21.500  27.905   7.872  0.00  0.00    +0.352 C 
ENDROOT
BRANCH   1   4
ATOM      2  O   LIG    1       24.077  26.600   8.141  0.00  0.00    -0.270 OA
ATOM      3  C   LIG    1       23.922  27.655   7.551  0.00  0.00    +0.252 C 
ATOM      4  N   LIG    1       22.776  28.359   7.364  0.00  0.00    -0.200 N 
ATOM      5  C   LIG    1       23.024  29.493   6.657  0.00  0.00    +0.252 C 
ATOM      6  O   LIG    1       22.277  30.380   6.289  0.00  0.00    -0.270 OA
ATOM      7  C   LIG    1       24.462  29.501   6.371  0.00  0.00    +0.023 C 
ATOM      8  C   LIG    1       25.173  30.548   5.620  0.00  0.00    +0.041 C 
ATOM      9  C   LIG    1       26.663  30.259   5.407  0.00  0.00    +0.005 C 
ATOM     10  C   LIG    1       27.311  29.056   6.121  0.00  0.00    +0.005 C 
ATOM     11  C   LIG    1       26.418  28.024   6.829  0.00  0.00    +0.041 C 
ATOM     12  C   LIG    1       24.998  28.406   6.898  0.00  0.00    +0.023 C 
ENDBRANCH   1   4
BRANCH   1  13
ATOM     13  O   LIG    1       21.188  28.586   9.075  0.00  0.00    -0.444 OA
BRANCH  13  14
ATOM     14  C   LIG    1       20.071  29.343   9.039  0.00  0.00    +0.313 C 
ATOM     15  O   LIG    1       20.034  30.563   8.962  0.00  0.00    -0.250 OA
BRANCH  14  16
ATOM     16  C   LIG    1       18.876  28.468   9.045  0.00  0.00    +0.111 C 
ATOM     17  C   LIG    1       17.438  28.917   9.244  0.00  0.00    -0.014 C 
ATOM     18  C   LIG    1       16.378  28.141   8.493  0.00  0.00    +0.012 C 
ATOM     19  C   LIG    1       17.091  30.378   9.387  0.00  0.00    +0.012 C 
ATOM     20  C   LIG    1       18.158  28.168  10.350  0.00  0.00    +0.032 C 
BRANCH  20  21
ATOM     21  C   LIG    1       18.600  28.820  11.594  0.00  0.00    -0.023 C 
ATOM     22  C   LIG    1       18.603  28.283  12.831  0.00  0.00    -0.079 C 
ATOM     23  C   LIG    1       19.090  29.065  14.021  0.00  0.00    +0.038 C 
ATOM     24  C   LIG    1       18.128  26.891  13.146  0.00  0.00    +0.038 C 
ENDBRANCH  20  21
ENDBRANCH  14  16
ENDBRANCH  13  14
ENDBRANCH   1  13
TORSDOF 5
ENDMDL
MODEL 3
REMARK VINA RESULT:      -7.7      0.651      1.951
REMARK  Name = 
REMARK                            x       y       z     vdW  Elec       q    Type
REMARK                         _______ _______ _______ _____ _____    ______ ____
ROOT
ATOM      1  C   LIG    1       20.285  28.749   9.418  0.00  0.00    +0.352 C 
ENDROOT
BRANCH   1   4
ATOM      2  O   LIG    1       22.043  26.608   8.558  0.00  0.00    -0.270 OA
ATOM      3  C   LIG    1       22.106  27.740   8.115  0.00  0.00    +0.252 C 
ATOM      4  N   LIG    1       21.348  28.819   8.440  0.00  0.00    -0.200 N 
ATOM      5  C   LIG    1       21.738  29.908   7.726  0.00  0.00    +0.252 C 
ATOM      6  O   LIG    1       21.320  31.051   7.726  0.00  0.00    -0.270 OA
ATOM      7  C   LIG    1       22.845  29.471   6.870  0.00  0.00    +0.023 C 
ATOM      8  C   LIG    1       23.575  30.328   5.921  0.00  0.00    +0.041 C 
ATOM      9  C   LIG    1       24.637  29.586   5.102  0.00  0.00    +0.005 C 
ATOM     10  C   LIG    1       24.976  28.123   5.449  0.00  0.00    +0.005 C 
ATOM     11  C   LIG    1       24.083  27.351   6.434  0.00  0.00    +0.041 C 
ATOM     12  C   LIG    1       23.063  28.181   7.096  0.00  0.00    +0.023 C 
ENDBRANCH   1   4
BRANCH   1  13
ATOM     13  O   LIG    1       20.766  29.160  10.687  0.00  0.00    -0.444 OA
BRANCH  13  14
ATOM     14  C   LIG    1       20.555  28.289  11.695  0.00  0.00    +0.313 C 
ATOM     15  O   LIG    1       20.527  27.070  11.597  0.00  0.00    -0.250 OA
BRANCH  14  16
ATOM     16  C   LIG    1       20.421  29.029  12.972  0.00  0.00    +0.111 C 
ATOM     17  C   LIG    1       19.265  28.918  13.954  0.00  0.00    -0.014 C 
ATOM     18  C   LIG    1       19.608  29.076  15.419  0.00  0.00    +0.012 C 
ATOM     19  C   LIG    1       18.140  27.939  13.726  0.00  0.00    +0.012 C 
ATOM     20  C   LIG    1       19.414  30.160  13.094  0.00  0.00    +0.032 C 
BRANCH  20  21
ATOM     21  C   LIG    1       18.511  30.460  11.970  0.00  0.00    -0.023 C 
ATOM     22  C   LIG    1       17.406  31.232  12.005  0.00  0.00    -0.079 C 
ATOM     23  C   LIG    1       16.574  31.460  10.773  0.00  0.00    +0.038 C 
ATOM     24  C   LIG    1       16.900  31.922  13.242  0.00  0.00    +0.038 C 
ENDBRANCH  20  21
ENDBRANCH  14  16
ENDBRANCH  13  14
ENDBRANCH   1  13
TORSDOF 5
ENDMDL
MODEL 4
REMARK VINA RESULT:      -7.7      2.108      7.715
REMARK  Name = 
REMARK                            x       y       z     vdW  Elec       q    Type
REMARK                         _______ _______ _______ _____ _____    ______ ____
ROOT
ATOM      1  C   LIG    1       19.852  27.814   8.955  0.00  0.00    +0.352 C 
ENDROOT
BRANCH   1   4
ATOM      2  O   LIG    1       20.060  29.854  11.007  0.00  0.00    -0.270 OA
ATOM      3  C   LIG    1       19.077  29.716  10.302  0.00  0.00    +0.252 C 
ATOM      4  N   LIG    1       18.862  28.804   9.319  0.00  0.00    -0.200 N 
ATOM      5  C   LIG    1       17.631  28.976   8.770  0.00  0.00    +0.252 C 
ATOM      6  O   LIG    1       17.066  28.371   7.878  0.00  0.00    -0.270 OA
ATOM      7  C   LIG    1       17.015  30.106   9.473  0.00  0.00    +0.023 C 
ATOM      8  C   LIG    1       15.673  30.645   9.201  0.00  0.00    +0.041 C 
ATOM      9  C   LIG    1       15.316  31.879  10.039  0.00  0.00    +0.005 C 
ATOM     10  C   LIG    1       16.258  32.320  11.177  0.00  0.00    +0.005 C 
ATOM     11  C   LIG    1       17.652  31.682  11.297  0.00  0.00    +0.041 C 
ATOM     12  C   LIG    1       17.875  30.551  10.382  0.00  0.00    +0.023 C 
ENDBRANCH   1   4
BRANCH   1  13
ATOM     13  O   LIG    1       20.697  28.325   7.938  0.00  0.00    -0.444 OA
BRANCH  13  14
ATOM     14  C   LIG    1       22.005  28.019   8.063  0.00  0.00    +0.313 C 
ATOM     15  O   LIG    1       22.458  27.011   8.587  0.00  0.00    -0.250 OA
BRANCH  14  16
ATOM     16  C   LIG    1       22.826  29.064   7.410  0.00  0.00    +0.111 C 
ATOM     17  C   LIG    1       23.103  29.185   5.920  0.00  0.00    -0.014 C 
ATOM     18  C   LIG    1       23.246  30.588   5.372  0.00  0.00    +0.012 C 
ATOM     19  C   LIG    1       22.469  28.240   4.930  0.00  0.00    +0.012 C 
ATOM     20  C   LIG    1       24.201  28.720   6.860  0.00  0.00    +0.032 C 
BRANCH  20  21
ATOM     21  C   LIG    1       24.675  27.326   6.899  0.00  0.00    -0.023 C 
ATOM     22  C   LIG    1       25.796  26.870   7.496  0.00  0.00    -0.079 C 
ATOM     23  C   LIG    1       26.160  25.411   7.463  0.00  0.00    +0.038 C 
ATOM     24  C   LIG    1       26.774  27.746   8.230  0.00  0.00    +0.038 C 
ENDBRANCH  20  21
ENDBRANCH  14  16
ENDBRANCH  13  14
ENDBRANCH   1  13
TORSDOF 5
ENDMDL
MODEL 5
REMARK VINA RESULT:      -7.7      1.597      3.386
REMARK  Name = 
REMARK                            x       y       z     vdW  Elec       q    Type
REMARK                         _______ _______ _______ _____ _____    ______ ____
ROOT
ATOM      1  C   LIG    1       21.487  27.926   7.828  0.00  0.00    +0.352 C 
ENDROOT
BRANCH   1   4
ATOM      2  O   LIG    1       22.295  30.296   6.363  0.00  0.00    -0.270 OA
ATOM      3  C   LIG    1       23.077  29.432   6.715  0.00  0.00    +0.252 C 
ATOM      4  N   LIG    1       22.821  28.285   7.396  0.00  0.00    -0.200 N 
ATOM      5  C   LIG    1       23.966  27.580   7.590  0.00  0.00    +0.252 C 
ATOM      6  O   LIG    1       24.159  26.514   8.146  0.00  0.00    -0.270 OA
ATOM      7  C   LIG    1       25.045  28.358   6.975  0.00  0.00    +0.023 C 
ATOM      8  C   LIG    1       26.465  27.970   6.951  0.00  0.00    +0.041 C 
ATOM      9  C   LIG    1       27.384  29.013   6.304  0.00  0.00    +0.005 C 
ATOM     10  C   LIG    1       26.764  30.233   5.595  0.00  0.00    +0.005 C 
ATOM     11  C   LIG    1       25.263  30.523   5.757  0.00  0.00    +0.041 C 
ATOM     12  C   LIG    1       24.520  29.463   6.458  0.00  0.00    +0.023 C 
ENDBRANCH   1   4
BRANCH   1  13
ATOM     13  O   LIG    1       21.187  28.569   9.055  0.00  0.00    -0.444 OA
BRANCH  13  14
ATOM     14  C   LIG    1       20.077  29.336   9.050  0.00  0.00    +0.313 C 
ATOM     15  O   LIG    1       20.050  30.558   8.997  0.00  0.00    -0.250 OA
BRANCH  14  16
ATOM     16  C   LIG    1       18.874  28.471   9.057  0.00  0.00    +0.111 C 
ATOM     17  C   LIG    1       17.439  28.934   9.254  0.00  0.00    -0.014 C 
ATOM     18  C   LIG    1       16.373  28.165   8.504  0.00  0.00    +0.012 C 
ATOM     19  C   LIG    1       17.105  30.399   9.394  0.00  0.00    +0.012 C 
ATOM     20  C   LIG    1       18.152  28.181  10.363  0.00  0.00    +0.032 C 
BRANCH  20  21
ATOM     21  C   LIG    1       18.599  28.832  11.605  0.00  0.00    -0.023 C 
ATOM     22  C   LIG    1       18.605  28.295  12.842  0.00  0.00    -0.079 C 
ATOM     23  C   LIG    1       19.096  29.075  14.031  0.00  0.00    +0.038 C 
ATOM     24  C   LIG    1       18.129  26.903  13.158  0.00  0.00    +0.038 C 
ENDBRANCH  20  21
ENDBRANCH  14  16
ENDBRANCH  13  14
ENDBRANCH   1  13
TORSDOF 5
ENDMDL
MODEL 6
REMARK VINA RESULT:      -7.6      1.937      7.743
REMARK  Name = 
REMARK                            x       y       z     vdW  Elec       q    Type
REMARK                         _______ _______ _______ _____ _____    ______ ____
ROOT
ATOM      1  C   LIG    1       20.563  28.356   9.924  0.00  0.00    +0.352 C 
ENDROOT
BRANCH   1   4
ATOM      2  O   LIG    1       18.168  28.656   8.313  0.00  0.00    -0.270 OA
ATOM      3  C   LIG    1       18.366  29.286   9.336  0.00  0.00    +0.252 C 
ATOM      4  N   LIG    1       19.440  29.236  10.166  0.00  0.00    -0.200 N 
ATOM      5  C   LIG    1       19.284  30.103  11.201  0.00  0.00    +0.252 C 
ATOM      6  O   LIG    1       20.011  30.356  12.144  0.00  0.00    -0.270 OA
ATOM      7  C   LIG    1       17.987  30.758  11.004  0.00  0.00    +0.023 C 
ATOM      8  C   LIG    1       17.405  31.775  11.895  0.00  0.00    +0.041 C 
ATOM      9  C   LIG    1       16.000  32.232  11.484  0.00  0.00    +0.005 C 
ATOM     10  C   LIG    1       15.414  31.762  10.138  0.00  0.00    +0.005 C 
ATOM     11  C   LIG    1       16.127  30.654   9.346  0.00  0.00    +0.041 C 
ATOM     12  C   LIG    1       17.437  30.270   9.898  0.00  0.00    +0.023 C 
ENDBRANCH   1   4
BRANCH   1  13
ATOM     13  O   LIG    1       21.568  29.042   9.197  0.00  0.00    -0.444 OA
BRANCH  13  14
ATOM     14  C   LIG    1       21.770  28.606   7.936  0.00  0.00    +0.313 C 
ATOM     15  O   LIG    1       21.223  27.645   7.413  0.00  0.00    -0.250 OA
BRANCH  14  16
ATOM     16  C   LIG    1       22.720  29.507   7.243  0.00  0.00    +0.111 C 
ATOM     17  C   LIG    1       23.194  29.374   5.805  0.00  0.00    -0.014 C 
ATOM     18  C   LIG    1       23.474  30.665   5.066  0.00  0.00    +0.012 C 
ATOM     19  C   LIG    1       22.648  28.297   4.901  0.00  0.00    +0.012 C 
ATOM     20  C   LIG    1       24.135  29.040   6.948  0.00  0.00    +0.032 C 
BRANCH  20  21
ATOM     21  C   LIG    1       24.532  27.660   7.272  0.00  0.00    -0.023 C 
ATOM     22  C   LIG    1       25.725  27.254   7.755  0.00  0.00    -0.079 C 
ATOM     23  C   LIG    1       25.996  25.805   8.049  0.00  0.00    +0.038 C 
ATOM     24  C   LIG    1       26.878  28.179   8.037  0.00  0.00    +0.038 C 
ENDBRANCH  20  21
ENDBRANCH  14  16
ENDBRANCH  13  14
ENDBRANCH   1  13
TORSDOF 5
ENDMDL
MODEL 7
REMARK VINA RESULT:      -7.4      2.253      3.649
REMARK  Name = 
REMARK                            x       y       z     vdW  Elec       q    Type
REMARK                         _______ _______ _______ _____ _____    ______ ____
ROOT
ATOM      1  C   LIG    1       22.632  27.830   6.571  0.00  0.00    +0.352 C 
ENDROOT
BRANCH   1   4
ATOM      2  O   LIG    1       24.717  26.437   8.030  0.00  0.00    -0.270 OA
ATOM      3  C   LIG    1       24.873  27.538   7.534  0.00  0.00    +0.252 C 
ATOM      4  N   LIG    1       23.979  28.287   6.838  0.00  0.00    -0.200 N 
ATOM      5  C   LIG    1       24.539  29.465   6.457  0.00  0.00    +0.252 C 
ATOM      6  O   LIG    1       24.076  30.400   5.829  0.00  0.00    -0.270 OA
ATOM      7  C   LIG    1       25.916  29.455   6.960  0.00  0.00    +0.023 C 
ATOM      8  C   LIG    1       26.895  30.538   6.775  0.00  0.00    +0.041 C 
ATOM      9  C   LIG    1       28.285  30.224   7.343  0.00  0.00    +0.005 C 
ATOM     10  C   LIG    1       28.488  28.952   8.189  0.00  0.00    +0.005 C 
ATOM     11  C   LIG    1       27.375  27.893   8.244  0.00  0.00    +0.041 C 
ATOM     12  C   LIG    1       26.119  28.308   7.597  0.00  0.00    +0.023 C 
ENDBRANCH   1   4
BRANCH   1  13
ATOM     13  O   LIG    1       21.715  28.517   7.405  0.00  0.00    -0.444 OA
BRANCH  13  14
ATOM     14  C   LIG    1       21.379  27.878   8.545  0.00  0.00    +0.313 C 
ATOM     15  O   LIG    1       21.343  26.665   8.703  0.00  0.00    -0.250 OA
BRANCH  14  16
ATOM     16  C   LIG    1       21.114  28.870   9.613  0.00  0.00    +0.111 C 
ATOM     17  C   LIG    1       20.386  28.605  10.921  0.00  0.00    -0.014 C 
ATOM     18  C   LIG    1       20.856  29.391  12.126  0.00  0.00    +0.012 C 
ATOM     19  C   LIG    1       19.914  27.219  11.283  0.00  0.00    +0.012 C 
ATOM     20  C   LIG    1       19.708  29.406   9.824  0.00  0.00    +0.032 C 
BRANCH  20  21
ATOM     21  C   LIG    1       18.595  28.870   9.022  0.00  0.00    -0.023 C 
ATOM     22  C   LIG    1       17.336  29.352   8.965  0.00  0.00    -0.079 C 
ATOM     23  C   LIG    1       16.292  28.707   8.095  0.00  0.00    +0.038 C 
ATOM     24  C   LIG    1       16.855  30.545   9.745  0.00  0.00    +0.038 C 
ENDBRANCH  20  21
ENDBRANCH  14  16
ENDBRANCH  13  14
ENDBRANCH   1  13
TORSDOF 5
ENDMDL
MODEL 8
REMARK VINA RESULT:      -7.2      1.512      2.592
REMARK  Name = 
REMARK                            x       y       z     vdW  Elec       q    Type
REMARK                         _______ _______ _______ _____ _____    ______ ____
ROOT
ATOM      1  C   LIG    1       21.478  28.130   8.994  0.00  0.00    +0.352 C 
ENDROOT
BRANCH   1   4
ATOM      2  O   LIG    1       23.696  26.670   7.828  0.00  0.00    -0.270 OA
ATOM      3  C   LIG    1       23.337  27.763   7.431  0.00  0.00    +0.252 C 
ATOM      4  N   LIG    1       22.324  28.540   7.894  0.00  0.00    -0.200 N 
ATOM      5  C   LIG    1       22.248  29.697   7.185  0.00  0.00    +0.252 C 
ATOM      6  O   LIG    1       21.491  30.645   7.287  0.00  0.00    -0.270 OA
ATOM      7  C   LIG    1       23.313  29.640   6.179  0.00  0.00    +0.023 C 
ATOM      8  C   LIG    1       23.599  30.688   5.185  0.00  0.00    +0.041 C 
ATOM      9  C   LIG    1       24.725  30.327   4.208  0.00  0.00    +0.005 C 
ATOM     10  C   LIG    1       25.556  29.051   4.447  0.00  0.00    +0.005 C 
ATOM     11  C   LIG    1       25.094  28.032   5.501  0.00  0.00    +0.041 C 
ATOM     12  C   LIG    1       23.959  28.489   6.320  0.00  0.00    +0.023 C 
ENDBRANCH   1   4
BRANCH   1  13
ATOM     13  O   LIG    1       20.208  27.731   8.505  0.00  0.00    -0.444 OA
BRANCH  13  14
ATOM     14  C   LIG    1       19.150  28.344   9.074  0.00  0.00    +0.313 C 
ATOM     15  O   LIG    1       17.974  28.055   8.899  0.00  0.00    -0.250 OA
BRANCH  14  16
ATOM     16  C   LIG    1       19.624  29.395  10.005  0.00  0.00    +0.111 C 
ATOM     17  C   LIG    1       19.140  29.615  11.429  0.00  0.00    -0.014 C 
ATOM     18  C   LIG    1       20.166  30.125  12.418  0.00  0.00    +0.012 C 
ATOM     19  C   LIG    1       18.138  28.684  12.064  0.00  0.00    +0.012 C 
ATOM     20  C   LIG    1       18.731  30.581  10.332  0.00  0.00    +0.032 C 
BRANCH  20  21
ATOM     21  C   LIG    1       17.363  30.637   9.792  0.00  0.00    -0.023 C 
ATOM     22  C   LIG    1       16.343  31.391  10.250  0.00  0.00    -0.079 C 
ATOM     23  C   LIG    1       14.989  31.354   9.597  0.00  0.00    +0.038 C 
ATOM     24  C   LIG    1       16.446  32.317  11.432  0.00  0.00    +0.038 C 
ENDBRANCH  20  21
ENDBRANCH  14  16
ENDBRANCH  13  14
ENDBRANCH   1  13
TORSDOF 5
ENDMDL
MODEL 9
REMARK VINA RESULT:      -7.2      1.861      2.528
REMARK  Name = 
REMARK                            x       y       z     vdW  Elec       q    Type
REMARK                         _______ _______ _______ _____ _____    ______ ____
ROOT
ATOM      1  C   LIG    1       21.954  27.903   7.007  0.00  0.00    +0.352 C 
ENDROOT
BRANCH   1   4
ATOM      2  O   LIG    1       22.974  30.351   5.829  0.00  0.00    -0.270 OA
ATOM      3  C   LIG    1       23.687  29.522   6.366  0.00  0.00    +0.252 C 
ATOM      4  N   LIG    1       23.330  28.346   6.944  0.00  0.00    -0.200 N 
ATOM      5  C   LIG    1       24.424  27.700   7.425  0.00  0.00    +0.252 C 
ATOM      6  O   LIG    1       24.529  26.633   8.001  0.00  0.00    -0.270 OA
ATOM      7  C   LIG    1       25.578  28.552   7.123  0.00  0.00    +0.023 C 
ATOM      8  C   LIG    1       26.976  28.243   7.469  0.00  0.00    +0.041 C 
ATOM      9  C   LIG    1       27.968  29.352   7.097  0.00  0.00    +0.005 C 
ATOM     10  C   LIG    1       27.484  30.553   6.261  0.00  0.00    +0.005 C 
ATOM     11  C   LIG    1       25.978  30.756   6.026  0.00  0.00    +0.041 C 
ATOM     12  C   LIG    1       25.142  29.639   6.497  0.00  0.00    +0.023 C 
ENDBRANCH   1   4
BRANCH   1  13
ATOM     13  O   LIG    1       21.253  28.640   7.994  0.00  0.00    -0.444 OA
BRANCH  13  14
ATOM     14  C   LIG    1       21.058  27.998   9.165  0.00  0.00    +0.313 C 
ATOM     15  O   LIG    1       21.156  26.792   9.347  0.00  0.00    -0.250 OA
BRANCH  14  16
ATOM     16  C   LIG    1       20.764  28.984  10.231  0.00  0.00    +0.111 C 
ATOM     17  C   LIG    1       19.763  28.808  11.362  0.00  0.00    -0.014 C 
ATOM     18  C   LIG    1       20.118  29.456  12.683  0.00  0.00    +0.012 C 
ATOM     19  C   LIG    1       19.004  27.517  11.537  0.00  0.00    +0.012 C 
ATOM     20  C   LIG    1       19.454  29.754  10.215  0.00  0.00    +0.032 C 
BRANCH  20  21
ATOM     21  C   LIG    1       18.442  29.453   9.189  0.00  0.00    -0.023 C 
ATOM     22  C   LIG    1       17.187  29.945   9.122  0.00  0.00    -0.079 C 
ATOM     23  C   LIG    1       16.254  29.556   8.009  0.00  0.00    +0.038 C 
ATOM     24  C   LIG    1       16.604  30.902  10.126  0.00  0.00    +0.038 C 
ENDBRANCH  20  21
ENDBRANCH  14  16
ENDBRANCH  13  14
ENDBRANCH   1  13
TORSDOF 5
ENDMDL
