MODEL 1
REMARK VINA RESULT:      -8.5      0.000      0.000
REMARK  Name = 
REMARK                            x       y       z     vdW  Elec       q    Type
REMARK                         _______ _______ _______ _____ _____    ______ ____
ROOT
ATOM      1  C   LIG    1       33.435  -3.683  23.229  0.00  0.00    +0.352 C 
ENDROOT
BRANCH   1   4
ATOM      2  O   LIG    1       31.077  -3.692  21.539  0.00  0.00    -0.270 OA
ATOM      3  C   LIG    1       32.177  -3.348  21.146  0.00  0.00    +0.252 C 
ATOM      4  N   LIG    1       33.347  -3.305  21.835  0.00  0.00    -0.200 N 
ATOM      5  C   LIG    1       34.356  -2.870  21.035  0.00  0.00    +0.252 C 
ATOM      6  O   LIG    1       35.538  -2.697  21.269  0.00  0.00    -0.270 OA
ATOM      7  C   LIG    1       33.763  -2.613  19.719  0.00  0.00    +0.023 C 
ATOM      8  C   LIG    1       34.495  -2.122  18.540  0.00  0.00    +0.041 C 
ATOM      9  C   LIG    1       33.606  -1.871  17.316  0.00  0.00    +0.005 C 
ATOM     10  C   LIG    1       32.129  -2.311  17.350  0.00  0.00    +0.005 C 
ATOM     11  C   LIG    1       31.502  -2.760  18.679  0.00  0.00    +0.041 C 
ATOM     12  C   LIG    1       32.466  -2.892  19.783  0.00  0.00    +0.023 C 
ENDBRANCH   1   4
BRANCH   1  13
ATOM     13  O   LIG    1       33.481  -2.523  24.042  0.00  0.00    -0.444 OA
BRANCH  13  14
ATOM     14  C   LIG    1       32.548  -2.459  25.014  0.00  0.00    +0.313 C 
ATOM     15  O   LIG    1       32.154  -3.398  25.693  0.00  0.00    -0.250 OA
BRANCH  14  16
ATOM     16  C   LIG    1       32.103  -1.057  25.188  0.00  0.00    +0.111 C 
ATOM     17  C   LIG    1       32.362  -0.179  26.402  0.00  0.00    -0.014 C 
ATOM     18  C   LIG    1       32.553   1.299  26.137  0.00  0.00    +0.012 C 
ATOM     19  C   LIG    1       33.200  -0.672  27.555  0.00  0.00    +0.012 C 
ATOM     20  C   LIG    1       30.971  -0.730  26.147  0.00  0.00    +0.032 C 
BRANCH  20  21
ATOM     21  C   LIG    1       30.378  -1.798  26.969  0.00  0.00    -0.023 C 
ATOM     22  C   LIG    1       29.064  -2.025  27.174  0.00  0.00    -0.079 C 
ATOM     23  C   LIG    1       28.594  -3.163  28.038  0.00  0.00    +0.038 C 
ATOM     24  C   LIG    1       27.963  -1.187  26.584  0.00  0.00    +0.038 C 
ENDBRANCH  20  21
ENDBRANCH  14  16
ENDBRANCH  13  14
ENDBRANCH   1  13
TORSDOF 5
ENDMDL
MODEL 2
REMARK VINA RESULT:      -8.4      1.015      2.712
REMARK  Name = 
REMARK                            x       y       z     vdW  Elec       q    Type
REMARK                         _______ _______ _______ _____ _____    ______ ____
ROOT
ATOM      1  C   LIG    1       32.977  -3.685  23.159  0.00  0.00    +0.352 C 
ENDROOT
BRANCH   1   4
ATOM      2  O   LIG    1       30.861  -3.492  21.184  0.00  0.00    -0.270 OA
ATOM      3  C   LIG    1       32.026  -3.239  20.939  0.00  0.00    +0.252 C 
ATOM      4  N   LIG    1       33.098  -3.296  21.771  0.00  0.00    -0.200 N 
ATOM      5  C   LIG    1       34.233  -2.943  21.112  0.00  0.00    +0.252 C 
ATOM      6  O   LIG    1       35.385  -2.870  21.495  0.00  0.00    -0.270 OA
ATOM      7  C   LIG    1       33.836  -2.633  19.735  0.00  0.00    +0.023 C 
ATOM      8  C   LIG    1       34.750  -2.200  18.665  0.00  0.00    +0.041 C 
ATOM      9  C   LIG    1       34.047  -1.871  17.342  0.00  0.00    +0.005 C 
ATOM     10  C   LIG    1       32.547  -2.187  17.182  0.00  0.00    +0.005 C 
ATOM     11  C   LIG    1       31.721  -2.588  18.415  0.00  0.00    +0.041 C 
ATOM     12  C   LIG    1       32.523  -2.803  19.630  0.00  0.00    +0.023 C 
ENDBRANCH   1   4
BRANCH   1  13
ATOM     13  O   LIG    1       33.178  -2.559  23.996  0.00  0.00    -0.444 OA
BRANCH  13  14
ATOM     14  C   LIG    1       32.056  -1.910  24.373  0.00  0.00    +0.313 C 
ATOM     15  O   LIG    1       31.372  -1.187  23.662  0.00  0.00    -0.250 OA
BRANCH  14  16
ATOM     16  C   LIG    1       31.731  -2.252  25.778  0.00  0.00    +0.111 C 
ATOM     17  C   LIG    1       30.705  -1.553  26.655  0.00  0.00    -0.014 C 
ATOM     18  C   LIG    1       29.974  -2.418  27.658  0.00  0.00    +0.012 C 
ATOM     19  C   LIG    1       29.841  -0.443  26.110  0.00  0.00    +0.012 C 
ATOM     20  C   LIG    1       32.188  -1.344  26.907  0.00  0.00    +0.032 C 
BRANCH  20  21
ATOM     21  C   LIG    1       32.875  -0.079  26.596  0.00  0.00    -0.023 C 
ATOM     22  C   LIG    1       32.955   1.012  27.384  0.00  0.00    -0.079 C 
ATOM     23  C   LIG    1       33.699   2.242  26.942  0.00  0.00    +0.038 C 
ATOM     24  C   LIG    1       32.323   1.116  28.746  0.00  0.00    +0.038 C 
ENDBRANCH  20  21
ENDBRANCH  14  16
ENDBRANCH  13  14
ENDBRANCH   1  13
TORSDOF 5
ENDMDL
MODEL 3
REMARK VINA RESULT:      -8.4      0.939      2.079
REMARK  Name = 
REMARK                            x       y       z     vdW  Elec       q    Type
REMARK                         _______ _______ _______ _____ _____    ______ ____
ROOT
ATOM      1  C   LIG    1       32.840  -3.477  23.167  0.00  0.00    +0.352 C 
ENDROOT
BRANCH   1   4
ATOM      2  O   LIG    1       35.189  -2.910  21.562  0.00  0.00    -0.270 OA
ATOM      3  C   LIG    1       34.064  -2.960  21.101  0.00  0.00    +0.252 C 
ATOM      4  N   LIG    1       32.895  -3.210  21.746  0.00  0.00    -0.200 N 
ATOM      5  C   LIG    1       31.852  -3.170  20.876  0.00  0.00    +0.252 C 
ATOM      6  O   LIG    1       30.660  -3.336  21.055  0.00  0.00    -0.270 OA
ATOM      7  C   LIG    1       32.420  -2.869  19.558  0.00  0.00    +0.023 C 
ATOM      8  C   LIG    1       31.648  -2.734  18.312  0.00  0.00    +0.041 C 
ATOM      9  C   LIG    1       32.512  -2.490  17.068  0.00  0.00    +0.005 C 
ATOM     10  C   LIG    1       34.021  -2.226  17.234  0.00  0.00    +0.005 C 
ATOM     11  C   LIG    1       34.685  -2.456  18.602  0.00  0.00    +0.041 C 
ATOM     12  C   LIG    1       33.736  -2.748  19.688  0.00  0.00    +0.023 C 
ENDBRANCH   1   4
BRANCH   1  13
ATOM     13  O   LIG    1       32.204  -2.403  23.837  0.00  0.00    -0.444 OA
BRANCH  13  14
ATOM     14  C   LIG    1       32.408  -2.350  25.170  0.00  0.00    +0.313 C 
ATOM     15  O   LIG    1       32.592  -3.310  25.906  0.00  0.00    -0.250 OA
BRANCH  14  16
ATOM     16  C   LIG    1       32.439  -0.937  25.614  0.00  0.00    +0.111 C 
ATOM     17  C   LIG    1       32.257  -0.441  27.039  0.00  0.00    -0.014 C 
ATOM     18  C   LIG    1       33.040   0.793  27.430  0.00  0.00    +0.012 C 
ATOM     19  C   LIG    1       32.093  -1.408  28.185  0.00  0.00    +0.012 C 
ATOM     20  C   LIG    1       31.152  -0.237  26.018  0.00  0.00    +0.032 C 
BRANCH  20  21
ATOM     21  C   LIG    1       29.889  -0.993  26.052  0.00  0.00    -0.023 C 
ATOM     22  C   LIG    1       28.677  -0.525  26.416  0.00  0.00    -0.079 C 
ATOM     23  C   LIG    1       27.462  -1.411  26.400  0.00  0.00    +0.038 C 
ATOM     24  C   LIG    1       28.421   0.886  26.870  0.00  0.00    +0.038 C 
ENDBRANCH  20  21
ENDBRANCH  14  16
ENDBRANCH  13  14
ENDBRANCH   1  13
TORSDOF 5
ENDMDL
MODEL 4
REMARK VINA RESULT:      -8.4      1.028      3.253
REMARK  Name = 
REMARK                            x       y       z     vdW  Elec       q    Type
REMARK                         _______ _______ _______ _____ _____    ______ ____
ROOT
ATOM      1  C   LIG    1       33.006  -3.664  23.202  0.00  0.00    +0.352 C 
ENDROOT
BRANCH   1   4
ATOM      2  O   LIG    1       35.301  -2.923  21.589  0.00  0.00    -0.270 OA
ATOM      3  C   LIG    1       34.166  -2.974  21.150  0.00  0.00    +0.252 C 
ATOM      4  N   LIG    1       33.020  -3.300  21.801  0.00  0.00    -0.200 N 
ATOM      5  C   LIG    1       31.957  -3.233  20.958  0.00  0.00    +0.252 C 
ATOM      6  O   LIG    1       30.774  -3.445  21.151  0.00  0.00    -0.270 OA
ATOM      7  C   LIG    1       32.485  -2.828  19.652  0.00  0.00    +0.023 C 
ATOM      8  C   LIG    1       31.681  -2.632  18.434  0.00  0.00    +0.041 C 
ATOM      9  C   LIG    1       32.508  -2.281  17.192  0.00  0.00    +0.005 C 
ATOM     10  C   LIG    1       34.013  -1.985  17.343  0.00  0.00    +0.005 C 
ATOM     11  C   LIG    1       34.715  -2.286  18.678  0.00  0.00    +0.041 C 
ATOM     12  C   LIG    1       33.800  -2.678  19.762  0.00  0.00    +0.023 C 
ENDBRANCH   1   4
BRANCH   1  13
ATOM     13  O   LIG    1       33.183  -2.508  24.003  0.00  0.00    -0.444 OA
BRANCH  13  14
ATOM     14  C   LIG    1       32.047  -1.883  24.377  0.00  0.00    +0.313 C 
ATOM     15  O   LIG    1       31.355  -1.168  23.665  0.00  0.00    -0.250 OA
BRANCH  14  16
ATOM     16  C   LIG    1       31.718  -2.241  25.776  0.00  0.00    +0.111 C 
ATOM     17  C   LIG    1       30.695  -1.547  26.661  0.00  0.00    -0.014 C 
ATOM     18  C   LIG    1       29.958  -2.422  27.652  0.00  0.00    +0.012 C 
ATOM     19  C   LIG    1       29.838  -0.426  26.130  0.00  0.00    +0.012 C 
ATOM     20  C   LIG    1       32.178  -1.350  26.918  0.00  0.00    +0.032 C 
BRANCH  20  21
ATOM     21  C   LIG    1       32.874  -0.086  26.624  0.00  0.00    -0.023 C 
ATOM     22  C   LIG    1       32.946   1.001  27.420  0.00  0.00    -0.079 C 
ATOM     23  C   LIG    1       33.699   2.231  26.995  0.00  0.00    +0.038 C 
ATOM     24  C   LIG    1       32.296   1.098  28.773  0.00  0.00    +0.038 C 
ENDBRANCH  20  21
ENDBRANCH  14  16
ENDBRANCH  13  14
ENDBRANCH   1  13
TORSDOF 5
ENDMDL
MODEL 5
REMARK VINA RESULT:      -8.3      4.774      6.914
REMARK  Name = 
REMARK                            x       y       z     vdW  Elec       q    Type
REMARK                         _______ _______ _______ _____ _____    ______ ____
ROOT
ATOM      1  C   LIG    1       31.579  -2.478  26.076  0.00  0.00    +0.352 C 
ENDROOT
BRANCH   1   4
ATOM      2  O   LIG    1       32.138   0.125  24.924  0.00  0.00    -0.270 OA
ATOM      3  C   LIG    1       32.547  -0.222  26.017  0.00  0.00    +0.252 C 
ATOM      4  N   LIG    1       32.357  -1.405  26.656  0.00  0.00    -0.200 N 
ATOM      5  C   LIG    1       32.986  -1.403  27.861  0.00  0.00    +0.252 C 
ATOM      6  O   LIG    1       33.058  -2.260  28.722  0.00  0.00    -0.270 OA
ATOM      7  C   LIG    1       33.630  -0.092  27.993  0.00  0.00    +0.023 C 
ATOM      8  C   LIG    1       34.423   0.350  29.151  0.00  0.00    +0.041 C 
ATOM      9  C   LIG    1       34.915   1.800  29.050  0.00  0.00    +0.005 C 
ATOM     10  C   LIG    1       34.719   2.576  27.734  0.00  0.00    +0.005 C 
ATOM     11  C   LIG    1       33.820   1.989  26.634  0.00  0.00    +0.041 C 
ATOM     12  C   LIG    1       33.367   0.614  26.900  0.00  0.00    +0.023 C 
ENDBRANCH   1   4
BRANCH   1  13
ATOM     13  O   LIG    1       30.409  -2.698  26.846  0.00  0.00    -0.444 OA
BRANCH  13  14
ATOM     14  C   LIG    1       29.385  -1.857  26.596  0.00  0.00    +0.313 C 
ATOM     15  O   LIG    1       29.232  -1.196  25.577  0.00  0.00    -0.250 OA
BRANCH  14  16
ATOM     16  C   LIG    1       28.422  -1.894  27.721  0.00  0.00    +0.111 C 
ATOM     17  C   LIG    1       27.061  -1.218  27.759  0.00  0.00    -0.014 C 
ATOM     18  C   LIG    1       25.974  -1.933  28.532  0.00  0.00    +0.012 C 
ATOM     19  C   LIG    1       26.526  -0.477  26.559  0.00  0.00    +0.012 C 
ATOM     20  C   LIG    1       28.209  -0.659  28.581  0.00  0.00    +0.032 C 
BRANCH  20  21
ATOM     21  C   LIG    1       28.893   0.599  28.237  0.00  0.00    -0.023 C 
ATOM     22  C   LIG    1       30.006   1.097  28.814  0.00  0.00    -0.079 C 
ATOM     23  C   LIG    1       30.606   2.399  28.358  0.00  0.00    +0.038 C 
ATOM     24  C   LIG    1       30.739   0.429  29.945  0.00  0.00    +0.038 C 
ENDBRANCH  20  21
ENDBRANCH  14  16
ENDBRANCH  13  14
ENDBRANCH   1  13
TORSDOF 5
ENDMDL
MODEL 6
REMARK VINA RESULT:      -7.7      4.307      6.481
REMARK  Name = 
REMARK                            x       y       z     vdW  Elec       q    Type
REMARK                         _______ _______ _______ _____ _____    ______ ____
ROOT
ATOM      1  C   LIG    1       31.564  -1.193  24.800  0.00  0.00    +0.352 C 
ENDROOT
BRANCH   1   4
ATOM      2  O   LIG    1       32.539   1.531  25.006  0.00  0.00    -0.270 OA
ATOM      3  C   LIG    1       32.761   0.679  25.847  0.00  0.00    +0.252 C 
ATOM      4  N   LIG    1       32.366  -0.621  25.860  0.00  0.00    -0.200 N 
ATOM      5  C   LIG    1       32.826  -1.248  26.974  0.00  0.00    +0.252 C 
ATOM      6  O   LIG    1       32.693  -2.397  27.352  0.00  0.00    -0.270 OA
ATOM      7  C   LIG    1       33.579  -0.247  27.736  0.00  0.00    +0.023 C 
ATOM      8  C   LIG    1       34.253  -0.489  29.022  0.00  0.00    +0.041 C 
ATOM      9  C   LIG    1       34.902   0.761  29.629  0.00  0.00    +0.005 C 
ATOM     10  C   LIG    1       34.964   2.060  28.802  0.00  0.00    +0.005 C 
ATOM     11  C   LIG    1       34.163   2.165  27.494  0.00  0.00    +0.041 C 
ATOM     12  C   LIG    1       33.538   0.901  27.070  0.00  0.00    +0.023 C 
ENDBRANCH   1   4
BRANCH   1  13
ATOM     13  O   LIG    1       30.228  -0.733  24.902  0.00  0.00    -0.444 OA
BRANCH  13  14
ATOM     14  C   LIG    1       29.611  -1.001  26.071  0.00  0.00    +0.313 C 
ATOM     15  O   LIG    1       29.425  -2.114  26.546  0.00  0.00    -0.250 OA
BRANCH  14  16
ATOM     16  C   LIG    1       29.238   0.267  26.741  0.00  0.00    +0.111 C 
ATOM     17  C   LIG    1       29.563   0.652  28.175  0.00  0.00    -0.014 C 
ATOM     18  C   LIG    1       29.819   2.120  28.438  0.00  0.00    +0.012 C 
ATOM     19  C   LIG    1       30.398  -0.247  29.053  0.00  0.00    +0.012 C 
ATOM     20  C   LIG    1       28.142   0.279  27.793  0.00  0.00    +0.032 C 
BRANCH  20  21
ATOM     21  C   LIG    1       27.514  -0.986  28.208  0.00  0.00    -0.023 C 
ATOM     22  C   LIG    1       26.382  -1.528  27.713  0.00  0.00    -0.079 C 
ATOM     23  C   LIG    1       25.852  -2.837  28.229  0.00  0.00    +0.038 C 
ATOM     24  C   LIG    1       25.551  -0.896  26.629  0.00  0.00    +0.038 C 
ENDBRANCH  20  21
ENDBRANCH  14  16
ENDBRANCH  13  14
ENDBRANCH   1  13
TORSDOF 5
ENDMDL
MODEL 7
REMARK VINA RESULT:      -7.7      4.365      6.749
REMARK  Name = 
REMARK                            x       y       z     vdW  Elec       q    Type
REMARK                         _______ _______ _______ _____ _____    ______ ____
ROOT
ATOM      1  C   LIG    1       31.577  -1.883  25.235  0.00  0.00    +0.352 C 
ENDROOT
BRANCH   1   4
ATOM      2  O   LIG    1       32.983  -2.470  27.704  0.00  0.00    -0.270 OA
ATOM      3  C   LIG    1       32.991  -1.372  27.177  0.00  0.00    +0.252 C 
ATOM      4  N   LIG    1       32.373  -0.977  26.034  0.00  0.00    -0.200 N 
ATOM      5  C   LIG    1       32.622   0.335  25.787  0.00  0.00    +0.252 C 
ATOM      6  O   LIG    1       32.256   1.057  24.878  0.00  0.00    -0.270 OA
ATOM      7  C   LIG    1       33.480   0.810  26.877  0.00  0.00    +0.023 C 
ATOM      8  C   LIG    1       34.000   2.181  27.013  0.00  0.00    +0.041 C 
ATOM      9  C   LIG    1       34.935   2.375  28.213  0.00  0.00    +0.005 C 
ATOM     10  C   LIG    1       35.097   1.237  29.239  0.00  0.00    +0.005 C 
ATOM     11  C   LIG    1       34.527  -0.156  28.923  0.00  0.00    +0.041 C 
ATOM     12  C   LIG    1       33.705  -0.205  27.703  0.00  0.00    +0.023 C 
ENDBRANCH   1   4
BRANCH   1  13
ATOM     13  O   LIG    1       30.395  -1.233  24.800  0.00  0.00    -0.444 OA
BRANCH  13  14
ATOM     14  C   LIG    1       29.570  -0.814  25.782  0.00  0.00    +0.313 C 
ATOM     15  O   LIG    1       28.976   0.255  25.812  0.00  0.00    -0.250 OA
BRANCH  14  16
ATOM     16  C   LIG    1       29.436  -1.875  26.807  0.00  0.00    +0.111 C 
ATOM     17  C   LIG    1       28.313  -2.001  27.824  0.00  0.00    -0.014 C 
ATOM     18  C   LIG    1       27.908  -3.408  28.210  0.00  0.00    +0.012 C 
ATOM     19  C   LIG    1       27.147  -1.045  27.819  0.00  0.00    +0.012 C 
ATOM     20  C   LIG    1       29.694  -1.556  28.271  0.00  0.00    +0.032 C 
BRANCH  20  21
ATOM     21  C   LIG    1       29.989  -0.172  28.676  0.00  0.00    -0.023 C 
ATOM     22  C   LIG    1       30.846   0.222  29.640  0.00  0.00    -0.079 C 
ATOM     23  C   LIG    1       31.057   1.679  29.949  0.00  0.00    +0.038 C 
ATOM     24  C   LIG    1       31.653  -0.723  30.487  0.00  0.00    +0.038 C 
ENDBRANCH  20  21
ENDBRANCH  14  16
ENDBRANCH  13  14
ENDBRANCH   1  13
TORSDOF 5
ENDMDL
MODEL 8
REMARK VINA RESULT:      -7.6      4.535      6.434
REMARK  Name = 
REMARK                            x       y       z     vdW  Elec       q    Type
REMARK                         _______ _______ _______ _____ _____    ______ ____
ROOT
ATOM      1  C   LIG    1       31.690  -2.102  25.548  0.00  0.00    +0.352 C 
ENDROOT
BRANCH   1   4
ATOM      2  O   LIG    1       32.916  -2.421  28.158  0.00  0.00    -0.270 OA
ATOM      3  C   LIG    1       32.974  -1.387  27.517  0.00  0.00    +0.252 C 
ATOM      4  N   LIG    1       32.441  -1.118  26.297  0.00  0.00    -0.200 N 
ATOM      5  C   LIG    1       32.722   0.159  25.925  0.00  0.00    +0.252 C 
ATOM      6  O   LIG    1       32.428   0.778  24.920  0.00  0.00    -0.270 OA
ATOM      7  C   LIG    1       33.509   0.747  27.015  0.00  0.00    +0.023 C 
ATOM      8  C   LIG    1       34.035   2.121  27.036  0.00  0.00    +0.041 C 
ATOM      9  C   LIG    1       34.887   2.442  28.270  0.00  0.00    +0.005 C 
ATOM     10  C   LIG    1       34.964   1.422  29.423  0.00  0.00    +0.005 C 
ATOM     11  C   LIG    1       34.401   0.006  29.222  0.00  0.00    +0.041 C 
ATOM     12  C   LIG    1       33.664  -0.173  27.960  0.00  0.00    +0.023 C 
ENDBRANCH   1   4
BRANCH   1  13
ATOM     13  O   LIG    1       30.380  -1.623  25.296  0.00  0.00    -0.444 OA
BRANCH  13  14
ATOM     14  C   LIG    1       29.578  -1.536  26.378  0.00  0.00    +0.313 C 
ATOM     15  O   LIG    1       29.153  -2.478  27.032  0.00  0.00    -0.250 OA
BRANCH  14  16
ATOM     16  C   LIG    1       29.331  -0.112  26.702  0.00  0.00    +0.111 C 
ATOM     17  C   LIG    1       29.616   0.565  28.033  0.00  0.00    -0.014 C 
ATOM     18  C   LIG    1       30.041   2.016  27.974  0.00  0.00    +0.012 C 
ATOM     19  C   LIG    1       30.274  -0.184  29.164  0.00  0.00    +0.012 C 
ATOM     20  C   LIG    1       28.184   0.271  27.622  0.00  0.00    +0.032 C 
BRANCH  20  21
ATOM     21  C   LIG    1       27.375  -0.781  28.260  0.00  0.00    -0.023 C 
ATOM     22  C   LIG    1       26.212  -1.293  27.807  0.00  0.00    -0.079 C 
ATOM     23  C   LIG    1       25.489  -2.375  28.560  0.00  0.00    +0.038 C 
ATOM     24  C   LIG    1       25.532  -0.844  26.542  0.00  0.00    +0.038 C 
ENDBRANCH  20  21
ENDBRANCH  14  16
ENDBRANCH  13  14
ENDBRANCH   1  13
TORSDOF 5
ENDMDL
MODEL 9
REMARK VINA RESULT:      -7.5      6.119      7.950
REMARK  Name = 
REMARK                            x       y       z     vdW  Elec       q    Type
REMARK                         _______ _______ _______ _____ _____    ______ ____
ROOT
ATOM      1  C   LIG    1       36.677  -1.564  15.779  0.00  0.00    +0.352 C 
ENDROOT
BRANCH   1   4
ATOM      2  O   LIG    1       34.415  -0.141  16.908  0.00  0.00    -0.270 OA
ATOM      3  C   LIG    1       34.404  -1.338  16.683  0.00  0.00    +0.252 C 
ATOM      4  N   LIG    1       35.394  -2.110  16.166  0.00  0.00    -0.200 N 
ATOM      5  C   LIG    1       34.991  -3.405  16.077  0.00  0.00    +0.252 C 
ATOM      6  O   LIG    1       35.575  -4.394  15.674  0.00  0.00    -0.270 OA
ATOM      7  C   LIG    1       33.616  -3.450  16.585  0.00  0.00    +0.023 C 
ATOM      8  C   LIG    1       32.782  -4.660  16.671  0.00  0.00    +0.041 C 
ATOM      9  C   LIG    1       31.357  -4.398  17.172  0.00  0.00    +0.005 C 
ATOM     10  C   LIG    1       30.986  -2.999  17.704  0.00  0.00    +0.005 C 
ATOM     11  C   LIG    1       31.957  -1.826  17.495  0.00  0.00    +0.041 C 
ATOM     12  C   LIG    1       33.263  -2.221  16.942  0.00  0.00    +0.023 C 
ENDBRANCH   1   4
BRANCH   1  13
ATOM     13  O   LIG    1       37.449  -1.279  16.934  0.00  0.00    -0.444 OA
BRANCH  13  14
ATOM     14  C   LIG    1       38.361  -2.216  17.266  0.00  0.00    +0.313 C 
ATOM     15  O   LIG    1       38.576  -3.255  16.657  0.00  0.00    -0.250 OA
BRANCH  14  16
ATOM     16  C   LIG    1       39.119  -1.773  18.459  0.00  0.00    +0.111 C 
ATOM     17  C   LIG    1       39.752  -2.676  19.505  0.00  0.00    -0.014 C 
ATOM     18  C   LIG    1       41.038  -2.184  20.132  0.00  0.00    +0.012 C 
ATOM     19  C   LIG    1       39.715  -4.177  19.363  0.00  0.00    +0.012 C 
ATOM     20  C   LIG    1       38.500  -1.887  19.841  0.00  0.00    +0.032 C 
BRANCH  20  21
ATOM     21  C   LIG    1       37.180  -2.521  20.001  0.00  0.00    -0.023 C 
ATOM     22  C   LIG    1       35.985  -1.897  20.056  0.00  0.00    -0.079 C 
ATOM     23  C   LIG    1       34.707  -2.672  20.217  0.00  0.00    +0.038 C 
ATOM     24  C   LIG    1       35.810  -0.405  19.971  0.00  0.00    +0.038 C 
ENDBRANCH  20  21
ENDBRANCH  14  16
ENDBRANCH  13  14
ENDBRANCH   1  13
TORSDOF 5
ENDMDL
