MODEL 1
REMARK VINA RESULT:      -7.9      0.000      0.000
REMARK  Name = 
REMARK                            x       y       z     vdW  Elec       q    Type
REMARK                         _______ _______ _______ _____ _____    ______ ____
ROOT
ATOM      1  C   LIG    1       69.575  49.495  99.076  0.00  0.00    +0.352 C 
ENDROOT
BRANCH   1   4
ATOM      2  O   LIG    1       66.898  49.309 100.177  0.00  0.00    -0.270 OA
ATOM      3  C   LIG    1       67.545  48.337  99.832  0.00  0.00    +0.252 C 
ATOM      4  N   LIG    1       68.799  48.297  99.311  0.00  0.00    -0.200 N 
ATOM      5  C   LIG    1       69.171  47.014  99.063  0.00  0.00    +0.252 C 
ATOM      6  O   LIG    1       70.203  46.559  98.605  0.00  0.00    -0.270 OA
ATOM      7  C   LIG    1       68.042  46.167  99.463  0.00  0.00    +0.023 C 
ATOM      8  C   LIG    1       68.006  44.699  99.366  0.00  0.00    +0.041 C 
ATOM      9  C   LIG    1       66.667  44.080  99.787  0.00  0.00    +0.005 C 
ATOM     10  C   LIG    1       65.589  44.975 100.430  0.00  0.00    +0.005 C 
ATOM     11  C   LIG    1       65.760  46.502 100.411  0.00  0.00    +0.041 C 
ATOM     12  C   LIG    1       67.072  46.952  99.917  0.00  0.00    +0.023 C 
ENDBRANCH   1   4
BRANCH   1  13
ATOM     13  O   LIG    1       69.081  50.175  97.934  0.00  0.00    -0.444 OA
BRANCH  13  14
ATOM     14  C   LIG    1       69.032  49.444  96.801  0.00  0.00    +0.313 C 
ATOM     15  O   LIG    1       69.986  49.155  96.092  0.00  0.00    -0.250 OA
BRANCH  14  16
ATOM     16  C   LIG    1       67.644  48.982  96.567  0.00  0.00    +0.111 C 
ATOM     17  C   LIG    1       67.233  47.634  95.996  0.00  0.00    -0.014 C 
ATOM     18  C   LIG    1       65.941  47.046  96.520  0.00  0.00    +0.012 C 
ATOM     19  C   LIG    1       68.261  46.578  95.674  0.00  0.00    +0.012 C 
ATOM     20  C   LIG    1       67.102  48.888  95.150  0.00  0.00    +0.032 C 
BRANCH  20  21
ATOM     21  C   LIG    1       67.988  49.172  94.008  0.00  0.00    -0.023 C 
ATOM     22  C   LIG    1       67.893  48.659  92.765  0.00  0.00    -0.079 C 
ATOM     23  C   LIG    1       68.868  49.042  91.685  0.00  0.00    +0.038 C 
ATOM     24  C   LIG    1       66.838  47.675  92.338  0.00  0.00    +0.038 C 
ENDBRANCH  20  21
ENDBRANCH  14  16
ENDBRANCH  13  14
ENDBRANCH   1  13
TORSDOF 5
ENDMDL
MODEL 2
REMARK VINA RESULT:      -7.9      1.626      5.399
REMARK  Name = 
REMARK                            x       y       z     vdW  Elec       q    Type
REMARK                         _______ _______ _______ _____ _____    ______ ____
ROOT
ATOM      1  C   LIG    1       68.230  49.805  98.177  0.00  0.00    +0.352 C 
ENDROOT
BRANCH   1   4
ATOM      2  O   LIG    1       70.464  48.487  96.878  0.00  0.00    -0.270 OA
ATOM      3  C   LIG    1       69.473  48.863  96.279  0.00  0.00    +0.252 C 
ATOM      4  N   LIG    1       68.374  49.491  96.772  0.00  0.00    -0.200 N 
ATOM      5  C   LIG    1       67.488  49.753  95.776  0.00  0.00    +0.252 C 
ATOM      6  O   LIG    1       66.399  50.296  95.802  0.00  0.00    -0.270 OA
ATOM      7  C   LIG    1       68.085  49.239  94.539  0.00  0.00    +0.023 C 
ATOM      8  C   LIG    1       67.467  49.305  93.205  0.00  0.00    +0.041 C 
ATOM      9  C   LIG    1       68.286  48.619  92.105  0.00  0.00    +0.005 C 
ATOM     10  C   LIG    1       69.706  48.112  92.423  0.00  0.00    +0.005 C 
ATOM     11  C   LIG    1       70.187  48.068  93.883  0.00  0.00    +0.041 C 
ATOM     12  C   LIG    1       69.264  48.704  94.837  0.00  0.00    +0.023 C 
ENDBRANCH   1   4
BRANCH   1  13
ATOM     13  O   LIG    1       67.180  49.038  98.739  0.00  0.00    -0.444 OA
BRANCH  13  14
ATOM     14  C   LIG    1       67.567  47.943  99.426  0.00  0.00    +0.313 C 
ATOM     15  O   LIG    1       68.653  47.782  99.966  0.00  0.00    -0.250 OA
BRANCH  14  16
ATOM     16  C   LIG    1       66.450  46.972  99.487  0.00  0.00    +0.111 C 
ATOM     17  C   LIG    1       66.533  45.541  99.995  0.00  0.00    -0.014 C 
ATOM     18  C   LIG    1       65.304  45.000 100.691  0.00  0.00    +0.012 C 
ATOM     19  C   LIG    1       67.814  44.993 100.573  0.00  0.00    +0.012 C 
ATOM     20  C   LIG    1       66.395  45.812  98.507  0.00  0.00    +0.032 C 
BRANCH  20  21
ATOM     21  C   LIG    1       67.499  45.605  97.556  0.00  0.00    -0.023 C 
ATOM     22  C   LIG    1       67.436  45.694  96.212  0.00  0.00    -0.079 C 
ATOM     23  C   LIG    1       68.650  45.462  95.355  0.00  0.00    +0.038 C 
ATOM     24  C   LIG    1       66.181  46.019  95.448  0.00  0.00    +0.038 C 
ENDBRANCH  20  21
ENDBRANCH  14  16
ENDBRANCH  13  14
ENDBRANCH   1  13
TORSDOF 5
ENDMDL
MODEL 3
REMARK VINA RESULT:      -7.7      1.627      5.186
REMARK  Name = 
REMARK                            x       y       z     vdW  Elec       q    Type
REMARK                         _______ _______ _______ _____ _____    ______ ____
ROOT
ATOM      1  C   LIG    1       68.227  49.768  98.108  0.00  0.00    +0.352 C 
ENDROOT
BRANCH   1   4
ATOM      2  O   LIG    1       66.528  50.351  95.829  0.00  0.00    -0.270 OA
ATOM      3  C   LIG    1       67.585  49.754  95.736  0.00  0.00    +0.252 C 
ATOM      4  N   LIG    1       68.458  49.421  96.722  0.00  0.00    -0.200 N 
ATOM      5  C   LIG    1       69.522  48.748  96.210  0.00  0.00    +0.252 C 
ATOM      6  O   LIG    1       70.506  48.282  96.754  0.00  0.00    -0.270 OA
ATOM      7  C   LIG    1       69.298  48.652  94.764  0.00  0.00    +0.023 C 
ATOM      8  C   LIG    1       70.206  48.001  93.805  0.00  0.00    +0.041 C 
ATOM      9  C   LIG    1       69.754  48.117  92.344  0.00  0.00    +0.005 C 
ATOM     10  C   LIG    1       68.365  48.702  92.025  0.00  0.00    +0.005 C 
ATOM     11  C   LIG    1       67.557  49.390  93.138  0.00  0.00    +0.041 C 
ATOM     12  C   LIG    1       68.149  49.253  94.479  0.00  0.00    +0.023 C 
ENDBRANCH   1   4
BRANCH   1  13
ATOM     13  O   LIG    1       67.171  48.982  98.634  0.00  0.00    -0.444 OA
BRANCH  13  14
ATOM     14  C   LIG    1       67.553  47.922  99.376  0.00  0.00    +0.313 C 
ATOM     15  O   LIG    1       68.633  47.791  99.937  0.00  0.00    -0.250 OA
BRANCH  14  16
ATOM     16  C   LIG    1       66.440  46.949  99.467  0.00  0.00    +0.111 C 
ATOM     17  C   LIG    1       66.531  45.531 100.006  0.00  0.00    -0.014 C 
ATOM     18  C   LIG    1       65.308  45.002 100.723  0.00  0.00    +0.012 C 
ATOM     19  C   LIG    1       67.817  44.999 100.587  0.00  0.00    +0.012 C 
ATOM     20  C   LIG    1       66.381  45.767  98.514  0.00  0.00    +0.032 C 
BRANCH  20  21
ATOM     21  C   LIG    1       67.479  45.542  97.559  0.00  0.00    -0.023 C 
ATOM     22  C   LIG    1       67.423  45.670  96.218  0.00  0.00    -0.079 C 
ATOM     23  C   LIG    1       68.630  45.413  95.358  0.00  0.00    +0.038 C 
ATOM     24  C   LIG    1       66.185  46.065  95.461  0.00  0.00    +0.038 C 
ENDBRANCH  20  21
ENDBRANCH  14  16
ENDBRANCH  13  14
ENDBRANCH   1  13
TORSDOF 5
ENDMDL
MODEL 4
REMARK VINA RESULT:      -7.6      2.021      5.502
REMARK  Name = 
REMARK                            x       y       z     vdW  Elec       q    Type
REMARK                         _______ _______ _______ _____ _____    ______ ____
ROOT
ATOM      1  C   LIG    1       67.327  45.501  97.375  0.00  0.00    +0.352 C 
ENDROOT
BRANCH   1   4
ATOM      2  O   LIG    1       65.700  46.205  95.079  0.00  0.00    -0.270 OA
ATOM      3  C   LIG    1       66.871  46.518  95.186  0.00  0.00    +0.252 C 
ATOM      4  N   LIG    1       67.731  46.246  96.201  0.00  0.00    -0.200 N 
ATOM      5  C   LIG    1       68.959  46.766  95.939  0.00  0.00    +0.252 C 
ATOM      6  O   LIG    1       69.989  46.739  96.587  0.00  0.00    -0.270 OA
ATOM      7  C   LIG    1       68.861  47.430  94.636  0.00  0.00    +0.023 C 
ATOM      8  C   LIG    1       69.961  48.136  93.958  0.00  0.00    +0.041 C 
ATOM      9  C   LIG    1       69.552  48.802  92.638  0.00  0.00    +0.005 C 
ATOM     10  C   LIG    1       68.150  48.535  92.057  0.00  0.00    +0.005 C 
ATOM     11  C   LIG    1       67.097  47.817  92.916  0.00  0.00    +0.041 C 
ATOM     12  C   LIG    1       67.619  47.289  94.188  0.00  0.00    +0.023 C 
ENDBRANCH   1   4
BRANCH   1  13
ATOM     13  O   LIG    1       68.137  45.864  98.480  0.00  0.00    -0.444 OA
BRANCH  13  14
ATOM     14  C   LIG    1       67.603  46.781  99.313  0.00  0.00    +0.313 C 
ATOM     15  O   LIG    1       66.485  46.736  99.806  0.00  0.00    -0.250 OA
BRANCH  14  16
ATOM     16  C   LIG    1       68.603  47.836  99.599  0.00  0.00    +0.111 C 
ATOM     17  C   LIG    1       68.328  49.169 100.276  0.00  0.00    -0.014 C 
ATOM     18  C   LIG    1       69.436  49.725 101.145  0.00  0.00    +0.012 C 
ATOM     19  C   LIG    1       66.956  49.508 100.802  0.00  0.00    +0.012 C 
ATOM     20  C   LIG    1       68.609  49.119  98.785  0.00  0.00    +0.032 C 
BRANCH  20  21
ATOM     21  C   LIG    1       67.565  49.348  97.772  0.00  0.00    -0.023 C 
ATOM     22  C   LIG    1       67.683  50.069  96.638  0.00  0.00    -0.079 C 
ATOM     23  C   LIG    1       66.530  50.216  95.684  0.00  0.00    +0.038 C 
ATOM     24  C   LIG    1       68.939  50.785  96.223  0.00  0.00    +0.038 C 
ENDBRANCH  20  21
ENDBRANCH  14  16
ENDBRANCH  13  14
ENDBRANCH   1  13
TORSDOF 5
ENDMDL
MODEL 5
REMARK VINA RESULT:      -7.4      1.144      2.699
REMARK  Name = 
REMARK                            x       y       z     vdW  Elec       q    Type
REMARK                         _______ _______ _______ _____ _____    ______ ____
ROOT
ATOM      1  C   LIG    1       69.722  49.143  98.298  0.00  0.00    +0.352 C 
ENDROOT
BRANCH   1   4
ATOM      2  O   LIG    1       66.912  49.283  99.005  0.00  0.00    -0.270 OA
ATOM      3  C   LIG    1       67.561  48.253  99.054  0.00  0.00    +0.252 C 
ATOM      4  N   LIG    1       68.872  48.065  98.755  0.00  0.00    -0.200 N 
ATOM      5  C   LIG    1       69.223  46.766  98.946  0.00  0.00    +0.252 C 
ATOM      6  O   LIG    1       70.289  46.199  98.795  0.00  0.00    -0.270 OA
ATOM      7  C   LIG    1       68.016  46.071  99.407  0.00  0.00    +0.023 C 
ATOM      8  C   LIG    1       67.934  44.639  99.735  0.00  0.00    +0.041 C 
ATOM      9  C   LIG    1       66.526  44.169 100.119  0.00  0.00    +0.005 C 
ATOM     10  C   LIG    1       65.405  45.209 100.311  0.00  0.00    +0.005 C 
ATOM     11  C   LIG    1       65.640  46.665  99.875  0.00  0.00    +0.041 C 
ATOM     12  C   LIG    1       67.025  46.953  99.467  0.00  0.00    +0.023 C 
ENDBRANCH   1   4
BRANCH   1  13
ATOM     13  O   LIG    1       70.223  48.849  97.005  0.00  0.00    -0.444 OA
BRANCH  13  14
ATOM     14  C   LIG    1       69.433  49.224  95.978  0.00  0.00    +0.313 C 
ATOM     15  O   LIG    1       68.564  50.085  96.019  0.00  0.00    -0.250 OA
BRANCH  14  16
ATOM     16  C   LIG    1       69.812  48.476  94.757  0.00  0.00    +0.111 C 
ATOM     17  C   LIG    1       69.147  48.588  93.395  0.00  0.00    -0.014 C 
ATOM     18  C   LIG    1       70.046  48.415  92.190  0.00  0.00    +0.012 C 
ATOM     19  C   LIG    1       68.036  49.578  93.149  0.00  0.00    +0.012 C 
ATOM     20  C   LIG    1       68.926  47.351  94.247  0.00  0.00    +0.032 C 
BRANCH  20  21
ATOM     21  C   LIG    1       67.646  47.068  94.917  0.00  0.00    -0.023 C 
ATOM     22  C   LIG    1       67.343  45.977  95.651  0.00  0.00    -0.079 C 
ATOM     23  C   LIG    1       65.990  45.817  96.288  0.00  0.00    +0.038 C 
ATOM     24  C   LIG    1       68.293  44.837  95.897  0.00  0.00    +0.038 C 
ENDBRANCH  20  21
ENDBRANCH  14  16
ENDBRANCH  13  14
ENDBRANCH   1  13
TORSDOF 5
ENDMDL
MODEL 6
REMARK VINA RESULT:      -7.2      1.625      3.221
REMARK  Name = 
REMARK                            x       y       z     vdW  Elec       q    Type
REMARK                         _______ _______ _______ _____ _____    ______ ____
ROOT
ATOM      1  C   LIG    1       68.719  50.015  97.611  0.00  0.00    +0.352 C 
ENDROOT
BRANCH   1   4
ATOM      2  O   LIG    1       70.075  48.711  99.820  0.00  0.00    -0.270 OA
ATOM      3  C   LIG    1       69.001  48.337  99.383  0.00  0.00    +0.252 C 
ATOM      4  N   LIG    1       68.277  48.858  98.359  0.00  0.00    -0.200 N 
ATOM      5  C   LIG    1       67.133  48.148  98.175  0.00  0.00    +0.252 C 
ATOM      6  O   LIG    1       66.230  48.289  97.371  0.00  0.00    -0.270 OA
ATOM      7  C   LIG    1       67.138  47.081  99.180  0.00  0.00    +0.023 C 
ATOM      8  C   LIG    1       66.082  46.069  99.349  0.00  0.00    +0.041 C 
ATOM      9  C   LIG    1       66.315  45.119 100.531  0.00  0.00    +0.005 C 
ATOM     10  C   LIG    1       67.655  45.168 101.290  0.00  0.00    +0.005 C 
ATOM     11  C   LIG    1       68.635  46.323 101.024  0.00  0.00    +0.041 C 
ATOM     12  C   LIG    1       68.246  47.194  99.903  0.00  0.00    +0.023 C 
ENDBRANCH   1   4
BRANCH   1  13
ATOM     13  O   LIG    1       69.473  49.603  96.484  0.00  0.00    -0.444 OA
BRANCH  13  14
ATOM     14  C   LIG    1       68.780  49.496  95.332  0.00  0.00    +0.313 C 
ATOM     15  O   LIG    1       67.695  50.012  95.097  0.00  0.00    -0.250 OA
BRANCH  14  16
ATOM     16  C   LIG    1       69.559  48.704  94.352  0.00  0.00    +0.111 C 
ATOM     17  C   LIG    1       69.211  48.499  92.887  0.00  0.00    -0.014 C 
ATOM     18  C   LIG    1       70.376  48.379  91.928  0.00  0.00    +0.012 C 
ATOM     19  C   LIG    1       68.020  49.183  92.265  0.00  0.00    +0.012 C 
ATOM     20  C   LIG    1       69.038  47.359  93.874  0.00  0.00    +0.032 C 
BRANCH  20  21
ATOM     21  C   LIG    1       67.716  46.887  94.319  0.00  0.00    -0.023 C 
ATOM     22  C   LIG    1       67.463  46.001  95.303  0.00  0.00    -0.079 C 
ATOM     23  C   LIG    1       66.055  45.610  95.659  0.00  0.00    +0.038 C 
ATOM     24  C   LIG    1       68.529  45.324  96.121  0.00  0.00    +0.038 C 
ENDBRANCH  20  21
ENDBRANCH  14  16
ENDBRANCH  13  14
ENDBRANCH   1  13
TORSDOF 5
ENDMDL
MODEL 7
REMARK VINA RESULT:      -7.1      2.200      6.390
REMARK  Name = 
REMARK                            x       y       z     vdW  Elec       q    Type
REMARK                         _______ _______ _______ _____ _____    ______ ____
ROOT
ATOM      1  C   LIG    1       66.631  45.757  96.539  0.00  0.00    +0.352 C 
ENDROOT
BRANCH   1   4
ATOM      2  O   LIG    1       65.620  46.696  93.987  0.00  0.00    -0.270 OA
ATOM      3  C   LIG    1       66.742  46.942  94.390  0.00  0.00    +0.252 C 
ATOM      4  N   LIG    1       67.326  46.558  95.555  0.00  0.00    -0.200 N 
ATOM      5  C   LIG    1       68.598  47.032  95.630  0.00  0.00    +0.252 C 
ATOM      6  O   LIG    1       69.443  46.910  96.497  0.00  0.00    -0.270 OA
ATOM      7  C   LIG    1       68.835  47.788  94.396  0.00  0.00    +0.023 C 
ATOM      8  C   LIG    1       70.087  48.482  94.053  0.00  0.00    +0.041 C 
ATOM      9  C   LIG    1       70.026  49.256  92.730  0.00  0.00    +0.005 C 
ATOM     10  C   LIG    1       68.795  49.100  91.817  0.00  0.00    +0.005 C 
ATOM     11  C   LIG    1       67.544  48.379  92.346  0.00  0.00    +0.041 C 
ATOM     12  C   LIG    1       67.731  47.740  93.659  0.00  0.00    +0.023 C 
ENDBRANCH   1   4
BRANCH   1  13
ATOM     13  O   LIG    1       65.937  46.598  97.445  0.00  0.00    -0.444 OA
BRANCH  13  14
ATOM     14  C   LIG    1       66.206  46.388  98.751  0.00  0.00    +0.313 C 
ATOM     15  O   LIG    1       65.441  46.596  99.682  0.00  0.00    -0.250 OA
BRANCH  14  16
ATOM     16  C   LIG    1       67.559  45.803  98.893  0.00  0.00    +0.111 C 
ATOM     17  C   LIG    1       68.148  45.205 100.161  0.00  0.00    -0.014 C 
ATOM     18  C   LIG    1       69.099  44.042  99.980  0.00  0.00    +0.012 C 
ATOM     19  C   LIG    1       67.328  45.091 101.422  0.00  0.00    +0.012 C 
ATOM     20  C   LIG    1       68.636  46.552  99.660  0.00  0.00    +0.032 C 
BRANCH  20  21
ATOM     21  C   LIG    1       68.305  47.818 100.335  0.00  0.00    -0.023 C 
ATOM     22  C   LIG    1       68.838  49.032 100.084  0.00  0.00    -0.079 C 
ATOM     23  C   LIG    1       68.401  50.250 100.851  0.00  0.00    +0.038 C 
ATOM     24  C   LIG    1       69.897  49.288  99.047  0.00  0.00    +0.038 C 
ENDBRANCH  20  21
ENDBRANCH  14  16
ENDBRANCH  13  14
ENDBRANCH   1  13
TORSDOF 5
ENDMDL
MODEL 8
REMARK VINA RESULT:      -6.9      2.207      6.487
REMARK  Name = 
REMARK                            x       y       z     vdW  Elec       q    Type
REMARK                         _______ _______ _______ _____ _____    ______ ____
ROOT
ATOM      1  C   LIG    1       66.747  45.660  96.539  0.00  0.00    +0.352 C 
ENDROOT
BRANCH   1   4
ATOM      2  O   LIG    1       69.422  46.782  96.488  0.00  0.00    -0.270 OA
ATOM      3  C   LIG    1       68.608  46.958  95.599  0.00  0.00    +0.252 C 
ATOM      4  N   LIG    1       67.335  46.493  95.513  0.00  0.00    -0.200 N 
ATOM      5  C   LIG    1       66.749  46.918  94.363  0.00  0.00    +0.252 C 
ATOM      6  O   LIG    1       65.632  46.724  93.920  0.00  0.00    -0.270 OA
ATOM      7  C   LIG    1       67.750  47.726  93.658  0.00  0.00    +0.023 C 
ATOM      8  C   LIG    1       67.546  48.387  92.359  0.00  0.00    +0.041 C 
ATOM      9  C   LIG    1       68.792  49.103  91.823  0.00  0.00    +0.005 C 
ATOM     10  C   LIG    1       70.036  49.235  92.723  0.00  0.00    +0.005 C 
ATOM     11  C   LIG    1       70.109  48.439  94.037  0.00  0.00    +0.041 C 
ATOM     12  C   LIG    1       68.859  47.747  94.389  0.00  0.00    +0.023 C 
ENDBRANCH   1   4
BRANCH   1  13
ATOM     13  O   LIG    1       65.907  46.441  97.373  0.00  0.00    -0.444 OA
BRANCH  13  14
ATOM     14  C   LIG    1       66.211  46.417  98.687  0.00  0.00    +0.313 C 
ATOM     15  O   LIG    1       65.496  46.815  99.596  0.00  0.00    -0.250 OA
BRANCH  14  16
ATOM     16  C   LIG    1       67.530  45.772  98.881  0.00  0.00    +0.111 C 
ATOM     17  C   LIG    1       68.041  45.147 100.169  0.00  0.00    -0.014 C 
ATOM     18  C   LIG    1       68.946  43.943 100.022  0.00  0.00    +0.012 C 
ATOM     19  C   LIG    1       67.167  45.067 101.396  0.00  0.00    +0.012 C 
ATOM     20  C   LIG    1       68.608  46.472  99.692  0.00  0.00    +0.032 C 
BRANCH  20  21
ATOM     21  C   LIG    1       68.307  47.750 100.358  0.00  0.00    -0.023 C 
ATOM     22  C   LIG    1       68.826  48.959 100.059  0.00  0.00    -0.079 C 
ATOM     23  C   LIG    1       68.424  50.191 100.822  0.00  0.00    +0.038 C 
ATOM     24  C   LIG    1       69.836  49.195  98.969  0.00  0.00    +0.038 C 
ENDBRANCH  20  21
ENDBRANCH  14  16
ENDBRANCH  13  14
ENDBRANCH   1  13
TORSDOF 5
ENDMDL
MODEL 9
REMARK VINA RESULT:      -6.6      2.382      4.082
REMARK  Name = 
REMARK                            x       y       z     vdW  Elec       q    Type
REMARK                         _______ _______ _______ _____ _____    ______ ____
ROOT
ATOM      1  C   LIG    1       66.423  46.350  94.568  0.00  0.00    +0.352 C 
ENDROOT
BRANCH   1   4
ATOM      2  O   LIG    1       65.052  47.402  96.898  0.00  0.00    -0.270 OA
ATOM      3  C   LIG    1       65.944  46.577  96.967  0.00  0.00    +0.252 C 
ATOM      4  N   LIG    1       66.658  46.016  95.957  0.00  0.00    -0.200 N 
ATOM      5  C   LIG    1       67.572  45.140  96.448  0.00  0.00    +0.252 C 
ATOM      6  O   LIG    1       68.394  44.445  95.880  0.00  0.00    -0.270 OA
ATOM      7  C   LIG    1       67.417  45.148  97.906  0.00  0.00    +0.023 C 
ATOM      8  C   LIG    1       68.207  44.340  98.849  0.00  0.00    +0.041 C 
ATOM      9  C   LIG    1       67.776  44.495 100.313  0.00  0.00    +0.005 C 
ATOM     10  C   LIG    1       66.738  45.570 100.688  0.00  0.00    +0.005 C 
ATOM     11  C   LIG    1       65.965  46.298  99.576  0.00  0.00    +0.041 C 
ATOM     12  C   LIG    1       66.445  45.999  98.217  0.00  0.00    +0.023 C 
ENDBRANCH   1   4
BRANCH   1  13
ATOM     13  O   LIG    1       67.364  47.317  94.137  0.00  0.00    -0.444 OA
BRANCH  13  14
ATOM     14  C   LIG    1       66.980  48.603  94.278  0.00  0.00    +0.313 C 
ATOM     15  O   LIG    1       65.827  48.999  94.382  0.00  0.00    -0.250 OA
BRANCH  14  16
ATOM     16  C   LIG    1       68.174  49.475  94.353  0.00  0.00    +0.111 C 
ATOM     17  C   LIG    1       69.543  49.077  94.882  0.00  0.00    -0.014 C 
ATOM     18  C   LIG    1       70.737  49.724  94.215  0.00  0.00    +0.012 C 
ATOM     19  C   LIG    1       69.825  47.665  95.328  0.00  0.00    +0.012 C 
ATOM     20  C   LIG    1       68.653  49.998  95.697  0.00  0.00    +0.032 C 
BRANCH  20  21
ATOM     21  C   LIG    1       67.980  49.562  96.932  0.00  0.00    -0.023 C 
ATOM     22  C   LIG    1       68.507  49.536  98.174  0.00  0.00    -0.079 C 
ATOM     23  C   LIG    1       67.701  49.070  99.355  0.00  0.00    +0.038 C 
ATOM     24  C   LIG    1       69.916  49.952  98.499  0.00  0.00    +0.038 C 
ENDBRANCH  20  21
ENDBRANCH  14  16
ENDBRANCH  13  14
ENDBRANCH   1  13
TORSDOF 5
ENDMDL
