MODEL 1
REMARK VINA RESULT:      -8.8      0.000      0.000
REMARK  Name = 
REMARK                            x       y       z     vdW  Elec       q    Type
REMARK                         _______ _______ _______ _____ _____    ______ ____
ROOT
ATOM      1  C   LIG    1       39.816  29.416   8.280  0.00  0.00    +0.352 C 
ENDROOT
BRANCH   1   4
ATOM      2  O   LIG    1       37.959  30.786  10.038  0.00  0.00    -0.270 OA
ATOM      3  C   LIG    1       38.426  31.295   9.035  0.00  0.00    +0.252 C 
ATOM      4  N   LIG    1       39.293  30.758   8.139  0.00  0.00    -0.200 N 
ATOM      5  C   LIG    1       39.568  31.647   7.149  0.00  0.00    +0.252 C 
ATOM      6  O   LIG    1       40.286  31.553   6.171  0.00  0.00    -0.270 OA
ATOM      7  C   LIG    1       38.803  32.860   7.454  0.00  0.00    +0.023 C 
ATOM      8  C   LIG    1       38.802  34.090   6.644  0.00  0.00    +0.041 C 
ATOM      9  C   LIG    1       37.967  35.228   7.242  0.00  0.00    +0.005 C 
ATOM     10  C   LIG    1       37.084  34.953   8.475  0.00  0.00    +0.005 C 
ATOM     11  C   LIG    1       37.239  33.627   9.238  0.00  0.00    +0.041 C 
ATOM     12  C   LIG    1       38.126  32.655   8.578  0.00  0.00    +0.023 C 
ENDBRANCH   1   4
BRANCH   1  13
ATOM     13  O   LIG    1       41.172  29.466   8.692  0.00  0.00    -0.444 OA
BRANCH  13  14
ATOM     14  C   LIG    1       41.390  30.028   9.899  0.00  0.00    +0.313 C 
ATOM     15  O   LIG    1       41.854  31.142  10.098  0.00  0.00    -0.250 OA
BRANCH  14  16
ATOM     16  C   LIG    1       40.923  29.113  10.966  0.00  0.00    +0.111 C 
ATOM     17  C   LIG    1       41.659  28.793  12.257  0.00  0.00    -0.014 C 
ATOM     18  C   LIG    1       40.800  28.530  13.475  0.00  0.00    +0.012 C 
ATOM     19  C   LIG    1       42.958  29.476  12.603  0.00  0.00    +0.012 C 
ATOM     20  C   LIG    1       41.584  27.757  11.150  0.00  0.00    +0.032 C 
BRANCH  20  21
ATOM     21  C   LIG    1       42.747  27.393  10.324  0.00  0.00    -0.023 C 
ATOM     22  C   LIG    1       43.566  26.336  10.502  0.00  0.00    -0.079 C 
ATOM     23  C   LIG    1       44.721  26.078   9.574  0.00  0.00    +0.038 C 
ATOM     24  C   LIG    1       43.421  25.338  11.618  0.00  0.00    +0.038 C 
ENDBRANCH  20  21
ENDBRANCH  14  16
ENDBRANCH  13  14
ENDBRANCH   1  13
TORSDOF 5
ENDMDL
MODEL 2
REMARK VINA RESULT:      -8.6      0.103      1.815
REMARK  Name = 
REMARK                            x       y       z     vdW  Elec       q    Type
REMARK                         _______ _______ _______ _____ _____    ______ ____
ROOT
ATOM      1  C   LIG    1       39.836  29.433   8.382  0.00  0.00    +0.352 C 
ENDROOT
BRANCH   1   4
ATOM      2  O   LIG    1       40.252  31.397   6.288  0.00  0.00    -0.270 OA
ATOM      3  C   LIG    1       39.537  31.594   7.253  0.00  0.00    +0.252 C 
ATOM      4  N   LIG    1       39.269  30.762   8.292  0.00  0.00    -0.200 N 
ATOM      5  C   LIG    1       38.425  31.357   9.175  0.00  0.00    +0.252 C 
ATOM      6  O   LIG    1       37.953  30.952  10.221  0.00  0.00    -0.270 OA
ATOM      7  C   LIG    1       38.133  32.690   8.639  0.00  0.00    +0.023 C 
ATOM      8  C   LIG    1       37.253  33.686   9.273  0.00  0.00    +0.041 C 
ATOM      9  C   LIG    1       37.071  34.967   8.450  0.00  0.00    +0.005 C 
ATOM     10  C   LIG    1       37.926  35.185   7.187  0.00  0.00    +0.005 C 
ATOM     11  C   LIG    1       38.762  34.022   6.627  0.00  0.00    +0.041 C 
ATOM     12  C   LIG    1       38.789  32.832   7.493  0.00  0.00    +0.023 C 
ENDBRANCH   1   4
BRANCH   1  13
ATOM     13  O   LIG    1       41.201  29.514   8.757  0.00  0.00    -0.444 OA
BRANCH  13  14
ATOM     14  C   LIG    1       41.436  30.047   9.975  0.00  0.00    +0.313 C 
ATOM     15  O   LIG    1       41.923  31.148  10.194  0.00  0.00    -0.250 OA
BRANCH  14  16
ATOM     16  C   LIG    1       40.956  29.120  11.025  0.00  0.00    +0.111 C 
ATOM     17  C   LIG    1       41.689  28.763  12.308  0.00  0.00    -0.014 C 
ATOM     18  C   LIG    1       40.829  28.491  13.523  0.00  0.00    +0.012 C 
ATOM     19  C   LIG    1       43.001  29.417  12.663  0.00  0.00    +0.012 C 
ATOM     20  C   LIG    1       41.594  27.750  11.182  0.00  0.00    +0.032 C 
BRANCH  20  21
ATOM     21  C   LIG    1       42.749  27.382  10.345  0.00  0.00    -0.023 C 
ATOM     22  C   LIG    1       43.567  26.324  10.518  0.00  0.00    -0.079 C 
ATOM     23  C   LIG    1       44.713  26.062   9.580  0.00  0.00    +0.038 C 
ATOM     24  C   LIG    1       43.430  25.327  11.636  0.00  0.00    +0.038 C 
ENDBRANCH  20  21
ENDBRANCH  14  16
ENDBRANCH  13  14
ENDBRANCH   1  13
TORSDOF 5
ENDMDL
MODEL 3
REMARK VINA RESULT:      -8.6      1.586      2.773
REMARK  Name = 
REMARK                            x       y       z     vdW  Elec       q    Type
REMARK                         _______ _______ _______ _____ _____    ______ ____
ROOT
ATOM      1  C   LIG    1       39.772  29.587   7.386  0.00  0.00    +0.352 C 
ENDROOT
BRANCH   1   4
ATOM      2  O   LIG    1       40.248  31.956   5.781  0.00  0.00    -0.270 OA
ATOM      3  C   LIG    1       39.518  31.947   6.755  0.00  0.00    +0.252 C 
ATOM      4  N   LIG    1       39.222  30.911   7.581  0.00  0.00    -0.200 N 
ATOM      5  C   LIG    1       38.369  31.311   8.561  0.00  0.00    +0.252 C 
ATOM      6  O   LIG    1       37.873  30.694   9.485  0.00  0.00    -0.270 OA
ATOM      7  C   LIG    1       38.102  32.734   8.326  0.00  0.00    +0.023 C 
ATOM      8  C   LIG    1       37.223  33.580   9.149  0.00  0.00    +0.041 C 
ATOM      9  C   LIG    1       37.070  35.013   8.626  0.00  0.00    +0.005 C 
ATOM     10  C   LIG    1       37.951  35.489   7.454  0.00  0.00    +0.005 C 
ATOM     11  C   LIG    1       38.782  34.465   6.665  0.00  0.00    +0.041 C 
ATOM     12  C   LIG    1       38.780  33.114   7.249  0.00  0.00    +0.023 C 
ENDBRANCH   1   4
BRANCH   1  13
ATOM     13  O   LIG    1       40.972  29.448   8.127  0.00  0.00    -0.444 OA
BRANCH  13  14
ATOM     14  C   LIG    1       41.299  28.184   8.466  0.00  0.00    +0.313 C 
ATOM     15  O   LIG    1       42.426  27.708   8.460  0.00  0.00    -0.250 OA
BRANCH  14  16
ATOM     16  C   LIG    1       40.087  27.459   8.914  0.00  0.00    +0.111 C 
ATOM     17  C   LIG    1       39.424  27.578  10.277  0.00  0.00    -0.014 C 
ATOM     18  C   LIG    1       37.917  27.437  10.309  0.00  0.00    +0.012 C 
ATOM     19  C   LIG    1       39.935  28.552  11.310  0.00  0.00    +0.012 C 
ATOM     20  C   LIG    1       40.205  26.327   9.921  0.00  0.00    +0.032 C 
BRANCH  20  21
ATOM     21  C   LIG    1       41.515  26.012  10.516  0.00  0.00    -0.023 C 
ATOM     22  C   LIG    1       41.741  25.453  11.723  0.00  0.00    -0.079 C 
ATOM     23  C   LIG    1       43.138  25.179  12.207  0.00  0.00    +0.038 C 
ATOM     24  C   LIG    1       40.653  25.060  12.686  0.00  0.00    +0.038 C 
ENDBRANCH  20  21
ENDBRANCH  14  16
ENDBRANCH  13  14
ENDBRANCH   1  13
TORSDOF 5
ENDMDL
MODEL 4
REMARK VINA RESULT:      -8.5      1.320      2.726
REMARK  Name = 
REMARK                            x       y       z     vdW  Elec       q    Type
REMARK                         _______ _______ _______ _____ _____    ______ ____
ROOT
ATOM      1  C   LIG    1       40.279  29.400   7.736  0.00  0.00    +0.352 C 
ENDROOT
BRANCH   1   4
ATOM      2  O   LIG    1       40.385  31.641   5.897  0.00  0.00    -0.270 OA
ATOM      3  C   LIG    1       39.726  31.650   6.921  0.00  0.00    +0.252 C 
ATOM      4  N   LIG    1       39.601  30.672   7.855  0.00  0.00    -0.200 N 
ATOM      5  C   LIG    1       38.776  31.074   8.858  0.00  0.00    +0.252 C 
ATOM      6  O   LIG    1       38.414  30.500   9.868  0.00  0.00    -0.270 OA
ATOM      7  C   LIG    1       38.339  32.432   8.520  0.00  0.00    +0.023 C 
ATOM      8  C   LIG    1       37.428  33.257   9.330  0.00  0.00    +0.041 C 
ATOM      9  C   LIG    1       37.084  34.610   8.695  0.00  0.00    +0.005 C 
ATOM     10  C   LIG    1       37.828  35.061   7.422  0.00  0.00    +0.005 C 
ATOM     11  C   LIG    1       38.713  34.057   6.666  0.00  0.00    +0.041 C 
ATOM     12  C   LIG    1       38.899  32.775   7.365  0.00  0.00    +0.023 C 
ENDBRANCH   1   4
BRANCH   1  13
ATOM     13  O   LIG    1       41.333  29.323   8.681  0.00  0.00    -0.444 OA
BRANCH  13  14
ATOM     14  C   LIG    1       41.154  28.429   9.675  0.00  0.00    +0.313 C 
ATOM     15  O   LIG    1       40.664  27.314   9.558  0.00  0.00    -0.250 OA
BRANCH  14  16
ATOM     16  C   LIG    1       41.702  28.974  10.940  0.00  0.00    +0.111 C 
ATOM     17  C   LIG    1       43.018  28.578  11.590  0.00  0.00    -0.014 C 
ATOM     18  C   LIG    1       43.755  29.669  12.337  0.00  0.00    +0.012 C 
ATOM     19  C   LIG    1       43.953  27.600  10.925  0.00  0.00    +0.012 C 
ATOM     20  C   LIG    1       41.704  28.122  12.198  0.00  0.00    +0.032 C 
BRANCH  20  21
ATOM     21  C   LIG    1       41.243  26.725  12.136  0.00  0.00    -0.023 C 
ATOM     22  C   LIG    1       41.401  25.779  13.084  0.00  0.00    -0.079 C 
ATOM     23  C   LIG    1       40.872  24.384  12.891  0.00  0.00    +0.038 C 
ATOM     24  C   LIG    1       42.107  26.008  14.393  0.00  0.00    +0.038 C 
ENDBRANCH  20  21
ENDBRANCH  14  16
ENDBRANCH  13  14
ENDBRANCH   1  13
TORSDOF 5
ENDMDL
MODEL 5
REMARK VINA RESULT:      -8.5      1.190      2.886
REMARK  Name = 
REMARK                            x       y       z     vdW  Elec       q    Type
REMARK                         _______ _______ _______ _____ _____    ______ ____
ROOT
ATOM      1  C   LIG    1       41.213  29.542   8.114  0.00  0.00    +0.352 C 
ENDROOT
BRANCH   1   4
ATOM      2  O   LIG    1       39.427  30.418  10.225  0.00  0.00    -0.270 OA
ATOM      3  C   LIG    1       39.504  30.974   9.145  0.00  0.00    +0.252 C 
ATOM      4  N   LIG    1       40.292  30.658   8.085  0.00  0.00    -0.200 N 
ATOM      5  C   LIG    1       40.078  31.521   7.057  0.00  0.00    +0.252 C 
ATOM      6  O   LIG    1       40.576  31.577   5.948  0.00  0.00    -0.270 OA
ATOM      7  C   LIG    1       39.061  32.472   7.516  0.00  0.00    +0.023 C 
ATOM      8  C   LIG    1       38.525  33.590   6.723  0.00  0.00    +0.041 C 
ATOM      9  C   LIG    1       37.525  34.469   7.484  0.00  0.00    +0.005 C 
ATOM     10  C   LIG    1       37.036  34.029   8.878  0.00  0.00    +0.005 C 
ATOM     11  C   LIG    1       37.736  32.861   9.592  0.00  0.00    +0.041 C 
ATOM     12  C   LIG    1       38.721  32.152   8.760  0.00  0.00    +0.023 C 
ENDBRANCH   1   4
BRANCH   1  13
ATOM     13  O   LIG    1       40.496  28.321   8.055  0.00  0.00    -0.444 OA
BRANCH  13  14
ATOM     14  C   LIG    1       40.877  27.383   8.947  0.00  0.00    +0.313 C 
ATOM     15  O   LIG    1       40.162  26.507   9.416  0.00  0.00    -0.250 OA
BRANCH  14  16
ATOM     16  C   LIG    1       42.322  27.528   9.236  0.00  0.00    +0.111 C 
ATOM     17  C   LIG    1       43.166  26.585  10.079  0.00  0.00    -0.014 C 
ATOM     18  C   LIG    1       44.610  26.415   9.660  0.00  0.00    +0.012 C 
ATOM     19  C   LIG    1       42.579  25.322  10.658  0.00  0.00    +0.012 C 
ATOM     20  C   LIG    1       42.783  27.950  10.621  0.00  0.00    +0.032 C 
BRANCH  20  21
ATOM     21  C   LIG    1       41.794  28.129  11.697  0.00  0.00    -0.023 C 
ATOM     22  C   LIG    1       41.984  28.766  12.871  0.00  0.00    -0.079 C 
ATOM     23  C   LIG    1       40.878  28.880  13.885  0.00  0.00    +0.038 C 
ATOM     24  C   LIG    1       43.282  29.405  13.282  0.00  0.00    +0.038 C 
ENDBRANCH  20  21
ENDBRANCH  14  16
ENDBRANCH  13  14
ENDBRANCH   1  13
TORSDOF 5
ENDMDL
MODEL 6
REMARK VINA RESULT:      -8.3      2.138      6.701
REMARK  Name = 
REMARK                            x       y       z     vdW  Elec       q    Type
REMARK                         _______ _______ _______ _____ _____    ______ ____
ROOT
ATOM      1  C   LIG    1       38.819  27.371   8.422  0.00  0.00    +0.352 C 
ENDROOT
BRANCH   1   4
ATOM      2  O   LIG    1       38.223  25.816  10.798  0.00  0.00    -0.270 OA
ATOM      3  C   LIG    1       39.354  26.126  10.470  0.00  0.00    +0.252 C 
ATOM      4  N   LIG    1       39.756  26.848   9.392  0.00  0.00    -0.200 N 
ATOM      5  C   LIG    1       41.108  26.982   9.385  0.00  0.00    +0.252 C 
ATOM      6  O   LIG    1       41.847  27.551   8.603  0.00  0.00    -0.270 OA
ATOM      7  C   LIG    1       41.604  26.274  10.570  0.00  0.00    +0.023 C 
ATOM      8  C   LIG    1       43.019  26.158  10.959  0.00  0.00    +0.041 C 
ATOM      9  C   LIG    1       43.252  25.296  12.205  0.00  0.00    +0.005 C 
ATOM     10  C   LIG    1       42.043  24.804  13.024  0.00  0.00    +0.005 C 
ATOM     11  C   LIG    1       40.624  24.965  12.452  0.00  0.00    +0.041 C 
ATOM     12  C   LIG    1       40.563  25.760  11.214  0.00  0.00    +0.023 C 
ENDBRANCH   1   4
BRANCH   1  13
ATOM     13  O   LIG    1       38.240  28.571   8.905  0.00  0.00    -0.444 OA
BRANCH  13  14
ATOM     14  C   LIG    1       38.505  29.675   8.177  0.00  0.00    +0.313 C 
ATOM     15  O   LIG    1       39.087  29.702   7.101  0.00  0.00    -0.250 OA
BRANCH  14  16
ATOM     16  C   LIG    1       37.929  30.864   8.847  0.00  0.00    +0.111 C 
ATOM     17  C   LIG    1       38.292  32.314   8.568  0.00  0.00    -0.014 C 
ATOM     18  C   LIG    1       37.177  33.327   8.708  0.00  0.00    +0.012 C 
ATOM     19  C   LIG    1       39.269  32.676   7.478  0.00  0.00    +0.012 C 
ATOM     20  C   LIG    1       38.756  31.649   9.851  0.00  0.00    +0.032 C 
BRANCH  20  21
ATOM     21  C   LIG    1       40.160  31.277  10.090  0.00  0.00    -0.023 C 
ATOM     22  C   LIG    1       40.613  30.332  10.939  0.00  0.00    -0.079 C 
ATOM     23  C   LIG    1       42.083  30.050  11.082  0.00  0.00    +0.038 C 
ATOM     24  C   LIG    1       39.724  29.489  11.812  0.00  0.00    +0.038 C 
ENDBRANCH  20  21
ENDBRANCH  14  16
ENDBRANCH  13  14
ENDBRANCH   1  13
TORSDOF 5
ENDMDL
MODEL 7
REMARK VINA RESULT:      -8.3      2.059      7.312
REMARK  Name = 
REMARK                            x       y       z     vdW  Elec       q    Type
REMARK                         _______ _______ _______ _____ _____    ______ ____
ROOT
ATOM      1  C   LIG    1       42.065  28.393   8.711  0.00  0.00    +0.352 C 
ENDROOT
BRANCH   1   4
ATOM      2  O   LIG    1       42.457  29.547  11.344  0.00  0.00    -0.270 OA
ATOM      3  C   LIG    1       42.116  28.392  11.167  0.00  0.00    +0.252 C 
ATOM      4  N   LIG    1       41.906  27.742   9.993  0.00  0.00    -0.200 N 
ATOM      5  C   LIG    1       41.540  26.453  10.221  0.00  0.00    +0.252 C 
ATOM      6  O   LIG    1       41.269  25.554   9.446  0.00  0.00    -0.270 OA
ATOM      7  C   LIG    1       41.516  26.277  11.676  0.00  0.00    +0.023 C 
ATOM      8  C   LIG    1       41.167  25.029  12.375  0.00  0.00    +0.041 C 
ATOM      9  C   LIG    1       41.151  25.156  13.903  0.00  0.00    +0.005 C 
ATOM     10  C   LIG    1       41.662  26.452  14.561  0.00  0.00    +0.005 C 
ATOM     11  C   LIG    1       41.941  27.687  13.688  0.00  0.00    +0.041 C 
ATOM     12  C   LIG    1       41.853  27.430  12.242  0.00  0.00    +0.023 C 
ENDBRANCH   1   4
BRANCH   1  13
ATOM     13  O   LIG    1       40.799  28.776   8.203  0.00  0.00    -0.444 OA
BRANCH  13  14
ATOM     14  C   LIG    1       40.451  30.061   8.423  0.00  0.00    +0.313 C 
ATOM     15  O   LIG    1       40.867  31.033   7.807  0.00  0.00    -0.250 OA
BRANCH  14  16
ATOM     16  C   LIG    1       39.430  30.124   9.495  0.00  0.00    +0.111 C 
ATOM     17  C   LIG    1       37.965  29.740   9.360  0.00  0.00    -0.014 C 
ATOM     18  C   LIG    1       37.311  29.138  10.585  0.00  0.00    +0.012 C 
ATOM     19  C   LIG    1       37.425  29.166   8.075  0.00  0.00    +0.012 C 
ATOM     20  C   LIG    1       38.360  31.203   9.464  0.00  0.00    +0.032 C 
BRANCH  20  21
ATOM     21  C   LIG    1       38.287  32.128   8.321  0.00  0.00    -0.023 C 
ATOM     22  C   LIG    1       37.689  33.337   8.297  0.00  0.00    -0.079 C 
ATOM     23  C   LIG    1       37.694  34.186   7.055  0.00  0.00    +0.038 C 
ATOM     24  C   LIG    1       36.969  33.944   9.470  0.00  0.00    +0.038 C 
ENDBRANCH  20  21
ENDBRANCH  14  16
ENDBRANCH  13  14
ENDBRANCH   1  13
TORSDOF 5
ENDMDL
MODEL 8
REMARK VINA RESULT:      -8.2      2.019      7.564
REMARK  Name = 
REMARK                            x       y       z     vdW  Elec       q    Type
REMARK                         _______ _______ _______ _____ _____    ______ ____
ROOT
ATOM      1  C   LIG    1       42.273  30.292  10.786  0.00  0.00    +0.352 C 
ENDROOT
BRANCH   1   4
ATOM      2  O   LIG    1       42.224  27.624   9.648  0.00  0.00    -0.270 OA
ATOM      3  C   LIG    1       42.084  27.843  10.838  0.00  0.00    +0.252 C 
ATOM      4  N   LIG    1       42.083  29.038  11.484  0.00  0.00    -0.200 N 
ATOM      5  C   LIG    1       41.889  28.860  12.817  0.00  0.00    +0.252 C 
ATOM      6  O   LIG    1       41.822  29.666  13.726  0.00  0.00    -0.270 OA
ATOM      7  C   LIG    1       41.757  27.415  13.029  0.00  0.00    +0.023 C 
ATOM      8  C   LIG    1       41.536  26.765  14.331  0.00  0.00    +0.041 C 
ATOM      9  C   LIG    1       41.513  25.233  14.266  0.00  0.00    +0.005 C 
ATOM     10  C   LIG    1       41.527  24.533  12.893  0.00  0.00    +0.005 C 
ATOM     11  C   LIG    1       41.816  25.355  11.626  0.00  0.00    +0.041 C 
ATOM     12  C   LIG    1       41.878  26.807  11.854  0.00  0.00    +0.023 C 
ENDBRANCH   1   4
BRANCH   1  13
ATOM     13  O   LIG    1       41.029  30.954  10.635  0.00  0.00    -0.444 OA
BRANCH  13  14
ATOM     14  C   LIG    1       40.328  30.623   9.531  0.00  0.00    +0.313 C 
ATOM     15  O   LIG    1       40.767  30.574   8.390  0.00  0.00    -0.250 OA
BRANCH  14  16
ATOM     16  C   LIG    1       38.942  30.262   9.910  0.00  0.00    +0.111 C 
ATOM     17  C   LIG    1       37.952  29.488   9.055  0.00  0.00    -0.014 C 
ATOM     18  C   LIG    1       36.988  28.583   9.791  0.00  0.00    +0.012 C 
ATOM     19  C   LIG    1       38.350  28.935   7.709  0.00  0.00    +0.012 C 
ATOM     20  C   LIG    1       37.765  30.979   9.269  0.00  0.00    +0.032 C 
BRANCH  20  21
ATOM     21  C   LIG    1       38.004  31.970   8.207  0.00  0.00    -0.023 C 
ATOM     22  C   LIG    1       37.659  33.274   8.225  0.00  0.00    -0.079 C 
ATOM     23  C   LIG    1       37.971  34.180   7.066  0.00  0.00    +0.038 C 
ATOM     24  C   LIG    1       36.942  33.939   9.368  0.00  0.00    +0.038 C 
ENDBRANCH  20  21
ENDBRANCH  14  16
ENDBRANCH  13  14
ENDBRANCH   1  13
TORSDOF 5
ENDMDL
MODEL 9
REMARK VINA RESULT:      -8.0      2.155      7.707
REMARK  Name = 
REMARK                            x       y       z     vdW  Elec       q    Type
REMARK                         _______ _______ _______ _____ _____    ______ ____
ROOT
ATOM      1  C   LIG    1       39.129  28.540   8.253  0.00  0.00    +0.352 C 
ENDROOT
BRANCH   1   4
ATOM      2  O   LIG    1       42.003  28.270   8.541  0.00  0.00    -0.270 OA
ATOM      3  C   LIG    1       41.205  27.655   9.224  0.00  0.00    +0.252 C 
ATOM      4  N   LIG    1       39.848  27.693   9.180  0.00  0.00    -0.200 N 
ATOM      5  C   LIG    1       39.317  26.851  10.106  0.00  0.00    +0.252 C 
ATOM      6  O   LIG    1       38.159  26.597  10.379  0.00  0.00    -0.270 OA
ATOM      7  C   LIG    1       40.449  26.226  10.799  0.00  0.00    +0.023 C 
ATOM      8  C   LIG    1       40.339  25.241  11.887  0.00  0.00    +0.041 C 
ATOM      9  C   LIG    1       41.688  24.813  12.477  0.00  0.00    +0.005 C 
ATOM     10  C   LIG    1       42.992  25.272  11.796  0.00  0.00    +0.005 C 
ATOM     11  C   LIG    1       42.937  26.346  10.698  0.00  0.00    +0.041 C 
ATOM     12  C   LIG    1       41.573  26.707  10.280  0.00  0.00    +0.023 C 
ENDBRANCH   1   4
BRANCH   1  13
ATOM     13  O   LIG    1       38.750  29.746   8.892  0.00  0.00    -0.444 OA
BRANCH  13  14
ATOM     14  C   LIG    1       38.341  30.734   8.069  0.00  0.00    +0.313 C 
ATOM     15  O   LIG    1       37.407  31.496   8.274  0.00  0.00    -0.250 OA
BRANCH  14  16
ATOM     16  C   LIG    1       39.237  30.804   6.892  0.00  0.00    +0.111 C 
ATOM     17  C   LIG    1       40.694  31.238   6.899  0.00  0.00    -0.014 C 
ATOM     18  C   LIG    1       41.606  30.555   5.903  0.00  0.00    +0.012 C 
ATOM     19  C   LIG    1       41.399  31.578   8.189  0.00  0.00    +0.012 C 
ATOM     20  C   LIG    1       39.634  32.154   6.316  0.00  0.00    +0.032 C 
BRANCH  20  21
ATOM     21  C   LIG    1       39.197  33.391   6.986  0.00  0.00    -0.023 C 
ATOM     22  C   LIG    1       38.345  34.315   6.500  0.00  0.00    -0.079 C 
ATOM     23  C   LIG    1       37.979  35.537   7.298  0.00  0.00    +0.038 C 
ATOM     24  C   LIG    1       37.693  34.230   5.147  0.00  0.00    +0.038 C 
ENDBRANCH  20  21
ENDBRANCH  14  16
ENDBRANCH  13  14
ENDBRANCH   1  13
TORSDOF 5
ENDMDL
