MODEL 1
REMARK VINA RESULT:      -8.4      0.000      0.000
REMARK  Name = 
REMARK                            x       y       z     vdW  Elec       q    Type
REMARK                         _______ _______ _______ _____ _____    ______ ____
ROOT
ATOM      1  C   LIG    1        3.436  -0.941  20.471  0.00  0.00    +0.352 C 
ENDROOT
BRANCH   1   4
ATOM      2  O   LIG    1        2.275   0.142  22.899  0.00  0.00    -0.270 OA
ATOM      3  C   LIG    1        2.677   0.839  21.984  0.00  0.00    +0.252 C 
ATOM      4  N   LIG    1        3.232   0.452  20.807  0.00  0.00    -0.200 N 
ATOM      5  C   LIG    1        3.543   1.535  20.048  0.00  0.00    +0.252 C 
ATOM      6  O   LIG    1        4.046   1.614  18.942  0.00  0.00    -0.270 OA
ATOM      7  C   LIG    1        3.150   2.715  20.824  0.00  0.00    +0.023 C 
ATOM      8  C   LIG    1        3.308   4.112  20.385  0.00  0.00    +0.041 C 
ATOM      9  C   LIG    1        2.878   5.145  21.433  0.00  0.00    +0.005 C 
ATOM     10  C   LIG    1        2.171   4.672  22.718  0.00  0.00    +0.005 C 
ATOM     11  C   LIG    1        2.130   3.172  23.053  0.00  0.00    +0.041 C 
ATOM     12  C   LIG    1        2.639   2.304  21.978  0.00  0.00    +0.023 C 
ENDBRANCH   1   4
BRANCH   1  13
ATOM     13  O   LIG    1        4.771  -1.318  20.763  0.00  0.00    -0.444 OA
BRANCH  13  14
ATOM     14  C   LIG    1        5.571  -1.493  19.691  0.00  0.00    +0.313 C 
ATOM     15  O   LIG    1        5.215  -1.875  18.585  0.00  0.00    -0.250 OA
BRANCH  14  16
ATOM     16  C   LIG    1        6.956  -1.092  20.032  0.00  0.00    +0.111 C 
ATOM     17  C   LIG    1        8.228  -1.664  19.429  0.00  0.00    -0.014 C 
ATOM     18  C   LIG    1        9.391  -0.708  19.276  0.00  0.00    +0.012 C 
ATOM     19  C   LIG    1        8.174  -2.689  18.323  0.00  0.00    +0.012 C 
ATOM     20  C   LIG    1        7.837  -2.020  20.852  0.00  0.00    +0.032 C 
BRANCH  20  21
ATOM     21  C   LIG    1        7.342  -3.354  21.229  0.00  0.00    -0.023 C 
ATOM     22  C   LIG    1        8.087  -4.439  21.524  0.00  0.00    -0.079 C 
ATOM     23  C   LIG    1        7.447  -5.747  21.901  0.00  0.00    +0.038 C 
ATOM     24  C   LIG    1        9.591  -4.459  21.503  0.00  0.00    +0.038 C 
ENDBRANCH  20  21
ENDBRANCH  14  16
ENDBRANCH  13  14
ENDBRANCH   1  13
TORSDOF 5
ENDMDL
MODEL 2
REMARK VINA RESULT:      -8.3      0.078      1.815
REMARK  Name = 
REMARK                            x       y       z     vdW  Elec       q    Type
REMARK                         _______ _______ _______ _____ _____    ______ ____
ROOT
ATOM      1  C   LIG    1        3.431  -0.940  20.310  0.00  0.00    +0.352 C 
ENDROOT
BRANCH   1   4
ATOM      2  O   LIG    1        4.039   1.529  18.915  0.00  0.00    -0.270 OA
ATOM      3  C   LIG    1        3.536   1.497  20.023  0.00  0.00    +0.252 C 
ATOM      4  N   LIG    1        3.211   0.413  20.773  0.00  0.00    -0.200 N 
ATOM      5  C   LIG    1        2.675   0.798  21.961  0.00  0.00    +0.252 C 
ATOM      6  O   LIG    1        2.264   0.140  22.899  0.00  0.00    -0.270 OA
ATOM      7  C   LIG    1        2.659   2.264  21.956  0.00  0.00    +0.023 C 
ATOM      8  C   LIG    1        2.155   3.112  23.049  0.00  0.00    +0.041 C 
ATOM      9  C   LIG    1        2.192   4.613  22.739  0.00  0.00    +0.005 C 
ATOM     10  C   LIG    1        2.893   5.105  21.458  0.00  0.00    +0.005 C 
ATOM     11  C   LIG    1        3.322   4.087  20.389  0.00  0.00    +0.041 C 
ATOM     12  C   LIG    1        3.166   2.682  20.802  0.00  0.00    +0.023 C 
ENDBRANCH   1   4
BRANCH   1  13
ATOM     13  O   LIG    1        4.748  -1.354  20.630  0.00  0.00    -0.444 OA
BRANCH  13  14
ATOM     14  C   LIG    1        5.577  -1.512  19.578  0.00  0.00    +0.313 C 
ATOM     15  O   LIG    1        5.253  -1.884  18.458  0.00  0.00    -0.250 OA
BRANCH  14  16
ATOM     16  C   LIG    1        6.950  -1.106  19.960  0.00  0.00    +0.111 C 
ATOM     17  C   LIG    1        8.242  -1.677  19.397  0.00  0.00    -0.014 C 
ATOM     18  C   LIG    1        9.406  -0.717  19.277  0.00  0.00    +0.012 C 
ATOM     19  C   LIG    1        8.224  -2.706  18.295  0.00  0.00    +0.012 C 
ATOM     20  C   LIG    1        7.808  -2.028  20.809  0.00  0.00    +0.032 C 
BRANCH  20  21
ATOM     21  C   LIG    1        7.306  -3.362  21.176  0.00  0.00    -0.023 C 
ATOM     22  C   LIG    1        8.043  -4.432  21.539  0.00  0.00    -0.079 C 
ATOM     23  C   LIG    1        7.395  -5.742  21.896  0.00  0.00    +0.038 C 
ATOM     24  C   LIG    1        9.545  -4.432  21.618  0.00  0.00    +0.038 C 
ENDBRANCH  20  21
ENDBRANCH  14  16
ENDBRANCH  13  14
ENDBRANCH   1  13
TORSDOF 5
ENDMDL
MODEL 3
REMARK VINA RESULT:      -8.1      0.965      2.958
REMARK  Name = 
REMARK                            x       y       z     vdW  Elec       q    Type
REMARK                         _______ _______ _______ _____ _____    ______ ____
ROOT
ATOM      1  C   LIG    1        3.323  -0.775  20.658  0.00  0.00    +0.352 C 
ENDROOT
BRANCH   1   4
ATOM      2  O   LIG    1        3.831   1.613  19.092  0.00  0.00    -0.270 OA
ATOM      3  C   LIG    1        3.398   1.642  20.229  0.00  0.00    +0.252 C 
ATOM      4  N   LIG    1        3.126   0.602  21.058  0.00  0.00    -0.200 N 
ATOM      5  C   LIG    1        2.661   1.053  22.253  0.00  0.00    +0.252 C 
ATOM      6  O   LIG    1        2.312   0.449  23.250  0.00  0.00    -0.270 OA
ATOM      7  C   LIG    1        2.638   2.516  22.166  0.00  0.00    +0.023 C 
ATOM      8  C   LIG    1        2.198   3.424  23.238  0.00  0.00    +0.041 C 
ATOM      9  C   LIG    1        2.208   4.905  22.842  0.00  0.00    +0.005 C 
ATOM     10  C   LIG    1        2.827   5.325  21.495  0.00  0.00    +0.005 C 
ATOM     11  C   LIG    1        3.194   4.248  20.460  0.00  0.00    +0.041 C 
ATOM     12  C   LIG    1        3.071   2.869  20.961  0.00  0.00    +0.023 C 
ENDBRANCH   1   4
BRANCH   1  13
ATOM     13  O   LIG    1        4.595  -1.227  21.090  0.00  0.00    -0.444 OA
BRANCH  13  14
ATOM     14  C   LIG    1        5.474  -1.507  20.106  0.00  0.00    +0.313 C 
ATOM     15  O   LIG    1        5.869  -0.724  19.252  0.00  0.00    -0.250 OA
BRANCH  14  16
ATOM     16  C   LIG    1        5.948  -2.903  20.243  0.00  0.00    +0.111 C 
ATOM     17  C   LIG    1        7.049  -3.388  21.172  0.00  0.00    -0.014 C 
ATOM     18  C   LIG    1        6.883  -4.778  21.747  0.00  0.00    +0.012 C 
ATOM     19  C   LIG    1        7.732  -2.445  22.131  0.00  0.00    +0.012 C 
ATOM     20  C   LIG    1        7.299  -3.308  19.677  0.00  0.00    +0.032 C 
BRANCH  20  21
ATOM     21  C   LIG    1        8.173  -2.289  19.072  0.00  0.00    -0.023 C 
ATOM     22  C   LIG    1        9.483  -2.420  18.776  0.00  0.00    -0.079 C 
ATOM     23  C   LIG    1       10.258  -1.293  18.151  0.00  0.00    +0.038 C 
ATOM     24  C   LIG    1       10.285  -3.666  19.038  0.00  0.00    +0.038 C 
ENDBRANCH  20  21
ENDBRANCH  14  16
ENDBRANCH  13  14
ENDBRANCH   1  13
TORSDOF 5
ENDMDL
MODEL 4
REMARK VINA RESULT:      -8.0      1.115      2.619
REMARK  Name = 
REMARK                            x       y       z     vdW  Elec       q    Type
REMARK                         _______ _______ _______ _____ _____    ______ ____
ROOT
ATOM      1  C   LIG    1        3.419  -1.558  20.307  0.00  0.00    +0.352 C 
ENDROOT
BRANCH   1   4
ATOM      2  O   LIG    1        2.085  -0.472  22.642  0.00  0.00    -0.270 OA
ATOM      3  C   LIG    1        2.586   0.224  21.777  0.00  0.00    +0.252 C 
ATOM      4  N   LIG    1        3.228  -0.165  20.645  0.00  0.00    -0.200 N 
ATOM      5  C   LIG    1        3.636   0.918  19.933  0.00  0.00    +0.252 C 
ATOM      6  O   LIG    1        4.235   0.996  18.876  0.00  0.00    -0.270 OA
ATOM      7  C   LIG    1        3.213   2.100  20.691  0.00  0.00    +0.023 C 
ATOM      8  C   LIG    1        3.450   3.496  20.289  0.00  0.00    +0.041 C 
ATOM      9  C   LIG    1        2.962   4.529  21.312  0.00  0.00    +0.005 C 
ATOM     10  C   LIG    1        2.133   4.062  22.524  0.00  0.00    +0.005 C 
ATOM     11  C   LIG    1        2.018   2.559  22.831  0.00  0.00    +0.041 C 
ATOM     12  C   LIG    1        2.592   1.690  21.791  0.00  0.00    +0.023 C 
ENDBRANCH   1   4
BRANCH   1  13
ATOM     13  O   LIG    1        4.295  -2.167  21.240  0.00  0.00    -0.444 OA
BRANCH  13  14
ATOM     14  C   LIG    1        5.611  -2.017  20.983  0.00  0.00    +0.313 C 
ATOM     15  O   LIG    1        6.225  -0.959  20.986  0.00  0.00    -0.250 OA
BRANCH  14  16
ATOM     16  C   LIG    1        6.229  -3.343  20.752  0.00  0.00    +0.111 C 
ATOM     17  C   LIG    1        7.380  -3.944  21.542  0.00  0.00    -0.014 C 
ATOM     18  C   LIG    1        7.364  -5.447  21.719  0.00  0.00    +0.012 C 
ATOM     19  C   LIG    1        7.967  -3.228  22.732  0.00  0.00    +0.012 C 
ATOM     20  C   LIG    1        7.611  -3.441  20.128  0.00  0.00    +0.032 C 
BRANCH  20  21
ATOM     21  C   LIG    1        8.370  -2.213  19.837  0.00  0.00    -0.023 C 
ATOM     22  C   LIG    1        9.205  -2.007  18.798  0.00  0.00    -0.079 C 
ATOM     23  C   LIG    1        9.916  -0.694  18.617  0.00  0.00    +0.038 C 
ATOM     24  C   LIG    1        9.511  -3.038  17.746  0.00  0.00    +0.038 C 
ENDBRANCH  20  21
ENDBRANCH  14  16
ENDBRANCH  13  14
ENDBRANCH   1  13
TORSDOF 5
ENDMDL
MODEL 5
REMARK VINA RESULT:      -7.9      2.856      4.354
REMARK  Name = 
REMARK                            x       y       z     vdW  Elec       q    Type
REMARK                         _______ _______ _______ _____ _____    ______ ____
ROOT
ATOM      1  C   LIG    1        2.930  -0.325  21.153  0.00  0.00    +0.352 C 
ENDROOT
BRANCH   1   4
ATOM      2  O   LIG    1        2.055  -3.090  21.089  0.00  0.00    -0.270 OA
ATOM      3  C   LIG    1        1.871  -2.355  22.042  0.00  0.00    +0.252 C 
ATOM      4  N   LIG    1        2.226  -1.052  22.187  0.00  0.00    -0.200 N 
ATOM      5  C   LIG    1        1.833  -0.583  23.400  0.00  0.00    +0.252 C 
ATOM      6  O   LIG    1        1.958   0.516  23.907  0.00  0.00    -0.270 OA
ATOM      7  C   LIG    1        1.168  -1.698  24.083  0.00  0.00    +0.023 C 
ATOM      8  C   LIG    1        0.584  -1.639  25.433  0.00  0.00    +0.041 C 
ATOM      9  C   LIG    1        0.020  -2.978  25.925  0.00  0.00    +0.005 C 
ATOM     10  C   LIG    1       -0.064  -4.169  24.950  0.00  0.00    +0.005 C 
ATOM     11  C   LIG    1        0.641  -4.083  23.586  0.00  0.00    +0.041 C 
ATOM     12  C   LIG    1        1.194  -2.754  23.279  0.00  0.00    +0.023 C 
ENDBRANCH   1   4
BRANCH   1  13
ATOM     13  O   LIG    1        4.329  -0.417  21.362  0.00  0.00    -0.444 OA
BRANCH  13  14
ATOM     14  C   LIG    1        5.011  -1.097  20.418  0.00  0.00    +0.313 C 
ATOM     15  O   LIG    1        4.523  -1.824  19.564  0.00  0.00    -0.250 OA
BRANCH  14  16
ATOM     16  C   LIG    1        6.456  -0.786  20.526  0.00  0.00    +0.111 C 
ATOM     17  C   LIG    1        7.572  -1.423  19.714  0.00  0.00    -0.014 C 
ATOM     18  C   LIG    1        8.751  -0.536  19.376  0.00  0.00    +0.012 C 
ATOM     19  C   LIG    1        7.272  -2.424  18.627  0.00  0.00    +0.012 C 
ATOM     20  C   LIG    1        7.402  -1.778  21.180  0.00  0.00    +0.032 C 
BRANCH  20  21
ATOM     21  C   LIG    1        6.895  -3.087  21.626  0.00  0.00    -0.023 C 
ATOM     22  C   LIG    1        7.616  -4.210  21.820  0.00  0.00    -0.079 C 
ATOM     23  C   LIG    1        6.967  -5.484  22.286  0.00  0.00    +0.038 C 
ATOM     24  C   LIG    1        9.100  -4.307  21.593  0.00  0.00    +0.038 C 
ENDBRANCH  20  21
ENDBRANCH  14  16
ENDBRANCH  13  14
ENDBRANCH   1  13
TORSDOF 5
ENDMDL
MODEL 6
REMARK VINA RESULT:      -7.8      6.333      9.187
REMARK  Name = 
REMARK                            x       y       z     vdW  Elec       q    Type
REMARK                         _______ _______ _______ _____ _____    ______ ____
ROOT
ATOM      1  C   LIG    1        7.990  -4.461  26.091  0.00  0.00    +0.352 C 
ENDROOT
BRANCH   1   4
ATOM      2  O   LIG    1        6.429  -4.443  28.536  0.00  0.00    -0.270 OA
ATOM      3  C   LIG    1        7.642  -4.340  28.519  0.00  0.00    +0.252 C 
ATOM      4  N   LIG    1        8.476  -4.331  27.447  0.00  0.00    -0.200 N 
ATOM      5  C   LIG    1        9.767  -4.189  27.848  0.00  0.00    +0.252 C 
ATOM      6  O   LIG    1       10.798  -4.133  27.205  0.00  0.00    -0.270 OA
ATOM      7  C   LIG    1        9.742  -4.104  29.312  0.00  0.00    +0.023 C 
ATOM      8  C   LIG    1       10.925  -3.948  30.173  0.00  0.00    +0.041 C 
ATOM      9  C   LIG    1       10.608  -3.964  31.674  0.00  0.00    +0.005 C 
ATOM     10  C   LIG    1        9.139  -3.947  32.138  0.00  0.00    +0.005 C 
ATOM     11  C   LIG    1        8.016  -4.168  31.111  0.00  0.00    +0.041 C 
ATOM     12  C   LIG    1        8.480  -4.199  29.714  0.00  0.00    +0.023 C 
ENDBRANCH   1   4
BRANCH   1  13
ATOM     13  O   LIG    1        8.590  -3.477  25.265  0.00  0.00    -0.444 OA
BRANCH  13  14
ATOM     14  C   LIG    1        8.971  -3.901  24.042  0.00  0.00    +0.313 C 
ATOM     15  O   LIG    1       10.105  -3.849  23.586  0.00  0.00    -0.250 OA
BRANCH  14  16
ATOM     16  C   LIG    1        7.814  -4.505  23.342  0.00  0.00    +0.111 C 
ATOM     17  C   LIG    1        7.849  -5.204  21.992  0.00  0.00    -0.014 C 
ATOM     18  C   LIG    1        6.886  -6.356  21.804  0.00  0.00    +0.012 C 
ATOM     19  C   LIG    1        9.149  -5.410  21.255  0.00  0.00    +0.012 C 
ATOM     20  C   LIG    1        7.225  -3.825  22.117  0.00  0.00    +0.032 C 
BRANCH  20  21
ATOM     21  C   LIG    1        7.864  -2.613  21.576  0.00  0.00    -0.023 C 
ATOM     22  C   LIG    1        7.570  -1.995  20.414  0.00  0.00    -0.079 C 
ATOM     23  C   LIG    1        8.302  -0.753  19.984  0.00  0.00    +0.038 C 
ATOM     24  C   LIG    1        6.517  -2.470  19.451  0.00  0.00    +0.038 C 
ENDBRANCH  20  21
ENDBRANCH  14  16
ENDBRANCH  13  14
ENDBRANCH   1  13
TORSDOF 5
ENDMDL
MODEL 7
REMARK VINA RESULT:      -7.7      4.920      8.154
REMARK  Name = 
REMARK                            x       y       z     vdW  Elec       q    Type
REMARK                         _______ _______ _______ _____ _____    ______ ____
ROOT
ATOM      1  C   LIG    1        9.006  -4.144  23.706  0.00  0.00    +0.352 C 
ENDROOT
BRANCH   1   4
ATOM      2  O   LIG    1       11.142  -3.081  25.357  0.00  0.00    -0.270 OA
ATOM      3  C   LIG    1       10.128  -3.576  25.816  0.00  0.00    +0.252 C 
ATOM      4  N   LIG    1        9.069  -4.106  25.151  0.00  0.00    -0.200 N 
ATOM      5  C   LIG    1        8.137  -4.564  26.028  0.00  0.00    +0.252 C 
ATOM      6  O   LIG    1        7.062  -5.102  25.837  0.00  0.00    -0.270 OA
ATOM      7  C   LIG    1        8.659  -4.293  27.371  0.00  0.00    +0.023 C 
ATOM      8  C   LIG    1        7.972  -4.622  28.631  0.00  0.00    +0.041 C 
ATOM      9  C   LIG    1        8.718  -4.154  29.886  0.00  0.00    +0.005 C 
ATOM     10  C   LIG    1       10.143  -3.582  29.752  0.00  0.00    +0.005 C 
ATOM     11  C   LIG    1       10.699  -3.253  28.357  0.00  0.00    +0.041 C 
ATOM     12  C   LIG    1        9.841  -3.701  27.248  0.00  0.00    +0.023 C 
ENDBRANCH   1   4
BRANCH   1  13
ATOM     13  O   LIG    1        8.243  -3.050  23.226  0.00  0.00    -0.444 OA
BRANCH  13  14
ATOM     14  C   LIG    1        7.580  -3.269  22.072  0.00  0.00    +0.313 C 
ATOM     15  O   LIG    1        7.378  -4.360  21.557  0.00  0.00    -0.250 OA
BRANCH  14  16
ATOM     16  C   LIG    1        7.071  -1.984  21.538  0.00  0.00    +0.111 C 
ATOM     17  C   LIG    1        5.980  -1.817  20.493  0.00  0.00    -0.014 C 
ATOM     18  C   LIG    1        5.093  -0.599  20.633  0.00  0.00    +0.012 C 
ATOM     19  C   LIG    1        5.240  -3.011  19.942  0.00  0.00    +0.012 C 
ATOM     20  C   LIG    1        7.428  -1.551  20.126  0.00  0.00    +0.032 C 
BRANCH  20  21
ATOM     21  C   LIG    1        8.207  -2.452  19.260  0.00  0.00    -0.023 C 
ATOM     22  C   LIG    1        9.320  -2.143  18.565  0.00  0.00    -0.079 C 
ATOM     23  C   LIG    1       10.023  -3.169  17.718  0.00  0.00    +0.038 C 
ATOM     24  C   LIG    1        9.956  -0.779  18.557  0.00  0.00    +0.038 C 
ENDBRANCH  20  21
ENDBRANCH  14  16
ENDBRANCH  13  14
ENDBRANCH   1  13
TORSDOF 5
ENDMDL
MODEL 8
REMARK VINA RESULT:      -7.6      4.653      8.251
REMARK  Name = 
REMARK                            x       y       z     vdW  Elec       q    Type
REMARK                         _______ _______ _______ _____ _____    ______ ____
ROOT
ATOM      1  C   LIG    1        8.495  -4.533  23.851  0.00  0.00    +0.352 C 
ENDROOT
BRANCH   1   4
ATOM      2  O   LIG    1       11.307  -3.973  23.414  0.00  0.00    -0.270 OA
ATOM      3  C   LIG    1       10.748  -3.781  24.478  0.00  0.00    +0.252 C 
ATOM      4  N   LIG    1        9.449  -4.007  24.804  0.00  0.00    -0.200 N 
ATOM      5  C   LIG    1        9.216  -3.669  26.099  0.00  0.00    +0.252 C 
ATOM      6  O   LIG    1        8.199  -3.722  26.765  0.00  0.00    -0.270 OA
ATOM      7  C   LIG    1       10.490  -3.182  26.639  0.00  0.00    +0.023 C 
ATOM      8  C   LIG    1       10.702  -2.704  28.015  0.00  0.00    +0.041 C 
ATOM      9  C   LIG    1       12.120  -2.183  28.281  0.00  0.00    +0.005 C 
ATOM     10  C   LIG    1       13.209  -2.369  27.206  0.00  0.00    +0.005 C 
ATOM     11  C   LIG    1       12.812  -2.839  25.797  0.00  0.00    +0.041 C 
ATOM     12  C   LIG    1       11.402  -3.243  25.675  0.00  0.00    +0.023 C 
ENDBRANCH   1   4
BRANCH   1  13
ATOM     13  O   LIG    1        7.803  -3.469  23.221  0.00  0.00    -0.444 OA
BRANCH  13  14
ATOM     14  C   LIG    1        8.105  -3.273  21.920  0.00  0.00    +0.313 C 
ATOM     15  O   LIG    1        8.772  -4.021  21.218  0.00  0.00    -0.250 OA
BRANCH  14  16
ATOM     16  C   LIG    1        7.452  -2.034  21.439  0.00  0.00    +0.111 C 
ATOM     17  C   LIG    1        6.215  -1.957  20.559  0.00  0.00    -0.014 C 
ATOM     18  C   LIG    1        5.288  -0.785  20.799  0.00  0.00    +0.012 C 
ATOM     19  C   LIG    1        5.474  -3.204  20.145  0.00  0.00    +0.012 C 
ATOM     20  C   LIG    1        7.578  -1.624  19.981  0.00  0.00    +0.032 C 
BRANCH  20  21
ATOM     21  C   LIG    1        8.276  -2.507  19.031  0.00  0.00    -0.023 C 
ATOM     22  C   LIG    1        9.397  -2.223  18.338  0.00  0.00    -0.079 C 
ATOM     23  C   LIG    1       10.010  -3.226  17.399  0.00  0.00    +0.038 C 
ATOM     24  C   LIG    1       10.129  -0.911  18.421  0.00  0.00    +0.038 C 
ENDBRANCH  20  21
ENDBRANCH  14  16
ENDBRANCH  13  14
ENDBRANCH   1  13
TORSDOF 5
ENDMDL
MODEL 9
REMARK VINA RESULT:      -7.4      6.590     10.705
REMARK  Name = 
REMARK                            x       y       z     vdW  Elec       q    Type
REMARK                         _______ _______ _______ _____ _____    ______ ____
ROOT
ATOM      1  C   LIG    1       12.975  -5.320  21.578  0.00  0.00    +0.352 C 
ENDROOT
BRANCH   1   4
ATOM      2  O   LIG    1       15.018  -5.022  19.539  0.00  0.00    -0.270 OA
ATOM      3  C   LIG    1       15.042  -4.423  20.600  0.00  0.00    +0.252 C 
ATOM      4  N   LIG    1       14.154  -4.482  21.625  0.00  0.00    -0.200 N 
ATOM      5  C   LIG    1       14.542  -3.665  22.639  0.00  0.00    +0.252 C 
ATOM      6  O   LIG    1       14.029  -3.438  23.719  0.00  0.00    -0.270 OA
ATOM      7  C   LIG    1       15.792  -3.030  22.209  0.00  0.00    +0.023 C 
ATOM      8  C   LIG    1       16.568  -2.060  22.999  0.00  0.00    +0.041 C 
ATOM      9  C   LIG    1       17.795  -1.502  22.268  0.00  0.00    +0.005 C 
ATOM     10  C   LIG    1       18.211  -2.109  20.914  0.00  0.00    +0.005 C 
ATOM     11  C   LIG    1       17.261  -3.081  20.195  0.00  0.00    +0.041 C 
ATOM     12  C   LIG    1       16.089  -3.476  20.994  0.00  0.00    +0.023 C 
ENDBRANCH   1   4
BRANCH   1  13
ATOM     13  O   LIG    1       11.834  -4.570  21.957  0.00  0.00    -0.444 OA
BRANCH  13  14
ATOM     14  C   LIG    1       10.842  -4.524  21.043  0.00  0.00    +0.313 C 
ATOM     15  O   LIG    1       10.933  -4.076  19.908  0.00  0.00    -0.250 OA
BRANCH  14  16
ATOM     16  C   LIG    1        9.624  -5.159  21.597  0.00  0.00    +0.111 C 
ATOM     17  C   LIG    1        8.332  -4.449  21.968  0.00  0.00    -0.014 C 
ATOM     18  C   LIG    1        7.051  -5.227  21.762  0.00  0.00    +0.012 C 
ATOM     19  C   LIG    1        8.157  -2.971  21.719  0.00  0.00    +0.012 C 
ATOM     20  C   LIG    1        9.258  -4.959  23.058  0.00  0.00    +0.032 C 
BRANCH  20  21
ATOM     21  C   LIG    1       10.067  -4.060  23.897  0.00  0.00    -0.023 C 
ATOM     22  C   LIG    1        9.831  -3.723  25.182  0.00  0.00    -0.079 C 
ATOM     23  C   LIG    1       10.748  -2.793  25.927  0.00  0.00    +0.038 C 
ATOM     24  C   LIG    1        8.657  -4.221  25.980  0.00  0.00    +0.038 C 
ENDBRANCH  20  21
ENDBRANCH  14  16
ENDBRANCH  13  14
ENDBRANCH   1  13
TORSDOF 5
ENDMDL
