MODEL 1
REMARK VINA RESULT:      -9.2      0.000      0.000
REMARK  Name = 
REMARK                            x       y       z     vdW  Elec       q    Type
REMARK                         _______ _______ _______ _____ _____    ______ ____
ROOT
ATOM      1  C   LIG    1       11.420   3.323  30.840  0.00  0.00    +0.352 C 
ENDROOT
BRANCH   1   4
ATOM      2  O   LIG    1       13.416   3.735  32.903  0.00  0.00    -0.270 OA
ATOM      3  C   LIG    1       12.360   3.163  33.103  0.00  0.00    +0.252 C 
ATOM      4  N   LIG    1       11.357   2.907  32.224  0.00  0.00    -0.200 N 
ATOM      5  C   LIG    1       10.346   2.237  32.837  0.00  0.00    +0.252 C 
ATOM      6  O   LIG    1        9.285   1.828  32.403  0.00  0.00    -0.270 OA
ATOM      7  C   LIG    1       10.751   2.056  34.234  0.00  0.00    +0.023 C 
ATOM      8  C   LIG    1        9.953   1.379  35.269  0.00  0.00    +0.041 C 
ATOM      9  C   LIG    1       10.592   1.404  36.663  0.00  0.00    +0.005 C 
ATOM     10  C   LIG    1       12.030   1.933  36.827  0.00  0.00    +0.005 C 
ATOM     11  C   LIG    1       12.710   2.658  35.654  0.00  0.00    +0.041 C 
ATOM     12  C   LIG    1       11.947   2.610  34.397  0.00  0.00    +0.023 C 
ENDBRANCH   1   4
BRANCH   1  13
ATOM     13  O   LIG    1       11.612   2.194  30.004  0.00  0.00    -0.444 OA
BRANCH  13  14
ATOM     14  C   LIG    1       10.836   2.151  28.902  0.00  0.00    +0.313 C 
ATOM     15  O   LIG    1       11.058   2.726  27.845  0.00  0.00    -0.250 OA
BRANCH  14  16
ATOM     16  C   LIG    1        9.688   1.245  29.136  0.00  0.00    +0.111 C 
ATOM     17  C   LIG    1        9.040   0.335  28.104  0.00  0.00    -0.014 C 
ATOM     18  C   LIG    1        8.490  -0.979  28.615  0.00  0.00    +0.012 C 
ATOM     19  C   LIG    1        9.592   0.226  26.705  0.00  0.00    +0.012 C 
ATOM     20  C   LIG    1        8.319   1.587  28.571  0.00  0.00    +0.032 C 
BRANCH  20  21
ATOM     21  C   LIG    1        8.158   2.776  27.716  0.00  0.00    -0.023 C 
ATOM     22  C   LIG    1        7.117   3.052  26.905  0.00  0.00    -0.079 C 
ATOM     23  C   LIG    1        7.078   4.313  26.086  0.00  0.00    +0.038 C 
ATOM     24  C   LIG    1        5.922   2.154  26.732  0.00  0.00    +0.038 C 
ENDBRANCH  20  21
ENDBRANCH  14  16
ENDBRANCH  13  14
ENDBRANCH   1  13
TORSDOF 5
ENDMDL
MODEL 2
REMARK VINA RESULT:      -9.1      0.244      1.829
REMARK  Name = 
REMARK                            x       y       z     vdW  Elec       q    Type
REMARK                         _______ _______ _______ _____ _____    ______ ____
ROOT
ATOM      1  C   LIG    1       11.161   3.203  30.832  0.00  0.00    +0.352 C 
ENDROOT
BRANCH   1   4
ATOM      2  O   LIG    1        9.218   1.709  32.383  0.00  0.00    -0.270 OA
ATOM      3  C   LIG    1       10.246   2.157  32.857  0.00  0.00    +0.252 C 
ATOM      4  N   LIG    1       11.222   2.871  32.239  0.00  0.00    -0.200 N 
ATOM      5  C   LIG    1       12.206   3.195  33.119  0.00  0.00    +0.252 C 
ATOM      6  O   LIG    1       13.238   3.820  32.963  0.00  0.00    -0.270 OA
ATOM      7  C   LIG    1       11.812   2.629  34.413  0.00  0.00    +0.023 C 
ATOM      8  C   LIG    1       12.589   2.735  35.658  0.00  0.00    +0.041 C 
ATOM      9  C   LIG    1       11.972   1.982  36.843  0.00  0.00    +0.005 C 
ATOM     10  C   LIG    1       10.565   1.368  36.700  0.00  0.00    +0.005 C 
ATOM     11  C   LIG    1        9.906   1.296  35.313  0.00  0.00    +0.041 C 
ATOM     12  C   LIG    1       10.648   2.007  34.259  0.00  0.00    +0.023 C 
ENDBRANCH   1   4
BRANCH   1  13
ATOM     13  O   LIG    1       11.710   2.148  30.061  0.00  0.00    -0.444 OA
BRANCH  13  14
ATOM     14  C   LIG    1       11.056   1.868  28.915  0.00  0.00    +0.313 C 
ATOM     15  O   LIG    1       11.421   2.173  27.788  0.00  0.00    -0.250 OA
BRANCH  14  16
ATOM     16  C   LIG    1        9.843   1.072  29.215  0.00  0.00    +0.111 C 
ATOM     17  C   LIG    1        9.057   0.229  28.224  0.00  0.00    -0.014 C 
ATOM     18  C   LIG    1        8.416  -1.030  28.767  0.00  0.00    +0.012 C 
ATOM     19  C   LIG    1        9.517   0.073  26.796  0.00  0.00    +0.012 C 
ATOM     20  C   LIG    1        8.483   1.542  28.726  0.00  0.00    +0.032 C 
BRANCH  20  21
ATOM     21  C   LIG    1        8.386   2.742  27.879  0.00  0.00    -0.023 C 
ATOM     22  C   LIG    1        7.374   3.064  27.047  0.00  0.00    -0.079 C 
ATOM     23  C   LIG    1        7.402   4.333  26.239  0.00  0.00    +0.038 C 
ATOM     24  C   LIG    1        6.151   2.214  26.840  0.00  0.00    +0.038 C 
ENDBRANCH  20  21
ENDBRANCH  14  16
ENDBRANCH  13  14
ENDBRANCH   1  13
TORSDOF 5
ENDMDL
MODEL 3
REMARK VINA RESULT:      -9.0      3.658      7.383
REMARK  Name = 
REMARK                            x       y       z     vdW  Elec       q    Type
REMARK                         _______ _______ _______ _____ _____    ______ ____
ROOT
ATOM      1  C   LIG    1        6.518   3.034  25.988  0.00  0.00    +0.352 C 
ENDROOT
BRANCH   1   4
ATOM      2  O   LIG    1        8.078   5.452  25.625  0.00  0.00    -0.270 OA
ATOM      3  C   LIG    1        7.100   5.393  26.347  0.00  0.00    +0.252 C 
ATOM      4  N   LIG    1        6.298   4.327  26.600  0.00  0.00    -0.200 N 
ATOM      5  C   LIG    1        5.312   4.667  27.471  0.00  0.00    +0.252 C 
ATOM      6  O   LIG    1        4.406   4.007  27.944  0.00  0.00    -0.270 OA
ATOM      7  C   LIG    1        5.512   6.083  27.795  0.00  0.00    +0.023 C 
ATOM      8  C   LIG    1        4.668   6.873  28.705  0.00  0.00    +0.041 C 
ATOM      9  C   LIG    1        5.066   8.351  28.798  0.00  0.00    +0.005 C 
ATOM     10  C   LIG    1        6.366   8.829  28.121  0.00  0.00    +0.005 C 
ATOM     11  C   LIG    1        7.110   7.889  27.159  0.00  0.00    +0.041 C 
ATOM     12  C   LIG    1        6.572   6.519  27.124  0.00  0.00    +0.023 C 
ENDBRANCH   1   4
BRANCH   1  13
ATOM     13  O   LIG    1        6.320   2.007  26.944  0.00  0.00    -0.444 OA
BRANCH  13  14
ATOM     14  C   LIG    1        7.379   1.740  27.736  0.00  0.00    +0.313 C 
ATOM     15  O   LIG    1        7.423   1.887  28.950  0.00  0.00    -0.250 OA
BRANCH  14  16
ATOM     16  C   LIG    1        8.481   1.177  26.922  0.00  0.00    +0.111 C 
ATOM     17  C   LIG    1        9.063  -0.222  27.047  0.00  0.00    -0.014 C 
ATOM     18  C   LIG    1        9.550  -0.866  25.767  0.00  0.00    +0.012 C 
ATOM     19  C   LIG    1        8.483  -1.223  28.014  0.00  0.00    +0.012 C 
ATOM     20  C   LIG    1        9.857   0.976  27.536  0.00  0.00    +0.032 C 
BRANCH  20  21
ATOM     21  C   LIG    1       10.067   1.259  28.966  0.00  0.00    -0.023 C 
ATOM     22  C   LIG    1       11.204   1.698  29.544  0.00  0.00    -0.079 C 
ATOM     23  C   LIG    1       11.279   1.953  31.024  0.00  0.00    +0.038 C 
ATOM     24  C   LIG    1       12.481   1.964  28.795  0.00  0.00    +0.038 C 
ENDBRANCH  20  21
ENDBRANCH  14  16
ENDBRANCH  13  14
ENDBRANCH   1  13
TORSDOF 5
ENDMDL
MODEL 4
REMARK VINA RESULT:      -8.9      4.432      7.629
REMARK  Name = 
REMARK                            x       y       z     vdW  Elec       q    Type
REMARK                         _______ _______ _______ _____ _____    ______ ____
ROOT
ATOM      1  C   LIG    1        6.588   3.531  25.685  0.00  0.00    +0.352 C 
ENDROOT
BRANCH   1   4
ATOM      2  O   LIG    1        4.757   4.186  27.837  0.00  0.00    -0.270 OA
ATOM      3  C   LIG    1        5.509   5.000  27.331  0.00  0.00    +0.252 C 
ATOM      4  N   LIG    1        6.400   4.816  26.324  0.00  0.00    -0.200 N 
ATOM      5  C   LIG    1        7.047   5.977  26.042  0.00  0.00    +0.252 C 
ATOM      6  O   LIG    1        7.906   6.230  25.217  0.00  0.00    -0.270 OA
ATOM      7  C   LIG    1        6.512   6.987  26.961  0.00  0.00    +0.023 C 
ATOM      8  C   LIG    1        6.932   8.397  27.011  0.00  0.00    +0.041 C 
ATOM      9  C   LIG    1        6.257   9.207  28.124  0.00  0.00    +0.005 C 
ATOM     10  C   LIG    1        5.111   8.572  28.936  0.00  0.00    +0.005 C 
ATOM     11  C   LIG    1        4.828   7.067  28.798  0.00  0.00    +0.041 C 
ATOM     12  C   LIG    1        5.600   6.407  27.733  0.00  0.00    +0.023 C 
ENDBRANCH   1   4
BRANCH   1  13
ATOM     13  O   LIG    1        7.702   2.865  26.255  0.00  0.00    -0.444 OA
BRANCH  13  14
ATOM     14  C   LIG    1        7.422   1.705  26.885  0.00  0.00    +0.313 C 
ATOM     15  O   LIG    1        6.408   1.463  27.525  0.00  0.00    -0.250 OA
BRANCH  14  16
ATOM     16  C   LIG    1        8.507   0.728  26.635  0.00  0.00    +0.111 C 
ATOM     17  C   LIG    1        9.008  -0.324  27.612  0.00  0.00    -0.014 C 
ATOM     18  C   LIG    1        9.485  -1.629  27.012  0.00  0.00    +0.012 C 
ATOM     19  C   LIG    1        8.354  -0.511  28.958  0.00  0.00    +0.012 C 
ATOM     20  C   LIG    1        9.857   0.899  27.313  0.00  0.00    +0.032 C 
BRANCH  20  21
ATOM     21  C   LIG    1       10.053   1.987  28.286  0.00  0.00    -0.023 C 
ATOM     22  C   LIG    1       11.206   2.326  28.897  0.00  0.00    -0.079 C 
ATOM     23  C   LIG    1       11.267   3.470  29.872  0.00  0.00    +0.038 C 
ATOM     24  C   LIG    1       12.515   1.616  28.679  0.00  0.00    +0.038 C 
ENDBRANCH  20  21
ENDBRANCH  14  16
ENDBRANCH  13  14
ENDBRANCH   1  13
TORSDOF 5
ENDMDL
MODEL 5
REMARK VINA RESULT:      -8.8      8.741     10.350
REMARK  Name = 
REMARK                            x       y       z     vdW  Elec       q    Type
REMARK                         _______ _______ _______ _____ _____    ______ ____
ROOT
ATOM      1  C   LIG    1       19.376   4.573  26.035  0.00  0.00    +0.352 C 
ENDROOT
BRANCH   1   4
ATOM      2  O   LIG    1       20.474   6.929  27.323  0.00  0.00    -0.270 OA
ATOM      3  C   LIG    1       19.533   6.301  27.773  0.00  0.00    +0.252 C 
ATOM      4  N   LIG    1       18.938   5.190  27.268  0.00  0.00    -0.200 N 
ATOM      5  C   LIG    1       17.921   4.786  28.074  0.00  0.00    +0.252 C 
ATOM      6  O   LIG    1       17.154   3.846  27.976  0.00  0.00    -0.270 OA
ATOM      7  C   LIG    1       17.870   5.735  29.190  0.00  0.00    +0.023 C 
ATOM      8  C   LIG    1       16.912   5.683  30.306  0.00  0.00    +0.041 C 
ATOM      9  C   LIG    1       17.042   6.850  31.292  0.00  0.00    +0.005 C 
ATOM     10  C   LIG    1       18.225   7.828  31.157  0.00  0.00    +0.005 C 
ATOM     11  C   LIG    1       19.110   7.778  29.901  0.00  0.00    +0.041 C 
ATOM     12  C   LIG    1       18.825   6.641  29.011  0.00  0.00    +0.023 C 
ENDBRANCH   1   4
BRANCH   1  13
ATOM     13  O   LIG    1       18.547   4.990  24.964  0.00  0.00    -0.444 OA
BRANCH  13  14
ATOM     14  C   LIG    1       18.912   4.548  23.743  0.00  0.00    +0.313 C 
ATOM     15  O   LIG    1       20.057   4.319  23.376  0.00  0.00    -0.250 OA
BRANCH  14  16
ATOM     16  C   LIG    1       17.706   4.317  22.915  0.00  0.00    +0.111 C 
ATOM     17  C   LIG    1       16.432   3.619  23.363  0.00  0.00    -0.014 C 
ATOM     18  C   LIG    1       15.139   4.125  22.761  0.00  0.00    +0.012 C 
ATOM     19  C   LIG    1       16.262   3.147  24.785  0.00  0.00    +0.012 C 
ATOM     20  C   LIG    1       17.385   2.920  22.410  0.00  0.00    +0.032 C 
BRANCH  20  21
ATOM     21  C   LIG    1       18.226   1.783  22.821  0.00  0.00    -0.023 C 
ATOM     22  C   LIG    1       18.932   0.967  22.012  0.00  0.00    -0.079 C 
ATOM     23  C   LIG    1       19.759  -0.160  22.568  0.00  0.00    +0.038 C 
ATOM     24  C   LIG    1       18.961   1.087  20.512  0.00  0.00    +0.038 C 
ENDBRANCH  20  21
ENDBRANCH  14  16
ENDBRANCH  13  14
ENDBRANCH   1  13
TORSDOF 5
ENDMDL
MODEL 6
REMARK VINA RESULT:      -8.6      4.405      7.409
REMARK  Name = 
REMARK                            x       y       z     vdW  Elec       q    Type
REMARK                         _______ _______ _______ _____ _____    ______ ____
ROOT
ATOM      1  C   LIG    1        6.600   3.514  25.686  0.00  0.00    +0.352 C 
ENDROOT
BRANCH   1   4
ATOM      2  O   LIG    1        7.901   6.075  25.279  0.00  0.00    -0.270 OA
ATOM      3  C   LIG    1        7.024   5.897  26.105  0.00  0.00    +0.252 C 
ATOM      4  N   LIG    1        6.349   4.753  26.389  0.00  0.00    -0.200 N 
ATOM      5  C   LIG    1        5.450   4.966  27.386  0.00  0.00    +0.252 C 
ATOM      6  O   LIG    1        4.664   4.208  27.924  0.00  0.00    -0.270 OA
ATOM      7  C   LIG    1        5.570   6.378  27.762  0.00  0.00    +0.023 C 
ATOM      8  C   LIG    1        4.779   7.048  28.807  0.00  0.00    +0.041 C 
ATOM      9  C   LIG    1        5.063   8.550  28.935  0.00  0.00    +0.005 C 
ATOM     10  C   LIG    1        6.228   9.171  28.140  0.00  0.00    +0.005 C 
ATOM     11  C   LIG    1        6.927   8.344  27.048  0.00  0.00    +0.041 C 
ATOM     12  C   LIG    1        6.503   6.935  26.999  0.00  0.00    +0.023 C 
ENDBRANCH   1   4
BRANCH   1  13
ATOM     13  O   LIG    1        6.788   2.460  26.615  0.00  0.00    -0.444 OA
BRANCH  13  14
ATOM     14  C   LIG    1        7.998   2.425  27.212  0.00  0.00    +0.313 C 
ATOM     15  O   LIG    1        8.896   3.242  27.063  0.00  0.00    -0.250 OA
BRANCH  14  16
ATOM     16  C   LIG    1        8.063   1.269  28.136  0.00  0.00    +0.111 C 
ATOM     17  C   LIG    1        9.324   0.690  28.758  0.00  0.00    -0.014 C 
ATOM     18  C   LIG    1        9.186   0.116  30.152  0.00  0.00    +0.012 C 
ATOM     19  C   LIG    1       10.671   1.327  28.527  0.00  0.00    +0.012 C 
ATOM     20  C   LIG    1        8.609  -0.064  27.651  0.00  0.00    +0.032 C 
BRANCH  20  21
ATOM     21  C   LIG    1        9.154  -0.178  26.288  0.00  0.00    -0.023 C 
ATOM     22  C   LIG    1        9.391  -1.317  25.605  0.00  0.00    -0.079 C 
ATOM     23  C   LIG    1        9.949  -1.289  24.209  0.00  0.00    +0.038 C 
ATOM     24  C   LIG    1        9.137  -2.695  26.153  0.00  0.00    +0.038 C 
ENDBRANCH  20  21
ENDBRANCH  14  16
ENDBRANCH  13  14
ENDBRANCH   1  13
TORSDOF 5
ENDMDL
MODEL 7
REMARK VINA RESULT:      -8.6      8.812     10.202
REMARK  Name = 
REMARK                            x       y       z     vdW  Elec       q    Type
REMARK                         _______ _______ _______ _____ _____    ______ ____
ROOT
ATOM      1  C   LIG    1       19.944   4.733  25.482  0.00  0.00    +0.352 C 
ENDROOT
BRANCH   1   4
ATOM      2  O   LIG    1       20.599   7.119  26.996  0.00  0.00    -0.270 OA
ATOM      3  C   LIG    1       19.748   6.321  27.345  0.00  0.00    +0.252 C 
ATOM      4  N   LIG    1       19.358   5.176  26.728  0.00  0.00    -0.200 N 
ATOM      5  C   LIG    1       18.380   4.559  27.442  0.00  0.00    +0.252 C 
ATOM      6  O   LIG    1       17.775   3.524  27.234  0.00  0.00    -0.270 OA
ATOM      7  C   LIG    1       18.130   5.398  28.619  0.00  0.00    +0.023 C 
ATOM      8  C   LIG    1       17.141   5.111  29.671  0.00  0.00    +0.041 C 
ATOM      9  C   LIG    1       17.041   6.202  30.744  0.00  0.00    +0.005 C 
ATOM     10  C   LIG    1       18.062   7.357  30.748  0.00  0.00    +0.005 C 
ATOM     11  C   LIG    1       19.001   7.542  29.545  0.00  0.00    +0.041 C 
ATOM     12  C   LIG    1       18.939   6.449  28.561  0.00  0.00    +0.023 C 
ENDBRANCH   1   4
BRANCH   1  13
ATOM     13  O   LIG    1       19.031   4.941  24.417  0.00  0.00    -0.444 OA
BRANCH  13  14
ATOM     14  C   LIG    1       19.283   4.239  23.293  0.00  0.00    +0.313 C 
ATOM     15  O   LIG    1       19.675   4.702  22.231  0.00  0.00    -0.250 OA
BRANCH  14  16
ATOM     16  C   LIG    1       19.073   2.795  23.550  0.00  0.00    +0.111 C 
ATOM     17  C   LIG    1       18.864   1.719  22.497  0.00  0.00    -0.014 C 
ATOM     18  C   LIG    1       19.423   0.349  22.813  0.00  0.00    +0.012 C 
ATOM     19  C   LIG    1       18.930   2.045  21.026  0.00  0.00    +0.012 C 
ATOM     20  C   LIG    1       17.698   2.179  23.353  0.00  0.00    +0.032 C 
BRANCH  20  21
ATOM     21  C   LIG    1       16.598   3.001  22.822  0.00  0.00    -0.023 C 
ATOM     22  C   LIG    1       15.701   3.711  23.537  0.00  0.00    -0.079 C 
ATOM     23  C   LIG    1       14.625   4.516  22.861  0.00  0.00    +0.038 C 
ATOM     24  C   LIG    1       15.677   3.766  25.040  0.00  0.00    +0.038 C 
ENDBRANCH  20  21
ENDBRANCH  14  16
ENDBRANCH  13  14
ENDBRANCH   1  13
TORSDOF 5
ENDMDL
MODEL 8
REMARK VINA RESULT:      -8.5      1.362      2.845
REMARK  Name = 
REMARK                            x       y       z     vdW  Elec       q    Type
REMARK                         _______ _______ _______ _____ _____    ______ ____
ROOT
ATOM      1  C   LIG    1       10.610   2.602  30.482  0.00  0.00    +0.352 C 
ENDROOT
BRANCH   1   4
ATOM      2  O   LIG    1       12.919   3.318  32.084  0.00  0.00    -0.270 OA
ATOM      3  C   LIG    1       11.924   2.793  32.548  0.00  0.00    +0.252 C 
ATOM      4  N   LIG    1       10.791   2.410  31.905  0.00  0.00    -0.200 N 
ATOM      5  C   LIG    1        9.912   1.852  32.778  0.00  0.00    +0.252 C 
ATOM      6  O   LIG    1        8.801   1.387  32.601  0.00  0.00    -0.270 OA
ATOM      7  C   LIG    1       10.552   1.890  34.096  0.00  0.00    +0.023 C 
ATOM      8  C   LIG    1        9.954   1.391  35.345  0.00  0.00    +0.041 C 
ATOM      9  C   LIG    1       10.820   1.629  36.588  0.00  0.00    +0.005 C 
ATOM     10  C   LIG    1       12.255   2.167  36.420  0.00  0.00    +0.005 C 
ATOM     11  C   LIG    1       12.712   2.693  35.050  0.00  0.00    +0.041 C 
ATOM     12  C   LIG    1       11.747   2.454  33.964  0.00  0.00    +0.023 C 
ENDBRANCH   1   4
BRANCH   1  13
ATOM     13  O   LIG    1       10.376   1.354  29.851  0.00  0.00    -0.444 OA
BRANCH  13  14
ATOM     14  C   LIG    1        9.169   1.221  29.262  0.00  0.00    +0.313 C 
ATOM     15  O   LIG    1        8.186   0.683  29.754  0.00  0.00    -0.250 OA
BRANCH  14  16
ATOM     16  C   LIG    1        9.186   1.882  27.937  0.00  0.00    +0.111 C 
ATOM     17  C   LIG    1        8.033   1.933  26.947  0.00  0.00    -0.014 C 
ATOM     18  C   LIG    1        7.922   3.186  26.105  0.00  0.00    +0.012 C 
ATOM     19  C   LIG    1        6.687   1.344  27.287  0.00  0.00    +0.012 C 
ATOM     20  C   LIG    1        9.233   1.046  26.669  0.00  0.00    +0.032 C 
BRANCH  20  21
ATOM     21  C   LIG    1        9.173  -0.423  26.759  0.00  0.00    -0.023 C 
ATOM     22  C   LIG    1        9.316  -1.301  25.746  0.00  0.00    -0.079 C 
ATOM     23  C   LIG    1        9.236  -2.785  25.981  0.00  0.00    +0.038 C 
ATOM     24  C   LIG    1        9.556  -0.904  24.315  0.00  0.00    +0.038 C 
ENDBRANCH  20  21
ENDBRANCH  14  16
ENDBRANCH  13  14
ENDBRANCH   1  13
TORSDOF 5
ENDMDL
MODEL 9
REMARK VINA RESULT:      -8.5      2.385      4.614
REMARK  Name = 
REMARK                            x       y       z     vdW  Elec       q    Type
REMARK                         _______ _______ _______ _____ _____    ______ ____
ROOT
ATOM      1  C   LIG    1        9.331   1.661  27.844  0.00  0.00    +0.352 C 
ENDROOT
BRANCH   1   4
ATOM      2  O   LIG    1        8.828   0.230  30.316  0.00  0.00    -0.270 OA
ATOM      3  C   LIG    1        9.606   1.162  30.233  0.00  0.00    +0.252 C 
ATOM      4  N   LIG    1        9.920   1.907  29.142  0.00  0.00    -0.200 N 
ATOM      5  C   LIG    1       10.831   2.864  29.464  0.00  0.00    +0.252 C 
ATOM      6  O   LIG    1       11.359   3.722  28.781  0.00  0.00    -0.270 OA
ATOM      7  C   LIG    1       11.118   2.703  30.893  0.00  0.00    +0.023 C 
ATOM      8  C   LIG    1       12.057   3.529  31.669  0.00  0.00    +0.041 C 
ATOM      9  C   LIG    1       12.215   3.086  33.128  0.00  0.00    +0.005 C 
ATOM     10  C   LIG    1       11.287   1.993  33.693  0.00  0.00    +0.005 C 
ATOM     11  C   LIG    1       10.393   1.188  32.736  0.00  0.00    +0.041 C 
ATOM     12  C   LIG    1       10.394   1.688  31.352  0.00  0.00    +0.023 C 
ENDBRANCH   1   4
BRANCH   1  13
ATOM     13  O   LIG    1        8.607   2.802  27.416  0.00  0.00    -0.444 OA
BRANCH  13  14
ATOM     14  C   LIG    1        7.322   2.577  27.074  0.00  0.00    +0.313 C 
ATOM     15  O   LIG    1        6.643   1.621  27.424  0.00  0.00    -0.250 OA
BRANCH  14  16
ATOM     16  C   LIG    1        6.821   3.702  26.250  0.00  0.00    +0.111 C 
ATOM     17  C   LIG    1        7.174   5.170  26.429  0.00  0.00    -0.014 C 
ATOM     18  C   LIG    1        7.245   6.004  25.168  0.00  0.00    +0.012 C 
ATOM     19  C   LIG    1        8.172   5.610  27.470  0.00  0.00    +0.012 C 
ATOM     20  C   LIG    1        5.797   4.668  26.822  0.00  0.00    +0.032 C 
BRANCH  20  21
ATOM     21  C   LIG    1        5.370   4.535  28.225  0.00  0.00    -0.023 C 
ATOM     22  C   LIG    1        4.732   5.463  28.967  0.00  0.00    -0.079 C 
ATOM     23  C   LIG    1        4.348   5.192  30.395  0.00  0.00    +0.038 C 
ATOM     24  C   LIG    1        4.354   6.829  28.463  0.00  0.00    +0.038 C 
ENDBRANCH  20  21
ENDBRANCH  14  16
ENDBRANCH  13  14
ENDBRANCH   1  13
TORSDOF 5
ENDMDL
