MODEL 1
REMARK VINA RESULT:      -2.9      0.000      0.000
REMARK  Name = 
REMARK                            x       y       z     vdW  Elec       q    Type
REMARK                         _______ _______ _______ _____ _____    ______ ____
ROOT
ATOM      1  C   LIG    1       16.366   1.305  55.459  0.00  0.00    +0.352 C 
ENDROOT
BRANCH   1   4
ATOM      2  O   LIG    1       16.796  -1.006  53.758  0.00  0.00    -0.270 OA
ATOM      3  C   LIG    1       16.044  -0.094  53.465  0.00  0.00    +0.252 C 
ATOM      4  N   LIG    1       15.765   1.033  54.171  0.00  0.00    -0.200 N 
ATOM      5  C   LIG    1       14.877   1.809  53.497  0.00  0.00    +0.252 C 
ATOM      6  O   LIG    1       14.382   2.884  53.784  0.00  0.00    -0.270 OA
ATOM      7  C   LIG    1       14.565   1.103  52.251  0.00  0.00    +0.023 C 
ATOM      8  C   LIG    1       13.638   1.581  51.212  0.00  0.00    +0.041 C 
ATOM      9  C   LIG    1       13.447   0.600  50.049  0.00  0.00    +0.005 C 
ATOM     10  C   LIG    1       14.338  -0.655  49.963  0.00  0.00    +0.005 C 
ATOM     11  C   LIG    1       15.223  -1.041  51.160  0.00  0.00    +0.041 C 
ATOM     12  C   LIG    1       15.255  -0.032  52.231  0.00  0.00    +0.023 C 
ENDBRANCH   1   4
BRANCH   1  13
ATOM     13  O   LIG    1       16.967   2.588  55.451  0.00  0.00    -0.444 OA
BRANCH  13  14
ATOM     14  C   LIG    1       18.152   2.668  54.811  0.00  0.00    +0.313 C 
ATOM     15  O   LIG    1       19.065   1.856  54.887  0.00  0.00    -0.250 OA
BRANCH  14  16
ATOM     16  C   LIG    1       18.168   3.866  53.940  0.00  0.00    +0.111 C 
ATOM     17  C   LIG    1       18.065   3.873  52.423  0.00  0.00    -0.014 C 
ATOM     18  C   LIG    1       17.347   5.051  51.801  0.00  0.00    +0.012 C 
ATOM     19  C   LIG    1       17.853   2.594  51.651  0.00  0.00    +0.012 C 
ATOM     20  C   LIG    1       19.392   4.176  53.094  0.00  0.00    +0.032 C 
BRANCH  20  21
ATOM     21  C   LIG    1       20.525   3.236  53.075  0.00  0.00    -0.023 C 
ATOM     22  C   LIG    1       21.489   3.151  52.136  0.00  0.00    -0.079 C 
ATOM     23  C   LIG    1       22.598   2.140  52.244  0.00  0.00    +0.038 C 
ATOM     24  C   LIG    1       21.553   4.026  50.913  0.00  0.00    +0.038 C 
ENDBRANCH  20  21
ENDBRANCH  14  16
ENDBRANCH  13  14
ENDBRANCH   1  13
TORSDOF 5
ENDMDL
MODEL 2
REMARK VINA RESULT:      -2.8      1.693      5.195
REMARK  Name = 
REMARK                            x       y       z     vdW  Elec       q    Type
REMARK                         _______ _______ _______ _____ _____    ______ ____
ROOT
ATOM      1  C   LIG    1       18.425   0.823  55.316  0.00  0.00    +0.352 C 
ENDROOT
BRANCH   1   4
ATOM      2  O   LIG    1       20.641   0.244  53.535  0.00  0.00    -0.270 OA
ATOM      3  C   LIG    1       20.295   1.376  53.822  0.00  0.00    +0.252 C 
ATOM      4  N   LIG    1       19.286   1.770  54.641  0.00  0.00    -0.200 N 
ATOM      5  C   LIG    1       19.228   3.126  54.708  0.00  0.00    +0.252 C 
ATOM      6  O   LIG    1       18.479   3.861  55.324  0.00  0.00    -0.270 OA
ATOM      7  C   LIG    1       20.302   3.633  53.847  0.00  0.00    +0.023 C 
ATOM      8  C   LIG    1       20.607   5.054  53.618  0.00  0.00    +0.041 C 
ATOM      9  C   LIG    1       21.738   5.293  52.610  0.00  0.00    +0.005 C 
ATOM     10  C   LIG    1       22.555   4.094  52.090  0.00  0.00    +0.005 C 
ATOM     11  C   LIG    1       22.073   2.663  52.384  0.00  0.00    +0.041 C 
ATOM     12  C   LIG    1       20.935   2.593  53.316  0.00  0.00    +0.023 C 
ENDBRANCH   1   4
BRANCH   1  13
ATOM     13  O   LIG    1       17.075   1.245  55.225  0.00  0.00    -0.444 OA
BRANCH  13  14
ATOM     14  C   LIG    1       16.479   1.024  54.035  0.00  0.00    +0.313 C 
ATOM     15  O   LIG    1       16.582   0.010  53.358  0.00  0.00    -0.250 OA
BRANCH  14  16
ATOM     16  C   LIG    1       15.618   2.179  53.687  0.00  0.00    +0.111 C 
ATOM     17  C   LIG    1       14.727   2.295  52.461  0.00  0.00    -0.014 C 
ATOM     18  C   LIG    1       13.438   3.068  52.635  0.00  0.00    +0.012 C 
ATOM     19  C   LIG    1       14.587   1.150  51.488  0.00  0.00    +0.012 C 
ATOM     20  C   LIG    1       16.009   3.103  52.546  0.00  0.00    +0.032 C 
BRANCH  20  21
ATOM     21  C   LIG    1       17.196   2.797  51.731  0.00  0.00    -0.023 C 
ATOM     22  C   LIG    1       17.965   3.679  51.060  0.00  0.00    -0.079 C 
ATOM     23  C   LIG    1       19.160   3.227  50.266  0.00  0.00    +0.038 C 
ATOM     24  C   LIG    1       17.714   5.162  51.029  0.00  0.00    +0.038 C 
ENDBRANCH  20  21
ENDBRANCH  14  16
ENDBRANCH  13  14
ENDBRANCH   1  13
TORSDOF 5
ENDMDL
MODEL 3
REMARK VINA RESULT:      -2.7      2.655      5.876
REMARK  Name = 
REMARK                            x       y       z     vdW  Elec       q    Type
REMARK                         _______ _______ _______ _____ _____    ______ ____
ROOT
ATOM      1  C   LIG    1       16.865   5.867  54.570  0.00  0.00    +0.352 C 
ENDROOT
BRANCH   1   4
ATOM      2  O   LIG    1       19.737   6.022  54.941  0.00  0.00    -0.270 OA
ATOM      3  C   LIG    1       19.191   6.238  53.875  0.00  0.00    +0.252 C 
ATOM      4  N   LIG    1       17.866   6.201  53.580  0.00  0.00    -0.200 N 
ATOM      5  C   LIG    1       17.659   6.511  52.273  0.00  0.00    +0.252 C 
ATOM      6  O   LIG    1       16.631   6.590  51.627  0.00  0.00    -0.270 OA
ATOM      7  C   LIG    1       18.981   6.765  51.690  0.00  0.00    +0.023 C 
ATOM      8  C   LIG    1       19.234   7.133  50.288  0.00  0.00    +0.041 C 
ATOM      9  C   LIG    1       20.721   7.263  49.938  0.00  0.00    +0.005 C 
ATOM     10  C   LIG    1       21.773   7.194  51.062  0.00  0.00    +0.005 C 
ATOM     11  C   LIG    1       21.349   6.748  52.471  0.00  0.00    +0.041 C 
ATOM     12  C   LIG    1       19.894   6.598  52.640  0.00  0.00    +0.023 C 
ENDBRANCH   1   4
BRANCH   1  13
ATOM     13  O   LIG    1       15.809   5.141  53.964  0.00  0.00    -0.444 OA
BRANCH  13  14
ATOM     14  C   LIG    1       15.898   3.799  54.062  0.00  0.00    +0.313 C 
ATOM     15  O   LIG    1       16.164   3.170  55.077  0.00  0.00    -0.250 OA
BRANCH  14  16
ATOM     16  C   LIG    1       15.563   3.180  52.758  0.00  0.00    +0.111 C 
ATOM     17  C   LIG    1       15.694   1.707  52.406  0.00  0.00    -0.014 C 
ATOM     18  C   LIG    1       14.666   1.150  51.445  0.00  0.00    +0.012 C 
ATOM     19  C   LIG    1       16.131   0.695  53.435  0.00  0.00    +0.012 C 
ATOM     20  C   LIG    1       16.671   2.715  51.828  0.00  0.00    +0.032 C 
BRANCH  20  21
ATOM     21  C   LIG    1       18.075   2.799  52.265  0.00  0.00    -0.023 C 
ATOM     22  C   LIG    1       19.144   3.088  51.496  0.00  0.00    -0.079 C 
ATOM     23  C   LIG    1       20.531   3.146  52.076  0.00  0.00    +0.038 C 
ATOM     24  C   LIG    1       19.069   3.366  50.019  0.00  0.00    +0.038 C 
ENDBRANCH  20  21
ENDBRANCH  14  16
ENDBRANCH  13  14
ENDBRANCH   1  13
TORSDOF 5
ENDMDL
MODEL 4
REMARK VINA RESULT:      -2.6      2.465      5.687
REMARK  Name = 
REMARK                            x       y       z     vdW  Elec       q    Type
REMARK                         _______ _______ _______ _____ _____    ______ ____
ROOT
ATOM      1  C   LIG    1       13.722   4.287  54.508  0.00  0.00    +0.352 C 
ENDROOT
BRANCH   1   4
ATOM      2  O   LIG    1       15.656   3.606  56.560  0.00  0.00    -0.270 OA
ATOM      3  C   LIG    1       15.926   4.293  55.592  0.00  0.00    +0.252 C 
ATOM      4  N   LIG    1       15.113   4.680  54.575  0.00  0.00    -0.200 N 
ATOM      5  C   LIG    1       15.793   5.451  53.687  0.00  0.00    +0.252 C 
ATOM      6  O   LIG    1       15.430   5.989  52.658  0.00  0.00    -0.270 OA
ATOM      7  C   LIG    1       17.166   5.557  54.192  0.00  0.00    +0.023 C 
ATOM      8  C   LIG    1       18.256   6.301  53.540  0.00  0.00    +0.041 C 
ATOM      9  C   LIG    1       19.608   6.176  54.253  0.00  0.00    +0.005 C 
ATOM     10  C   LIG    1       19.678   5.480  55.627  0.00  0.00    +0.005 C 
ATOM     11  C   LIG    1       18.457   4.705  56.148  0.00  0.00    +0.041 C 
ATOM     12  C   LIG    1       17.249   4.864  55.322  0.00  0.00    +0.023 C 
ENDBRANCH   1   4
BRANCH   1  13
ATOM     13  O   LIG    1       13.447   3.696  53.249  0.00  0.00    -0.444 OA
BRANCH  13  14
ATOM     14  C   LIG    1       13.573   2.354  53.200  0.00  0.00    +0.313 C 
ATOM     15  O   LIG    1       13.438   1.586  54.143  0.00  0.00    -0.250 OA
BRANCH  14  16
ATOM     16  C   LIG    1       13.843   1.929  51.807  0.00  0.00    +0.111 C 
ATOM     17  C   LIG    1       14.130   0.510  51.343  0.00  0.00    -0.014 C 
ATOM     18  C   LIG    1       13.626   0.136  49.965  0.00  0.00    +0.012 C 
ATOM     19  C   LIG    1       14.088  -0.649  52.307  0.00  0.00    +0.012 C 
ATOM     20  C   LIG    1       15.250   1.533  51.390  0.00  0.00    +0.032 C 
BRANCH  20  21
ATOM     21  C   LIG    1       16.324   1.488  52.396  0.00  0.00    -0.023 C 
ATOM     22  C   LIG    1       17.445   2.238  52.416  0.00  0.00    -0.079 C 
ATOM     23  C   LIG    1       18.464   2.092  53.513  0.00  0.00    +0.038 C 
ATOM     24  C   LIG    1       17.789   3.265  51.371  0.00  0.00    +0.038 C 
ENDBRANCH  20  21
ENDBRANCH  14  16
ENDBRANCH  13  14
ENDBRANCH   1  13
TORSDOF 5
ENDMDL
MODEL 5
REMARK VINA RESULT:      -2.6      2.202      5.565
REMARK  Name = 
REMARK                            x       y       z     vdW  Elec       q    Type
REMARK                         _______ _______ _______ _____ _____    ______ ____
ROOT
ATOM      1  C   LIG    1       15.213   4.390  55.052  0.00  0.00    +0.352 C 
ENDROOT
BRANCH   1   4
ATOM      2  O   LIG    1       14.125   5.888  52.819  0.00  0.00    -0.270 OA
ATOM      3  C   LIG    1       15.305   5.900  53.117  0.00  0.00    +0.252 C 
ATOM      4  N   LIG    1       15.930   5.242  54.128  0.00  0.00    -0.200 N 
ATOM      5  C   LIG    1       17.262   5.512  54.121  0.00  0.00    +0.252 C 
ATOM      6  O   LIG    1       18.156   5.124  54.850  0.00  0.00    -0.270 OA
ATOM      7  C   LIG    1       17.496   6.428  53.001  0.00  0.00    +0.023 C 
ATOM      8  C   LIG    1       18.804   6.987  52.620  0.00  0.00    +0.041 C 
ATOM      9  C   LIG    1       18.741   7.978  51.452  0.00  0.00    +0.005 C 
ATOM     10  C   LIG    1       17.418   8.157  50.681  0.00  0.00    +0.005 C 
ATOM     11  C   LIG    1       16.125   7.540  51.239  0.00  0.00    +0.041 C 
ATOM     12  C   LIG    1       16.333   6.664  52.404  0.00  0.00    +0.023 C 
ENDBRANCH   1   4
BRANCH   1  13
ATOM     13  O   LIG    1       15.560   3.034  54.827  0.00  0.00    -0.444 OA
BRANCH  13  14
ATOM     14  C   LIG    1       14.547   2.236  54.431  0.00  0.00    +0.313 C 
ATOM     15  O   LIG    1       13.817   1.584  55.166  0.00  0.00    -0.250 OA
BRANCH  14  16
ATOM     16  C   LIG    1       14.401   2.309  52.959  0.00  0.00    +0.111 C 
ATOM     17  C   LIG    1       14.590   1.159  51.982  0.00  0.00    -0.014 C 
ATOM     18  C   LIG    1       13.710   1.169  50.750  0.00  0.00    +0.012 C 
ATOM     19  C   LIG    1       14.887  -0.237  52.469  0.00  0.00    +0.012 C 
ATOM     20  C   LIG    1       15.631   2.261  52.068  0.00  0.00    +0.032 C 
BRANCH  20  21
ATOM     21  C   LIG    1       16.960   2.052  52.668  0.00  0.00    -0.023 C 
ATOM     22  C   LIG    1       18.129   2.572  52.242  0.00  0.00    -0.079 C 
ATOM     23  C   LIG    1       19.420   2.279  52.956  0.00  0.00    +0.038 C 
ATOM     24  C   LIG    1       18.265   3.467  51.041  0.00  0.00    +0.038 C 
ENDBRANCH  20  21
ENDBRANCH  14  16
ENDBRANCH  13  14
ENDBRANCH   1  13
TORSDOF 5
ENDMDL
MODEL 6
REMARK VINA RESULT:      -2.5      2.195      5.817
REMARK  Name = 
REMARK                            x       y       z     vdW  Elec       q    Type
REMARK                         _______ _______ _______ _____ _____    ______ ____
ROOT
ATOM      1  C   LIG    1       18.002   2.556  55.265  0.00  0.00    +0.352 C 
ENDROOT
BRANCH   1   4
ATOM      2  O   LIG    1       16.536   5.058  55.328  0.00  0.00    -0.270 OA
ATOM      3  C   LIG    1       17.684   4.969  54.934  0.00  0.00    +0.252 C 
ATOM      4  N   LIG    1       18.467   3.862  54.853  0.00  0.00    -0.200 N 
ATOM      5  C   LIG    1       19.690   4.179  54.352  0.00  0.00    +0.252 C 
ATOM      6  O   LIG    1       20.662   3.482  54.125  0.00  0.00    -0.270 OA
ATOM      7  C   LIG    1       19.675   5.623  54.095  0.00  0.00    +0.023 C 
ATOM      8  C   LIG    1       20.799   6.400  53.549  0.00  0.00    +0.041 C 
ATOM      9  C   LIG    1       20.527   7.906  53.456  0.00  0.00    +0.005 C 
ATOM     10  C   LIG    1       19.109   8.439  53.742  0.00  0.00    +0.005 C 
ATOM     11  C   LIG    1       18.057   7.501  54.356  0.00  0.00    +0.041 C 
ATOM     12  C   LIG    1       18.484   6.096  54.445  0.00  0.00    +0.023 C 
ENDBRANCH   1   4
BRANCH   1  13
ATOM     13  O   LIG    1       17.964   1.682  54.150  0.00  0.00    -0.444 OA
BRANCH  13  14
ATOM     14  C   LIG    1       16.790   1.046  53.952  0.00  0.00    +0.313 C 
ATOM     15  O   LIG    1       16.563  -0.132  54.193  0.00  0.00    -0.250 OA
BRANCH  14  16
ATOM     16  C   LIG    1       15.780   2.008  53.451  0.00  0.00    +0.111 C 
ATOM     17  C   LIG    1       15.002   1.893  52.150  0.00  0.00    -0.014 C 
ATOM     18  C   LIG    1       13.589   2.434  52.160  0.00  0.00    +0.012 C 
ATOM     19  C   LIG    1       15.154   0.688  51.255  0.00  0.00    +0.012 C 
ATOM     20  C   LIG    1       16.112   2.920  52.282  0.00  0.00    +0.032 C 
BRANCH  20  21
ATOM     21  C   LIG    1       17.406   2.784  51.593  0.00  0.00    -0.023 C 
ATOM     22  C   LIG    1       18.128   3.772  51.026  0.00  0.00    -0.079 C 
ATOM     23  C   LIG    1       19.445   3.491  50.355  0.00  0.00    +0.038 C 
ATOM     24  C   LIG    1       17.704   5.215  50.998  0.00  0.00    +0.038 C 
ENDBRANCH  20  21
ENDBRANCH  14  16
ENDBRANCH  13  14
ENDBRANCH   1  13
TORSDOF 5
ENDMDL
MODEL 7
REMARK VINA RESULT:      -2.5      2.018      5.880
REMARK  Name = 
REMARK                            x       y       z     vdW  Elec       q    Type
REMARK                         _______ _______ _______ _____ _____    ______ ____
ROOT
ATOM      1  C   LIG    1       19.356   2.472  55.396  0.00  0.00    +0.352 C 
ENDROOT
BRANCH   1   4
ATOM      2  O   LIG    1       20.119   5.163  54.626  0.00  0.00    -0.270 OA
ATOM      3  C   LIG    1       20.558   4.165  54.084  0.00  0.00    +0.252 C 
ATOM      4  N   LIG    1       20.276   2.864  54.350  0.00  0.00    -0.200 N 
ATOM      5  C   LIG    1       20.969   2.045  53.515  0.00  0.00    +0.252 C 
ATOM      6  O   LIG    1       20.992   0.831  53.430  0.00  0.00    -0.270 OA
ATOM      7  C   LIG    1       21.764   2.915  52.643  0.00  0.00    +0.023 C 
ATOM      8  C   LIG    1       22.673   2.451  51.582  0.00  0.00    +0.041 C 
ATOM      9  C   LIG    1       23.435   3.580  50.878  0.00  0.00    +0.005 C 
ATOM     10  C   LIG    1       23.068   5.046  51.182  0.00  0.00    +0.005 C 
ATOM     11  C   LIG    1       22.131   5.365  52.359  0.00  0.00    +0.041 C 
ATOM     12  C   LIG    1       21.526   4.176  52.982  0.00  0.00    +0.023 C 
ENDBRANCH   1   4
BRANCH   1  13
ATOM     13  O   LIG    1       18.047   2.914  55.078  0.00  0.00    -0.444 OA
BRANCH  13  14
ATOM     14  C   LIG    1       17.336   2.090  54.281  0.00  0.00    +0.313 C 
ATOM     15  O   LIG    1       17.554   0.899  54.103  0.00  0.00    -0.250 OA
BRANCH  14  16
ATOM     16  C   LIG    1       16.197   2.829  53.688  0.00  0.00    +0.111 C 
ATOM     17  C   LIG    1       15.326   2.358  52.535  0.00  0.00    -0.014 C 
ATOM     18  C   LIG    1       13.872   2.777  52.573  0.00  0.00    +0.012 C 
ATOM     19  C   LIG    1       15.519   0.995  51.919  0.00  0.00    +0.012 C 
ATOM     20  C   LIG    1       16.336   3.470  52.317  0.00  0.00    +0.032 C 
BRANCH  20  21
ATOM     21  C   LIG    1       17.574   3.278  51.543  0.00  0.00    -0.023 C 
ATOM     22  C   LIG    1       18.223   4.209  50.814  0.00  0.00    -0.079 C 
ATOM     23  C   LIG    1       19.489   3.876  50.072  0.00  0.00    +0.038 C 
ATOM     24  C   LIG    1       17.763   5.634  50.665  0.00  0.00    +0.038 C 
ENDBRANCH  20  21
ENDBRANCH  14  16
ENDBRANCH  13  14
ENDBRANCH   1  13
TORSDOF 5
ENDMDL
MODEL 8
REMARK VINA RESULT:      -2.5      2.182      6.860
REMARK  Name = 
REMARK                            x       y       z     vdW  Elec       q    Type
REMARK                         _______ _______ _______ _____ _____    ______ ____
ROOT
ATOM      1  C   LIG    1       18.713   3.023  53.139  0.00  0.00    +0.352 C 
ENDROOT
BRANCH   1   4
ATOM      2  O   LIG    1       19.132   5.316  51.413  0.00  0.00    -0.270 OA
ATOM      3  C   LIG    1       20.011   4.521  51.689  0.00  0.00    +0.252 C 
ATOM      4  N   LIG    1       19.937   3.416  52.475  0.00  0.00    -0.200 N 
ATOM      5  C   LIG    1       21.140   2.786  52.527  0.00  0.00    +0.252 C 
ATOM      6  O   LIG    1       21.485   1.776  53.112  0.00  0.00    -0.270 OA
ATOM      7  C   LIG    1       22.059   3.571  51.696  0.00  0.00    +0.023 C 
ATOM      8  C   LIG    1       23.478   3.255  51.468  0.00  0.00    +0.041 C 
ATOM      9  C   LIG    1       24.217   4.293  50.615  0.00  0.00    +0.005 C 
ATOM     10  C   LIG    1       23.419   5.424  49.938  0.00  0.00    +0.005 C 
ATOM     11  C   LIG    1       21.947   5.648  50.321  0.00  0.00    +0.041 C 
ATOM     12  C   LIG    1       21.391   4.607  51.200  0.00  0.00    +0.023 C 
ENDBRANCH   1   4
BRANCH   1  13
ATOM     13  O   LIG    1       17.900   2.274  52.252  0.00  0.00    -0.444 OA
BRANCH  13  14
ATOM     14  C   LIG    1       16.631   2.711  52.122  0.00  0.00    +0.313 C 
ATOM     15  O   LIG    1       16.239   3.850  52.336  0.00  0.00    -0.250 OA
BRANCH  14  16
ATOM     16  C   LIG    1       15.775   1.613  51.615  0.00  0.00    +0.111 C 
ATOM     17  C   LIG    1       14.267   1.505  51.776  0.00  0.00    -0.014 C 
ATOM     18  C   LIG    1       13.513   0.849  50.640  0.00  0.00    +0.012 C 
ATOM     19  C   LIG    1       13.474   2.603  52.439  0.00  0.00    +0.012 C 
ATOM     20  C   LIG    1       15.183   0.600  52.581  0.00  0.00    +0.032 C 
BRANCH  20  21
ATOM     21  C   LIG    1       15.390   0.765  54.030  0.00  0.00    -0.023 C 
ATOM     22  C   LIG    1       16.360   0.201  54.777  0.00  0.00    -0.079 C 
ATOM     23  C   LIG    1       16.458   0.461  56.255  0.00  0.00    +0.038 C 
ATOM     24  C   LIG    1       17.412  -0.725  54.231  0.00  0.00    +0.038 C 
ENDBRANCH  20  21
ENDBRANCH  14  16
ENDBRANCH  13  14
ENDBRANCH   1  13
TORSDOF 5
ENDMDL
MODEL 9
REMARK VINA RESULT:      -2.4      1.698      2.204
REMARK  Name = 
REMARK                            x       y       z     vdW  Elec       q    Type
REMARK                         _______ _______ _______ _____ _____    ______ ____
ROOT
ATOM      1  C   LIG    1       15.788   4.616  55.123  0.00  0.00    +0.352 C 
ENDROOT
BRANCH   1   4
ATOM      2  O   LIG    1       16.986   1.981  54.938  0.00  0.00    -0.270 OA
ATOM      3  C   LIG    1       16.065   2.345  54.231  0.00  0.00    +0.252 C 
ATOM      4  N   LIG    1       15.428   3.544  54.220  0.00  0.00    -0.200 N 
ATOM      5  C   LIG    1       14.453   3.559  53.274  0.00  0.00    +0.252 C 
ATOM      6  O   LIG    1       13.670   4.433  52.951  0.00  0.00    -0.270 OA
ATOM      7  C   LIG    1       14.477   2.242  52.630  0.00  0.00    +0.023 C 
ATOM      8  C   LIG    1       13.583   1.812  51.542  0.00  0.00    +0.041 C 
ATOM      9  C   LIG    1       13.784   0.354  51.112  0.00  0.00    +0.005 C 
ATOM     10  C   LIG    1       14.970  -0.448  51.683  0.00  0.00    +0.005 C 
ATOM     11  C   LIG    1       15.782   0.128  52.854  0.00  0.00    +0.041 C 
ATOM     12  C   LIG    1       15.432   1.516  53.200  0.00  0.00    +0.023 C 
ENDBRANCH   1   4
BRANCH   1  13
ATOM     13  O   LIG    1       16.323   5.706  54.392  0.00  0.00    -0.444 OA
BRANCH  13  14
ATOM     14  C   LIG    1       17.656   5.668  54.189  0.00  0.00    +0.313 C 
ATOM     15  O   LIG    1       18.481   5.158  54.935  0.00  0.00    -0.250 OA
BRANCH  14  16
ATOM     16  C   LIG    1       17.980   6.289  52.883  0.00  0.00    +0.111 C 
ATOM     17  C   LIG    1       18.000   5.583  51.537  0.00  0.00    -0.014 C 
ATOM     18  C   LIG    1       17.583   6.407  50.338  0.00  0.00    +0.012 C 
ATOM     19  C   LIG    1       17.599   4.135  51.410  0.00  0.00    +0.012 C 
ATOM     20  C   LIG    1       19.304   5.984  52.203  0.00  0.00    +0.032 C 
BRANCH  20  21
ATOM     21  C   LIG    1       20.224   5.002  52.801  0.00  0.00    -0.023 C 
ATOM     22  C   LIG    1       21.223   4.346  52.176  0.00  0.00    -0.079 C 
ATOM     23  C   LIG    1       22.096   3.368  52.913  0.00  0.00    +0.038 C 
ATOM     24  C   LIG    1       21.557   4.511  50.718  0.00  0.00    +0.038 C 
ENDBRANCH  20  21
ENDBRANCH  14  16
ENDBRANCH  13  14
ENDBRANCH   1  13
TORSDOF 5
ENDMDL
