MODEL 1
REMARK VINA RESULT:      -8.4      0.000      0.000
REMARK  Name = 
REMARK                            x       y       z     vdW  Elec       q    Type
REMARK                         _______ _______ _______ _____ _____    ______ ____
ROOT
ATOM      1  C   LIG    1       28.459   2.913  19.940  0.00  0.00    +0.352 C 
ENDROOT
BRANCH   1   4
ATOM      2  O   LIG    1       31.221   2.277  20.559  0.00  0.00    -0.270 OA
ATOM      3  C   LIG    1       30.277   1.654  21.009  0.00  0.00    +0.252 C 
ATOM      4  N   LIG    1       28.951   1.852  20.791  0.00  0.00    -0.200 N 
ATOM      5  C   LIG    1       28.214   0.936  21.473  0.00  0.00    +0.252 C 
ATOM      6  O   LIG    1       27.009   0.774  21.540  0.00  0.00    -0.270 OA
ATOM      7  C   LIG    1       29.167   0.083  22.190  0.00  0.00    +0.023 C 
ATOM      8  C   LIG    1       28.807  -1.046  23.063  0.00  0.00    +0.041 C 
ATOM      9  C   LIG    1       30.008  -1.714  23.744  0.00  0.00    +0.005 C 
ATOM     10  C   LIG    1       31.435  -1.302  23.336  0.00  0.00    +0.005 C 
ATOM     11  C   LIG    1       31.643  -0.065  22.447  0.00  0.00    +0.041 C 
ATOM     12  C   LIG    1       30.395   0.511  21.920  0.00  0.00    +0.023 C 
ENDBRANCH   1   4
BRANCH   1  13
ATOM     13  O   LIG    1       27.052   2.812  19.805  0.00  0.00    -0.444 OA
BRANCH  13  14
ATOM     14  C   LIG    1       26.471   3.776  19.061  0.00  0.00    +0.313 C 
ATOM     15  O   LIG    1       25.972   4.809  19.488  0.00  0.00    -0.250 OA
BRANCH  14  16
ATOM     16  C   LIG    1       26.580   3.431  17.624  0.00  0.00    +0.111 C 
ATOM     17  C   LIG    1       25.430   3.053  16.705  0.00  0.00    -0.014 C 
ATOM     18  C   LIG    1       25.553   3.483  15.259  0.00  0.00    +0.012 C 
ATOM     19  C   LIG    1       24.003   3.072  17.193  0.00  0.00    +0.012 C 
ATOM     20  C   LIG    1       26.407   1.990  17.173  0.00  0.00    +0.032 C 
BRANCH  20  21
ATOM     21  C   LIG    1       26.044   0.955  18.155  0.00  0.00    -0.023 C 
ATOM     22  C   LIG    1       26.358  -0.356  18.100  0.00  0.00    -0.079 C 
ATOM     23  C   LIG    1       25.925  -1.308  19.181  0.00  0.00    +0.038 C 
ATOM     24  C   LIG    1       27.145  -0.988  16.985  0.00  0.00    +0.038 C 
ENDBRANCH  20  21
ENDBRANCH  14  16
ENDBRANCH  13  14
ENDBRANCH   1  13
TORSDOF 5
ENDMDL
MODEL 2
REMARK VINA RESULT:      -8.0      0.801      2.768
REMARK  Name = 
REMARK                            x       y       z     vdW  Elec       q    Type
REMARK                         _______ _______ _______ _____ _____    ______ ____
ROOT
ATOM      1  C   LIG    1       28.547   2.837  19.932  0.00  0.00    +0.352 C 
ENDROOT
BRANCH   1   4
ATOM      2  O   LIG    1       31.300   2.300  20.673  0.00  0.00    -0.270 OA
ATOM      3  C   LIG    1       30.361   1.636  21.073  0.00  0.00    +0.252 C 
ATOM      4  N   LIG    1       29.040   1.785  20.796  0.00  0.00    -0.200 N 
ATOM      5  C   LIG    1       28.309   0.835  21.434  0.00  0.00    +0.252 C 
ATOM      6  O   LIG    1       27.109   0.626  21.443  0.00  0.00    -0.270 OA
ATOM      7  C   LIG    1       29.260   0.011  22.187  0.00  0.00    +0.023 C 
ATOM      8  C   LIG    1       28.904  -1.140  23.031  0.00  0.00    +0.041 C 
ATOM      9  C   LIG    1       30.097  -1.769  23.761  0.00  0.00    +0.005 C 
ATOM     10  C   LIG    1       31.525  -1.298  23.424  0.00  0.00    +0.005 C 
ATOM     11  C   LIG    1       31.725  -0.044  22.557  0.00  0.00    +0.041 C 
ATOM     12  C   LIG    1       30.482   0.489  21.978  0.00  0.00    +0.023 C 
ENDBRANCH   1   4
BRANCH   1  13
ATOM     13  O   LIG    1       27.135   2.914  20.021  0.00  0.00    -0.444 OA
BRANCH  13  14
ATOM     14  C   LIG    1       26.488   3.057  18.846  0.00  0.00    +0.313 C 
ATOM     15  O   LIG    1       26.496   4.056  18.140  0.00  0.00    -0.250 OA
BRANCH  14  16
ATOM     16  C   LIG    1       25.803   1.790  18.497  0.00  0.00    +0.111 C 
ATOM     17  C   LIG    1       26.435   0.590  17.810  0.00  0.00    -0.014 C 
ATOM     18  C   LIG    1       25.911  -0.771  18.213  0.00  0.00    +0.012 C 
ATOM     19  C   LIG    1       27.906   0.568  17.479  0.00  0.00    +0.012 C 
ATOM     20  C   LIG    1       25.470   1.480  17.047  0.00  0.00    +0.032 C 
BRANCH  20  21
ATOM     21  C   LIG    1       25.909   2.398  15.983  0.00  0.00    -0.023 C 
ATOM     22  C   LIG    1       25.164   3.343  15.374  0.00  0.00    -0.079 C 
ATOM     23  C   LIG    1       25.744   4.222  14.299  0.00  0.00    +0.038 C 
ATOM     24  C   LIG    1       23.717   3.607  15.688  0.00  0.00    +0.038 C 
ENDBRANCH  20  21
ENDBRANCH  14  16
ENDBRANCH  13  14
ENDBRANCH   1  13
TORSDOF 5
ENDMDL
MODEL 3
REMARK VINA RESULT:      -7.5      2.262      3.649
REMARK  Name = 
REMARK                            x       y       z     vdW  Elec       q    Type
REMARK                         _______ _______ _______ _____ _____    ______ ____
ROOT
ATOM      1  C   LIG    1       26.864  -0.938  19.865  0.00  0.00    +0.352 C 
ENDROOT
BRANCH   1   4
ATOM      2  O   LIG    1       29.500  -2.098  19.519  0.00  0.00    -0.270 OA
ATOM      3  C   LIG    1       29.104  -1.647  20.579  0.00  0.00    +0.252 C 
ATOM      4  N   LIG    1       27.900  -1.087  20.863  0.00  0.00    -0.200 N 
ATOM      5  C   LIG    1       27.845  -0.713  22.169  0.00  0.00    +0.252 C 
ATOM      6  O   LIG    1       26.954  -0.185  22.808  0.00  0.00    -0.270 OA
ATOM      7  C   LIG    1       29.138  -1.069  22.760  0.00  0.00    +0.023 C 
ATOM      8  C   LIG    1       29.523  -0.840  24.163  0.00  0.00    +0.041 C 
ATOM      9  C   LIG    1       30.966  -1.245  24.486  0.00  0.00    +0.005 C 
ATOM     10  C   LIG    1       31.797  -1.997  23.428  0.00  0.00    +0.005 C 
ATOM     11  C   LIG    1       31.268  -2.112  21.989  0.00  0.00    +0.041 C 
ATOM     12  C   LIG    1       29.891  -1.621  21.815  0.00  0.00    +0.023 C 
ENDBRANCH   1   4
BRANCH   1  13
ATOM     13  O   LIG    1       27.303  -0.065  18.838  0.00  0.00    -0.444 OA
BRANCH  13  14
ATOM     14  C   LIG    1       26.539   1.030  18.643  0.00  0.00    +0.313 C 
ATOM     15  O   LIG    1       26.015   1.360  17.588  0.00  0.00    -0.250 OA
BRANCH  14  16
ATOM     16  C   LIG    1       26.371   1.755  19.924  0.00  0.00    +0.111 C 
ATOM     17  C   LIG    1       26.347   3.265  20.102  0.00  0.00    -0.014 C 
ATOM     18  C   LIG    1       25.451   3.800  21.198  0.00  0.00    +0.012 C 
ATOM     19  C   LIG    1       26.424   4.191  18.915  0.00  0.00    +0.012 C 
ATOM     20  C   LIG    1       27.555   2.466  20.558  0.00  0.00    +0.032 C 
BRANCH  20  21
ATOM     21  C   LIG    1       28.846   2.507  19.851  0.00  0.00    -0.023 C 
ATOM     22  C   LIG    1       30.067   2.300  20.386  0.00  0.00    -0.079 C 
ATOM     23  C   LIG    1       31.311   2.367  19.542  0.00  0.00    +0.038 C 
ATOM     24  C   LIG    1       30.309   1.996  21.839  0.00  0.00    +0.038 C 
ENDBRANCH  20  21
ENDBRANCH  14  16
ENDBRANCH  13  14
ENDBRANCH   1  13
TORSDOF 5
ENDMDL
MODEL 4
REMARK VINA RESULT:      -7.4      1.976      6.947
REMARK  Name = 
REMARK                            x       y       z     vdW  Elec       q    Type
REMARK                         _______ _______ _______ _____ _____    ______ ____
ROOT
ATOM      1  C   LIG    1       27.700  -1.480  20.026  0.00  0.00    +0.352 C 
ENDROOT
BRANCH   1   4
ATOM      2  O   LIG    1       26.761   1.053  21.082  0.00  0.00    -0.270 OA
ATOM      3  C   LIG    1       26.718   0.768  19.899  0.00  0.00    +0.252 C 
ATOM      4  N   LIG    1       27.119  -0.378  19.290  0.00  0.00    -0.200 N 
ATOM      5  C   LIG    1       26.897  -0.310  17.951  0.00  0.00    +0.252 C 
ATOM      6  O   LIG    1       27.112  -1.117  17.067  0.00  0.00    -0.270 OA
ATOM      7  C   LIG    1       26.301   1.005  17.694  0.00  0.00    +0.023 C 
ATOM      8  C   LIG    1       25.898   1.511  16.372  0.00  0.00    +0.041 C 
ATOM      9  C   LIG    1       25.372   2.951  16.390  0.00  0.00    +0.005 C 
ATOM     10  C   LIG    1       25.135   3.654  17.741  0.00  0.00    +0.005 C 
ATOM     11  C   LIG    1       25.659   3.007  19.034  0.00  0.00    +0.041 C 
ATOM     12  C   LIG    1       26.198   1.650  18.850  0.00  0.00    +0.023 C 
ENDBRANCH   1   4
BRANCH   1  13
ATOM     13  O   LIG    1       28.765  -1.014  20.836  0.00  0.00    -0.444 OA
BRANCH  13  14
ATOM     14  C   LIG    1       29.846  -1.820  20.892  0.00  0.00    +0.313 C 
ATOM     15  O   LIG    1       30.114  -2.714  20.102  0.00  0.00    -0.250 OA
BRANCH  14  16
ATOM     16  C   LIG    1       30.707  -1.421  22.029  0.00  0.00    +0.111 C 
ATOM     17  C   LIG    1       30.229  -0.970  23.400  0.00  0.00    -0.014 C 
ATOM     18  C   LIG    1       31.105  -1.346  24.576  0.00  0.00    +0.012 C 
ATOM     19  C   LIG    1       28.762  -0.963  23.750  0.00  0.00    +0.012 C 
ATOM     20  C   LIG    1       30.812   0.041  22.429  0.00  0.00    +0.032 C 
BRANCH  20  21
ATOM     21  C   LIG    1       29.986   1.048  21.741  0.00  0.00    -0.023 C 
ATOM     22  C   LIG    1       30.387   1.899  20.775  0.00  0.00    -0.079 C 
ATOM     23  C   LIG    1       29.432   2.878  20.151  0.00  0.00    +0.038 C 
ATOM     24  C   LIG    1       31.792   1.961  20.238  0.00  0.00    +0.038 C 
ENDBRANCH  20  21
ENDBRANCH  14  16
ENDBRANCH  13  14
ENDBRANCH   1  13
TORSDOF 5
ENDMDL
MODEL 5
REMARK VINA RESULT:      -7.4      1.732      6.889
REMARK  Name = 
REMARK                            x       y       z     vdW  Elec       q    Type
REMARK                         _______ _______ _______ _____ _____    ______ ____
ROOT
ATOM      1  C   LIG    1       26.764  -0.530  21.406  0.00  0.00    +0.352 C 
ENDROOT
BRANCH   1   4
ATOM      2  O   LIG    1       26.760  -1.287  18.605  0.00  0.00    -0.270 OA
ATOM      3  C   LIG    1       26.534  -0.154  18.989  0.00  0.00    +0.252 C 
ATOM      4  N   LIG    1       26.511   0.320  20.262  0.00  0.00    -0.200 N 
ATOM      5  C   LIG    1       26.225   1.648  20.272  0.00  0.00    +0.252 C 
ATOM      6  O   LIG    1       26.115   2.432  21.196  0.00  0.00    -0.270 OA
ATOM      7  C   LIG    1       26.048   2.047  18.872  0.00  0.00    +0.023 C 
ATOM      8  C   LIG    1       25.721   3.406  18.411  0.00  0.00    +0.041 C 
ATOM      9  C   LIG    1       25.520   3.518  16.895  0.00  0.00    +0.005 C 
ATOM     10  C   LIG    1       25.849   2.309  15.996  0.00  0.00    +0.005 C 
ATOM     11  C   LIG    1       26.128   0.941  16.639  0.00  0.00    +0.041 C 
ATOM     12  C   LIG    1       26.226   0.976  18.107  0.00  0.00    +0.023 C 
ENDBRANCH   1   4
BRANCH   1  13
ATOM     13  O   LIG    1       27.686   0.098  22.280  0.00  0.00    -0.444 OA
BRANCH  13  14
ATOM     14  C   LIG    1       28.401  -0.736  23.063  0.00  0.00    +0.313 C 
ATOM     15  O   LIG    1       28.286  -0.857  24.275  0.00  0.00    -0.250 OA
BRANCH  14  16
ATOM     16  C   LIG    1       29.317  -1.544  22.225  0.00  0.00    +0.111 C 
ATOM     17  C   LIG    1       30.723  -1.984  22.602  0.00  0.00    -0.014 C 
ATOM     18  C   LIG    1       31.173  -3.328  22.073  0.00  0.00    +0.012 C 
ATOM     19  C   LIG    1       31.296  -1.677  23.963  0.00  0.00    +0.012 C 
ATOM     20  C   LIG    1       30.522  -0.891  21.568  0.00  0.00    +0.032 C 
BRANCH  20  21
ATOM     21  C   LIG    1       30.825   0.524  21.839  0.00  0.00    -0.023 C 
ATOM     22  C   LIG    1       30.450   1.587  21.099  0.00  0.00    -0.079 C 
ATOM     23  C   LIG    1       30.826   2.988  21.497  0.00  0.00    +0.038 C 
ATOM     24  C   LIG    1       29.646   1.488  19.831  0.00  0.00    +0.038 C 
ENDBRANCH  20  21
ENDBRANCH  14  16
ENDBRANCH  13  14
ENDBRANCH   1  13
TORSDOF 5
ENDMDL
MODEL 6
REMARK VINA RESULT:      -7.3      1.665      3.490
REMARK  Name = 
REMARK                            x       y       z     vdW  Elec       q    Type
REMARK                         _______ _______ _______ _____ _____    ______ ____
ROOT
ATOM      1  C   LIG    1       26.614   1.149  20.260  0.00  0.00    +0.352 C 
ENDROOT
BRANCH   1   4
ATOM      2  O   LIG    1       26.774  -0.853  22.354  0.00  0.00    -0.270 OA
ATOM      3  C   LIG    1       27.740  -0.230  21.953  0.00  0.00    +0.252 C 
ATOM      4  N   LIG    1       27.790   0.726  20.990  0.00  0.00    -0.200 N 
ATOM      5  C   LIG    1       29.060   1.186  20.841  0.00  0.00    +0.252 C 
ATOM      6  O   LIG    1       29.517   2.033  20.095  0.00  0.00    -0.270 OA
ATOM      7  C   LIG    1       29.887   0.446  21.799  0.00  0.00    +0.023 C 
ATOM      8  C   LIG    1       31.338   0.620  21.980  0.00  0.00    +0.041 C 
ATOM      9  C   LIG    1       31.957  -0.342  23.002  0.00  0.00    +0.005 C 
ATOM     10  C   LIG    1       31.036  -1.235  23.856  0.00  0.00    +0.005 C 
ATOM     11  C   LIG    1       29.542  -1.338  23.506  0.00  0.00    +0.041 C 
ATOM     12  C   LIG    1       29.105  -0.400  22.459  0.00  0.00    +0.023 C 
ENDBRANCH   1   4
BRANCH   1  13
ATOM     13  O   LIG    1       26.543   0.465  19.021  0.00  0.00    -0.444 OA
BRANCH  13  14
ATOM     14  C   LIG    1       26.118   1.205  17.976  0.00  0.00    +0.313 C 
ATOM     15  O   LIG    1       25.304   0.855  17.133  0.00  0.00    -0.250 OA
BRANCH  14  16
ATOM     16  C   LIG    1       26.743   2.548  18.029  0.00  0.00    +0.111 C 
ATOM     17  C   LIG    1       26.237   3.740  18.825  0.00  0.00    -0.014 C 
ATOM     18  C   LIG    1       27.290   4.675  19.380  0.00  0.00    +0.012 C 
ATOM     19  C   LIG    1       25.036   3.621  19.728  0.00  0.00    +0.012 C 
ATOM     20  C   LIG    1       26.091   3.720  17.314  0.00  0.00    +0.032 C 
BRANCH  20  21
ATOM     21  C   LIG    1       24.792   3.537  16.644  0.00  0.00    -0.023 C 
ATOM     22  C   LIG    1       24.518   3.748  15.341  0.00  0.00    -0.079 C 
ATOM     23  C   LIG    1       23.141   3.515  14.785  0.00  0.00    +0.038 C 
ATOM     24  C   LIG    1       25.528   4.232  14.336  0.00  0.00    +0.038 C 
ENDBRANCH  20  21
ENDBRANCH  14  16
ENDBRANCH  13  14
ENDBRANCH   1  13
TORSDOF 5
ENDMDL
MODEL 7
REMARK VINA RESULT:      -7.3      1.340      2.453
REMARK  Name = 
REMARK                            x       y       z     vdW  Elec       q    Type
REMARK                         _______ _______ _______ _____ _____    ______ ____
ROOT
ATOM      1  C   LIG    1       28.640   2.259  19.709  0.00  0.00    +0.352 C 
ENDROOT
BRANCH   1   4
ATOM      2  O   LIG    1       31.348   2.046  20.727  0.00  0.00    -0.270 OA
ATOM      3  C   LIG    1       30.435   1.337  21.109  0.00  0.00    +0.252 C 
ATOM      4  N   LIG    1       29.137   1.339  20.708  0.00  0.00    -0.200 N 
ATOM      5  C   LIG    1       28.432   0.386  21.372  0.00  0.00    +0.252 C 
ATOM      6  O   LIG    1       27.259   0.069  21.300  0.00  0.00    -0.270 OA
ATOM      7  C   LIG    1       29.375  -0.277  22.278  0.00  0.00    +0.023 C 
ATOM      8  C   LIG    1       29.040  -1.377  23.197  0.00  0.00    +0.041 C 
ATOM      9  C   LIG    1       30.209  -1.826  24.083  0.00  0.00    +0.005 C 
ATOM     10  C   LIG    1       31.618  -1.258  23.823  0.00  0.00    +0.005 C 
ATOM     11  C   LIG    1       31.792  -0.073  22.859  0.00  0.00    +0.041 C 
ATOM     12  C   LIG    1       30.566   0.290  22.128  0.00  0.00    +0.023 C 
ENDBRANCH   1   4
BRANCH   1  13
ATOM     13  O   LIG    1       27.943   3.323  20.334  0.00  0.00    -0.444 OA
BRANCH  13  14
ATOM     14  C   LIG    1       27.607   4.349  19.526  0.00  0.00    +0.313 C 
ATOM     15  O   LIG    1       28.361   4.936  18.761  0.00  0.00    -0.250 OA
BRANCH  14  16
ATOM     16  C   LIG    1       26.158   4.630  19.652  0.00  0.00    +0.111 C 
ATOM     17  C   LIG    1       25.179   3.895  20.553  0.00  0.00    -0.014 C 
ATOM     18  C   LIG    1       24.048   4.718  21.133  0.00  0.00    +0.012 C 
ATOM     19  C   LIG    1       25.647   2.813  21.493  0.00  0.00    +0.012 C 
ATOM     20  C   LIG    1       25.142   3.672  19.052  0.00  0.00    +0.032 C 
BRANCH  20  21
ATOM     21  C   LIG    1       25.599   2.421  18.424  0.00  0.00    -0.023 C 
ATOM     22  C   LIG    1       25.720   2.177  17.103  0.00  0.00    -0.079 C 
ATOM     23  C   LIG    1       26.207   0.848  16.596  0.00  0.00    +0.038 C 
ATOM     24  C   LIG    1       25.386   3.176  16.029  0.00  0.00    +0.038 C 
ENDBRANCH  20  21
ENDBRANCH  14  16
ENDBRANCH  13  14
ENDBRANCH   1  13
TORSDOF 5
ENDMDL
MODEL 8
REMARK VINA RESULT:      -7.2      1.339      3.044
REMARK  Name = 
REMARK                            x       y       z     vdW  Elec       q    Type
REMARK                         _______ _______ _______ _____ _____    ______ ____
ROOT
ATOM      1  C   LIG    1       28.534   2.215  19.715  0.00  0.00    +0.352 C 
ENDROOT
BRANCH   1   4
ATOM      2  O   LIG    1       27.228   0.145  21.272  0.00  0.00    -0.270 OA
ATOM      3  C   LIG    1       28.412   0.411  21.377  0.00  0.00    +0.252 C 
ATOM      4  N   LIG    1       29.130   1.352  20.712  0.00  0.00    -0.200 N 
ATOM      5  C   LIG    1       30.426   1.340  21.120  0.00  0.00    +0.252 C 
ATOM      6  O   LIG    1       31.376   2.019  20.776  0.00  0.00    -0.270 OA
ATOM      7  C   LIG    1       30.534   0.289  22.137  0.00  0.00    +0.023 C 
ATOM      8  C   LIG    1       31.767  -0.078  22.853  0.00  0.00    +0.041 C 
ATOM      9  C   LIG    1       31.602  -1.266  23.808  0.00  0.00    +0.005 C 
ATOM     10  C   LIG    1       30.193  -1.831  24.077  0.00  0.00    +0.005 C 
ATOM     11  C   LIG    1       29.012  -1.372  23.207  0.00  0.00    +0.041 C 
ATOM     12  C   LIG    1       29.338  -0.269  22.288  0.00  0.00    +0.023 C 
ENDBRANCH   1   4
BRANCH   1  13
ATOM     13  O   LIG    1       27.924   3.330  20.342  0.00  0.00    -0.444 OA
BRANCH  13  14
ATOM     14  C   LIG    1       27.596   4.349  19.521  0.00  0.00    +0.313 C 
ATOM     15  O   LIG    1       28.355   4.920  18.750  0.00  0.00    -0.250 OA
BRANCH  14  16
ATOM     16  C   LIG    1       26.149   4.642  19.643  0.00  0.00    +0.111 C 
ATOM     17  C   LIG    1       25.162   3.920  20.545  0.00  0.00    -0.014 C 
ATOM     18  C   LIG    1       24.037   4.755  21.118  0.00  0.00    +0.012 C 
ATOM     19  C   LIG    1       25.619   2.838  21.492  0.00  0.00    +0.012 C 
ATOM     20  C   LIG    1       25.127   3.689  19.045  0.00  0.00    +0.032 C 
BRANCH  20  21
ATOM     21  C   LIG    1       25.575   2.432  18.424  0.00  0.00    -0.023 C 
ATOM     22  C   LIG    1       25.707   2.184  17.105  0.00  0.00    -0.079 C 
ATOM     23  C   LIG    1       26.183   0.848  16.605  0.00  0.00    +0.038 C 
ATOM     24  C   LIG    1       25.396   3.185  16.025  0.00  0.00    +0.038 C 
ENDBRANCH  20  21
ENDBRANCH  14  16
ENDBRANCH  13  14
ENDBRANCH   1  13
TORSDOF 5
ENDMDL
MODEL 9
REMARK VINA RESULT:      -7.2      1.916      3.396
REMARK  Name = 
REMARK                            x       y       z     vdW  Elec       q    Type
REMARK                         _______ _______ _______ _____ _____    ______ ____
ROOT
ATOM      1  C   LIG    1       26.265   0.596  19.384  0.00  0.00    +0.352 C 
ENDROOT
BRANCH   1   4
ATOM      2  O   LIG    1       27.697  -1.857  18.791  0.00  0.00    -0.270 OA
ATOM      3  C   LIG    1       27.998  -1.115  19.708  0.00  0.00    +0.252 C 
ATOM      4  N   LIG    1       27.407   0.048  20.085  0.00  0.00    -0.200 N 
ATOM      5  C   LIG    1       28.038   0.576  21.167  0.00  0.00    +0.252 C 
ATOM      6  O   LIG    1       27.818   1.592  21.799  0.00  0.00    -0.270 OA
ATOM      7  C   LIG    1       29.132  -0.342  21.500  0.00  0.00    +0.023 C 
ATOM      8  C   LIG    1       30.084  -0.162  22.608  0.00  0.00    +0.041 C 
ATOM      9  C   LIG    1       31.172  -1.240  22.675  0.00  0.00    +0.005 C 
ATOM     10  C   LIG    1       31.078  -2.469  21.750  0.00  0.00    +0.005 C 
ATOM     11  C   LIG    1       30.050  -2.481  20.607  0.00  0.00    +0.041 C 
ATOM     12  C   LIG    1       29.113  -1.346  20.631  0.00  0.00    +0.023 C 
ENDBRANCH   1   4
BRANCH   1  13
ATOM     13  O   LIG    1       26.702   1.462  18.350  0.00  0.00    -0.444 OA
BRANCH  13  14
ATOM     14  C   LIG    1       26.162   1.232  17.136  0.00  0.00    +0.313 C 
ATOM     15  O   LIG    1       26.557   0.411  16.319  0.00  0.00    -0.250 OA
BRANCH  14  16
ATOM     16  C   LIG    1       24.965   2.085  16.953  0.00  0.00    +0.111 C 
ATOM     17  C   LIG    1       24.860   3.299  16.044  0.00  0.00    -0.014 C 
ATOM     18  C   LIG    1       23.512   3.546  15.402  0.00  0.00    +0.012 C 
ATOM     19  C   LIG    1       26.008   3.707  15.154  0.00  0.00    +0.012 C 
ATOM     20  C   LIG    1       24.928   3.482  17.549  0.00  0.00    +0.032 C 
BRANCH  20  21
ATOM     21  C   LIG    1       26.118   4.018  18.231  0.00  0.00    -0.023 C 
ATOM     22  C   LIG    1       26.250   4.265  19.550  0.00  0.00    -0.079 C 
ATOM     23  C   LIG    1       27.532   4.811  20.117  0.00  0.00    +0.038 C 
ATOM     24  C   LIG    1       25.162   4.034  20.563  0.00  0.00    +0.038 C 
ENDBRANCH  20  21
ENDBRANCH  14  16
ENDBRANCH  13  14
ENDBRANCH   1  13
TORSDOF 5
ENDMDL
