MODEL 1
REMARK VINA RESULT:      -9.4      0.000      0.000
REMARK  Name = 
REMARK                            x       y       z     vdW  Elec       q    Type
REMARK                         _______ _______ _______ _____ _____    ______ ____
ROOT
ATOM      1  C   LIG    1        2.751  20.056  28.505  0.00  0.00    +0.352 C 
ENDROOT
BRANCH   1   4
ATOM      2  O   LIG    1        1.281  20.779  30.899  0.00  0.00    -0.270 OA
ATOM      3  C   LIG    1        1.817  19.696  30.748  0.00  0.00    +0.252 C 
ATOM      4  N   LIG    1        2.531  19.246  29.684  0.00  0.00    -0.200 N 
ATOM      5  C   LIG    1        2.972  17.980  29.906  0.00  0.00    +0.252 C 
ATOM      6  O   LIG    1        3.636  17.235  29.209  0.00  0.00    -0.270 OA
ATOM      7  C   LIG    1        2.487  17.596  31.235  0.00  0.00    +0.023 C 
ATOM      8  C   LIG    1        2.728  16.298  31.885  0.00  0.00    +0.041 C 
ATOM      9  C   LIG    1        2.037  16.145  33.245  0.00  0.00    +0.005 C 
ATOM     10  C   LIG    1        1.342  17.364  33.883  0.00  0.00    +0.005 C 
ATOM     11  C   LIG    1        1.130  18.638  33.049  0.00  0.00    +0.041 C 
ATOM     12  C   LIG    1        1.795  18.613  31.737  0.00  0.00    +0.023 C 
ENDBRANCH   1   4
BRANCH   1  13
ATOM     13  O   LIG    1        4.074  20.566  28.509  0.00  0.00    -0.444 OA
BRANCH  13  14
ATOM     14  C   LIG    1        4.901  20.037  27.583  0.00  0.00    +0.313 C 
ATOM     15  O   LIG    1        4.728  20.058  26.372  0.00  0.00    -0.250 OA
BRANCH  14  16
ATOM     16  C   LIG    1        6.098  19.473  28.249  0.00  0.00    +0.111 C 
ATOM     17  C   LIG    1        6.761  20.012  29.506  0.00  0.00    -0.014 C 
ATOM     18  C   LIG    1        7.388  18.989  30.429  0.00  0.00    +0.012 C 
ATOM     19  C   LIG    1        6.177  21.184  30.254  0.00  0.00    +0.012 C 
ATOM     20  C   LIG    1        7.432  20.195  28.156  0.00  0.00    +0.032 C 
BRANCH  20  21
ATOM     21  C   LIG    1        7.511  21.500  27.480  0.00  0.00    -0.023 C 
ATOM     22  C   LIG    1        7.950  21.735  26.226  0.00  0.00    -0.079 C 
ATOM     23  C   LIG    1        7.973  23.126  25.654  0.00  0.00    +0.038 C 
ATOM     24  C   LIG    1        8.454  20.665  25.296  0.00  0.00    +0.038 C 
ENDBRANCH  20  21
ENDBRANCH  14  16
ENDBRANCH  13  14
ENDBRANCH   1  13
TORSDOF 5
ENDMDL
MODEL 2
REMARK VINA RESULT:      -9.3      0.718      2.798
REMARK  Name = 
REMARK                            x       y       z     vdW  Elec       q    Type
REMARK                         _______ _______ _______ _____ _____    ______ ____
ROOT
ATOM      1  C   LIG    1        3.134  20.268  28.357  0.00  0.00    +0.352 C 
ENDROOT
BRANCH   1   4
ATOM      2  O   LIG    1        1.497  20.842  30.682  0.00  0.00    -0.270 OA
ATOM      3  C   LIG    1        2.062  19.777  30.512  0.00  0.00    +0.252 C 
ATOM      4  N   LIG    1        2.852  19.395  29.476  0.00  0.00    -0.200 N 
ATOM      5  C   LIG    1        3.301  18.125  29.662  0.00  0.00    +0.252 C 
ATOM      6  O   LIG    1        4.024  17.428  28.974  0.00  0.00    -0.270 OA
ATOM      7  C   LIG    1        2.737  17.666  30.935  0.00  0.00    +0.023 C 
ATOM      8  C   LIG    1        2.960  16.339  31.532  0.00  0.00    +0.041 C 
ATOM      9  C   LIG    1        2.184  16.105  32.834  0.00  0.00    +0.005 C 
ATOM     10  C   LIG    1        1.426  17.278  33.485  0.00  0.00    +0.005 C 
ATOM     11  C   LIG    1        1.245  18.591  32.705  0.00  0.00    +0.041 C 
ATOM     12  C   LIG    1        1.995  18.645  31.440  0.00  0.00    +0.023 C 
ENDBRANCH   1   4
BRANCH   1  13
ATOM     13  O   LIG    1        4.497  20.657  28.378  0.00  0.00    -0.444 OA
BRANCH  13  14
ATOM     14  C   LIG    1        5.149  20.543  27.203  0.00  0.00    +0.313 C 
ATOM     15  O   LIG    1        4.767  19.909  26.229  0.00  0.00    -0.250 OA
BRANCH  14  16
ATOM     16  C   LIG    1        6.386  21.357  27.239  0.00  0.00    +0.111 C 
ATOM     17  C   LIG    1        7.722  20.987  26.614  0.00  0.00    -0.014 C 
ATOM     18  C   LIG    1        8.555  22.129  26.075  0.00  0.00    +0.012 C 
ATOM     19  C   LIG    1        7.878  19.725  25.803  0.00  0.00    +0.012 C 
ATOM     20  C   LIG    1        7.550  20.937  28.121  0.00  0.00    +0.032 C 
BRANCH  20  21
ATOM     21  C   LIG    1        7.478  19.672  28.871  0.00  0.00    -0.023 C 
ATOM     22  C   LIG    1        7.122  19.517  30.163  0.00  0.00    -0.079 C 
ATOM     23  C   LIG    1        7.087  18.157  30.805  0.00  0.00    +0.038 C 
ATOM     24  C   LIG    1        6.740  20.652  31.073  0.00  0.00    +0.038 C 
ENDBRANCH  20  21
ENDBRANCH  14  16
ENDBRANCH  13  14
ENDBRANCH   1  13
TORSDOF 5
ENDMDL
MODEL 3
REMARK VINA RESULT:      -9.3      0.084      1.815
REMARK  Name = 
REMARK                            x       y       z     vdW  Elec       q    Type
REMARK                         _______ _______ _______ _____ _____    ______ ____
ROOT
ATOM      1  C   LIG    1        2.743  19.918  28.479  0.00  0.00    +0.352 C 
ENDROOT
BRANCH   1   4
ATOM      2  O   LIG    1        3.510  17.211  29.185  0.00  0.00    -0.270 OA
ATOM      3  C   LIG    1        2.898  17.947  29.937  0.00  0.00    +0.252 C 
ATOM      4  N   LIG    1        2.483  19.222  29.720  0.00  0.00    -0.200 N 
ATOM      5  C   LIG    1        1.823  19.700  30.808  0.00  0.00    +0.252 C 
ATOM      6  O   LIG    1        1.301  20.780  31.011  0.00  0.00    -0.270 OA
ATOM      7  C   LIG    1        1.826  18.624  31.804  0.00  0.00    +0.023 C 
ATOM      8  C   LIG    1        1.221  18.704  33.144  0.00  0.00    +0.041 C 
ATOM      9  C   LIG    1        1.442  17.453  34.003  0.00  0.00    +0.005 C 
ATOM     10  C   LIG    1        2.077  16.201  33.367  0.00  0.00    +0.005 C 
ATOM     11  C   LIG    1        2.707  16.296  31.968  0.00  0.00    +0.041 C 
ATOM     12  C   LIG    1        2.470  17.582  31.291  0.00  0.00    +0.023 C 
ENDBRANCH   1   4
BRANCH   1  13
ATOM     13  O   LIG    1        4.040  20.489  28.507  0.00  0.00    -0.444 OA
BRANCH  13  14
ATOM     14  C   LIG    1        4.902  20.012  27.585  0.00  0.00    +0.313 C 
ATOM     15  O   LIG    1        4.759  20.069  26.371  0.00  0.00    -0.250 OA
BRANCH  14  16
ATOM     16  C   LIG    1        6.096  19.454  28.261  0.00  0.00    +0.111 C 
ATOM     17  C   LIG    1        6.747  19.997  29.523  0.00  0.00    -0.014 C 
ATOM     18  C   LIG    1        7.371  18.979  30.452  0.00  0.00    +0.012 C 
ATOM     19  C   LIG    1        6.151  21.167  30.265  0.00  0.00    +0.012 C 
ATOM     20  C   LIG    1        7.428  20.182  28.179  0.00  0.00    +0.032 C 
BRANCH  20  21
ATOM     21  C   LIG    1        7.506  21.487  27.502  0.00  0.00    -0.023 C 
ATOM     22  C   LIG    1        7.942  21.722  26.247  0.00  0.00    -0.079 C 
ATOM     23  C   LIG    1        7.964  23.112  25.675  0.00  0.00    +0.038 C 
ATOM     24  C   LIG    1        8.445  20.651  25.317  0.00  0.00    +0.038 C 
ENDBRANCH  20  21
ENDBRANCH  14  16
ENDBRANCH  13  14
ENDBRANCH   1  13
TORSDOF 5
ENDMDL
MODEL 4
REMARK VINA RESULT:      -9.2      1.208      3.271
REMARK  Name = 
REMARK                            x       y       z     vdW  Elec       q    Type
REMARK                         _______ _______ _______ _____ _____    ______ ____
ROOT
ATOM      1  C   LIG    1        3.035  18.331  28.596  0.00  0.00    +0.352 C 
ENDROOT
BRANCH   1   4
ATOM      2  O   LIG    1        3.992  16.372  30.509  0.00  0.00    -0.270 OA
ATOM      3  C   LIG    1        3.120  17.183  30.766  0.00  0.00    +0.252 C 
ATOM      4  N   LIG    1        2.590  18.138  29.959  0.00  0.00    -0.200 N 
ATOM      5  C   LIG    1        1.630  18.839  30.618  0.00  0.00    +0.252 C 
ATOM      6  O   LIG    1        0.926  19.762  30.252  0.00  0.00    -0.270 OA
ATOM      7  C   LIG    1        1.550  18.271  31.967  0.00  0.00    +0.023 C 
ATOM      8  C   LIG    1        0.640  18.729  33.029  0.00  0.00    +0.041 C 
ATOM      9  C   LIG    1        0.827  18.001  34.366  0.00  0.00    +0.005 C 
ATOM     10  C   LIG    1        1.766  16.782  34.440  0.00  0.00    +0.005 C 
ATOM     11  C   LIG    1        2.690  16.463  33.252  0.00  0.00    +0.041 C 
ATOM     12  C   LIG    1        2.440  17.289  32.060  0.00  0.00    +0.023 C 
ENDBRANCH   1   4
BRANCH   1  13
ATOM     13  O   LIG    1        3.411  19.683  28.397  0.00  0.00    -0.444 OA
BRANCH  13  14
ATOM     14  C   LIG    1        4.003  19.951  27.215  0.00  0.00    +0.313 C 
ATOM     15  O   LIG    1        3.748  19.412  26.147  0.00  0.00    -0.250 OA
BRANCH  14  16
ATOM     16  C   LIG    1        4.980  21.053  27.384  0.00  0.00    +0.111 C 
ATOM     17  C   LIG    1        6.479  20.964  27.151  0.00  0.00    -0.014 C 
ATOM     18  C   LIG    1        7.154  22.211  26.622  0.00  0.00    +0.012 C 
ATOM     19  C   LIG    1        7.114  19.698  26.632  0.00  0.00    +0.012 C 
ATOM     20  C   LIG    1        5.935  21.048  28.566  0.00  0.00    +0.032 C 
BRANCH  20  21
ATOM     21  C   LIG    1        5.948  19.903  29.491  0.00  0.00    -0.023 C 
ATOM     22  C   LIG    1        6.987  19.481  30.241  0.00  0.00    -0.079 C 
ATOM     23  C   LIG    1        6.860  18.292  31.153  0.00  0.00    +0.038 C 
ATOM     24  C   LIG    1        8.344  20.131  30.240  0.00  0.00    +0.038 C 
ENDBRANCH  20  21
ENDBRANCH  14  16
ENDBRANCH  13  14
ENDBRANCH   1  13
TORSDOF 5
ENDMDL
MODEL 5
REMARK VINA RESULT:      -8.6      1.547      6.387
REMARK  Name = 
REMARK                            x       y       z     vdW  Elec       q    Type
REMARK                         _______ _______ _______ _____ _____    ______ ____
ROOT
ATOM      1  C   LIG    1        2.840  20.505  29.785  0.00  0.00    +0.352 C 
ENDROOT
BRANCH   1   4
ATOM      2  O   LIG    1        3.226  19.347  27.153  0.00  0.00    -0.270 OA
ATOM      3  C   LIG    1        4.113  19.907  27.771  0.00  0.00    +0.252 C 
ATOM      4  N   LIG    1        4.056  20.480  29.001  0.00  0.00    -0.200 N 
ATOM      5  C   LIG    1        5.266  20.996  29.343  0.00  0.00    +0.252 C 
ATOM      6  O   LIG    1        5.627  21.580  30.348  0.00  0.00    -0.270 OA
ATOM      7  C   LIG    1        6.168  20.724  28.219  0.00  0.00    +0.023 C 
ATOM      8  C   LIG    1        7.587  21.112  28.156  0.00  0.00    +0.041 C 
ATOM      9  C   LIG    1        8.268  20.765  26.827  0.00  0.00    +0.005 C 
ATOM     10  C   LIG    1        7.514  19.910  25.790  0.00  0.00    +0.005 C 
ATOM     11  C   LIG    1        6.015  19.630  25.984  0.00  0.00    +0.041 C 
ATOM     12  C   LIG    1        5.483  20.081  27.281  0.00  0.00    +0.023 C 
ENDBRANCH   1   4
BRANCH   1  13
ATOM     13  O   LIG    1        2.468  19.184  30.141  0.00  0.00    -0.444 OA
BRANCH  13  14
ATOM     14  C   LIG    1        1.883  19.054  31.350  0.00  0.00    +0.313 C 
ATOM     15  O   LIG    1        1.421  19.964  32.025  0.00  0.00    -0.250 OA
BRANCH  14  16
ATOM     16  C   LIG    1        1.823  17.622  31.723  0.00  0.00    +0.111 C 
ATOM     17  C   LIG    1        2.082  17.044  33.105  0.00  0.00    -0.014 C 
ATOM     18  C   LIG    1        1.276  15.822  33.487  0.00  0.00    +0.012 C 
ATOM     19  C   LIG    1        2.364  17.942  34.284  0.00  0.00    +0.012 C 
ATOM     20  C   LIG    1        3.104  16.852  31.999  0.00  0.00    +0.032 C 
BRANCH  20  21
ATOM     21  C   LIG    1        4.397  17.556  31.982  0.00  0.00    -0.023 C 
ATOM     22  C   LIG    1        5.279  17.603  30.963  0.00  0.00    -0.079 C 
ATOM     23  C   LIG    1        6.568  18.369  31.079  0.00  0.00    +0.038 C 
ATOM     24  C   LIG    1        5.077  16.910  29.643  0.00  0.00    +0.038 C 
ENDBRANCH  20  21
ENDBRANCH  14  16
ENDBRANCH  13  14
ENDBRANCH   1  13
TORSDOF 5
ENDMDL
MODEL 6
REMARK VINA RESULT:      -8.6      1.533      6.290
REMARK  Name = 
REMARK                            x       y       z     vdW  Elec       q    Type
REMARK                         _______ _______ _______ _____ _____    ______ ____
ROOT
ATOM      1  C   LIG    1        2.946  20.527  29.845  0.00  0.00    +0.352 C 
ENDROOT
BRANCH   1   4
ATOM      2  O   LIG    1        5.606  21.556  30.374  0.00  0.00    -0.270 OA
ATOM      3  C   LIG    1        5.303  20.993  29.337  0.00  0.00    +0.252 C 
ATOM      4  N   LIG    1        4.101  20.476  28.975  0.00  0.00    -0.200 N 
ATOM      5  C   LIG    1        4.170  19.934  27.731  0.00  0.00    +0.252 C 
ATOM      6  O   LIG    1        3.322  19.382  27.054  0.00  0.00    -0.270 OA
ATOM      7  C   LIG    1        5.548  20.127  27.268  0.00  0.00    +0.023 C 
ATOM      8  C   LIG    1        6.076  19.688  25.966  0.00  0.00    +0.041 C 
ATOM      9  C   LIG    1        7.575  19.955  25.780  0.00  0.00    +0.005 C 
ATOM     10  C   LIG    1        8.332  20.789  26.832  0.00  0.00    +0.005 C 
ATOM     11  C   LIG    1        7.648  21.128  28.166  0.00  0.00    +0.041 C 
ATOM     12  C   LIG    1        6.226  20.752  28.224  0.00  0.00    +0.023 C 
ENDBRANCH   1   4
BRANCH   1  13
ATOM     13  O   LIG    1        2.473  19.215  30.099  0.00  0.00    -0.444 OA
BRANCH  13  14
ATOM     14  C   LIG    1        1.929  19.022  31.318  0.00  0.00    +0.313 C 
ATOM     15  O   LIG    1        1.521  19.899  32.068  0.00  0.00    -0.250 OA
BRANCH  14  16
ATOM     16  C   LIG    1        1.837  17.571  31.599  0.00  0.00    +0.111 C 
ATOM     17  C   LIG    1        2.092  16.900  32.939  0.00  0.00    -0.014 C 
ATOM     18  C   LIG    1        1.259  15.674  33.249  0.00  0.00    +0.012 C 
ATOM     19  C   LIG    1        2.403  17.713  34.171  0.00  0.00    +0.012 C 
ATOM     20  C   LIG    1        3.102  16.756  31.815  0.00  0.00    +0.032 C 
BRANCH  20  21
ATOM     21  C   LIG    1        4.411  17.429  31.833  0.00  0.00    -0.023 C 
ATOM     22  C   LIG    1        5.274  17.545  30.803  0.00  0.00    -0.079 C 
ATOM     23  C   LIG    1        6.584  18.268  30.960  0.00  0.00    +0.038 C 
ATOM     24  C   LIG    1        5.030  16.975  29.432  0.00  0.00    +0.038 C 
ENDBRANCH  20  21
ENDBRANCH  14  16
ENDBRANCH  13  14
ENDBRANCH   1  13
TORSDOF 5
ENDMDL
MODEL 7
REMARK VINA RESULT:      -7.9      2.048      7.640
REMARK  Name = 
REMARK                            x       y       z     vdW  Elec       q    Type
REMARK                         _______ _______ _______ _____ _____    ______ ____
ROOT
ATOM      1  C   LIG    1        5.249  17.632  30.922  0.00  0.00    +0.352 C 
ENDROOT
BRANCH   1   4
ATOM      2  O   LIG    1        4.549  17.732  28.108  0.00  0.00    -0.270 OA
ATOM      3  C   LIG    1        5.409  18.436  28.606  0.00  0.00    +0.252 C 
ATOM      4  N   LIG    1        5.825  18.477  29.898  0.00  0.00    -0.200 N 
ATOM      5  C   LIG    1        6.815  19.396  30.051  0.00  0.00    +0.252 C 
ATOM      6  O   LIG    1        7.446  19.729  31.037  0.00  0.00    -0.270 OA
ATOM      7  C   LIG    1        7.040  19.991  28.730  0.00  0.00    +0.023 C 
ATOM      8  C   LIG    1        8.026  21.041  28.428  0.00  0.00    +0.041 C 
ATOM      9  C   LIG    1        7.991  21.528  26.974  0.00  0.00    +0.005 C 
ATOM     10  C   LIG    1        7.110  20.789  25.948  0.00  0.00    +0.005 C 
ATOM     11  C   LIG    1        6.094  19.743  26.436  0.00  0.00    +0.041 C 
ATOM     12  C   LIG    1        6.201  19.425  27.869  0.00  0.00    +0.023 C 
ENDBRANCH   1   4
BRANCH   1  13
ATOM     13  O   LIG    1        4.462  18.411  31.806  0.00  0.00    -0.444 OA
BRANCH  13  14
ATOM     14  C   LIG    1        3.127  18.298  31.645  0.00  0.00    +0.313 C 
ATOM     15  O   LIG    1        2.422  19.029  30.963  0.00  0.00    -0.250 OA
BRANCH  14  16
ATOM     16  C   LIG    1        2.637  17.106  32.376  0.00  0.00    +0.111 C 
ATOM     17  C   LIG    1        1.309  16.987  33.106  0.00  0.00    -0.014 C 
ATOM     18  C   LIG    1        0.656  15.622  33.099  0.00  0.00    +0.012 C 
ATOM     19  C   LIG    1        0.302  18.109  33.080  0.00  0.00    +0.012 C 
ATOM     20  C   LIG    1        2.600  17.106  33.895  0.00  0.00    +0.032 C 
BRANCH  20  21
ATOM     21  C   LIG    1        2.969  18.325  34.635  0.00  0.00    -0.023 C 
ATOM     22  C   LIG    1        2.262  18.918  35.619  0.00  0.00    -0.079 C 
ATOM     23  C   LIG    1        2.762  20.163  36.297  0.00  0.00    +0.038 C 
ATOM     24  C   LIG    1        0.936  18.416  36.123  0.00  0.00    +0.038 C 
ENDBRANCH  20  21
ENDBRANCH  14  16
ENDBRANCH  13  14
ENDBRANCH   1  13
TORSDOF 5
ENDMDL
MODEL 8
REMARK VINA RESULT:      -7.7      1.625      7.179
REMARK  Name = 
REMARK                            x       y       z     vdW  Elec       q    Type
REMARK                         _______ _______ _______ _____ _____    ______ ____
ROOT
ATOM      1  C   LIG    1        2.998  18.730  28.310  0.00  0.00    +0.352 C 
ENDROOT
BRANCH   1   4
ATOM      2  O   LIG    1        4.787  17.781  26.232  0.00  0.00    -0.270 OA
ATOM      3  C   LIG    1        4.977  18.808  26.857  0.00  0.00    +0.252 C 
ATOM      4  N   LIG    1        4.221  19.350  27.846  0.00  0.00    -0.200 N 
ATOM      5  C   LIG    1        4.779  20.505  28.295  0.00  0.00    +0.252 C 
ATOM      6  O   LIG    1        4.417  21.279  29.162  0.00  0.00    -0.270 OA
ATOM      7  C   LIG    1        6.000  20.711  27.511  0.00  0.00    +0.023 C 
ATOM      8  C   LIG    1        6.924  21.848  27.659  0.00  0.00    +0.041 C 
ATOM      9  C   LIG    1        8.081  21.844  26.654  0.00  0.00    +0.005 C 
ATOM     10  C   LIG    1        8.290  20.619  25.743  0.00  0.00    +0.005 C 
ATOM     11  C   LIG    1        7.203  19.534  25.671  0.00  0.00    +0.041 C 
ATOM     12  C   LIG    1        6.118  19.705  26.651  0.00  0.00    +0.023 C 
ENDBRANCH   1   4
BRANCH   1  13
ATOM     13  O   LIG    1        2.463  19.468  29.395  0.00  0.00    -0.444 OA
BRANCH  13  14
ATOM     14  C   LIG    1        2.327  18.783  30.549  0.00  0.00    +0.313 C 
ATOM     15  O   LIG    1        1.337  18.154  30.898  0.00  0.00    -0.250 OA
BRANCH  14  16
ATOM     16  C   LIG    1        3.590  18.851  31.321  0.00  0.00    +0.111 C 
ATOM     17  C   LIG    1        4.737  17.856  31.251  0.00  0.00    -0.014 C 
ATOM     18  C   LIG    1        6.130  18.418  31.439  0.00  0.00    +0.012 C 
ATOM     19  C   LIG    1        4.706  16.698  30.285  0.00  0.00    +0.012 C 
ATOM     20  C   LIG    1        3.833  17.888  32.470  0.00  0.00    +0.032 C 
BRANCH  20  21
ATOM     21  C   LIG    1        2.850  16.830  32.758  0.00  0.00    -0.023 C 
ATOM     22  C   LIG    1        2.036  16.753  33.831  0.00  0.00    -0.079 C 
ATOM     23  C   LIG    1        1.069  15.613  33.997  0.00  0.00    +0.038 C 
ATOM     24  C   LIG    1        2.013  17.764  34.944  0.00  0.00    +0.038 C 
ENDBRANCH  20  21
ENDBRANCH  14  16
ENDBRANCH  13  14
ENDBRANCH   1  13
TORSDOF 5
ENDMDL
MODEL 9
REMARK VINA RESULT:      -7.6      1.633      2.557
REMARK  Name = 
REMARK                            x       y       z     vdW  Elec       q    Type
REMARK                         _______ _______ _______ _____ _____    ______ ____
ROOT
ATOM      1  C   LIG    1        3.637  19.474  29.700  0.00  0.00    +0.352 C 
ENDROOT
BRANCH   1   4
ATOM      2  O   LIG    1        1.448  20.372  31.378  0.00  0.00    -0.270 OA
ATOM      3  C   LIG    1        1.997  19.295  31.519  0.00  0.00    +0.252 C 
ATOM      4  N   LIG    1        3.026  18.769  30.806  0.00  0.00    -0.200 N 
ATOM      5  C   LIG    1        3.358  17.540  31.282  0.00  0.00    +0.252 C 
ATOM      6  O   LIG    1        4.214  16.753  30.924  0.00  0.00    -0.270 OA
ATOM      7  C   LIG    1        2.449  17.266  32.399  0.00  0.00    +0.023 C 
ATOM      8  C   LIG    1        2.448  16.039  33.212  0.00  0.00    +0.041 C 
ATOM      9  C   LIG    1        1.337  15.992  34.267  0.00  0.00    +0.005 C 
ATOM     10  C   LIG    1        0.474  17.245  34.515  0.00  0.00    +0.005 C 
ATOM     11  C   LIG    1        0.564  18.432  33.542  0.00  0.00    +0.041 C 
ATOM     12  C   LIG    1        1.635  18.306  32.540  0.00  0.00    +0.023 C 
ENDBRANCH   1   4
BRANCH   1  13
ATOM     13  O   LIG    1        3.033  19.078  28.480  0.00  0.00    -0.444 OA
BRANCH  13  14
ATOM     14  C   LIG    1        3.290  19.874  27.422  0.00  0.00    +0.313 C 
ATOM     15  O   LIG    1        3.121  21.085  27.378  0.00  0.00    -0.250 OA
BRANCH  14  16
ATOM     16  C   LIG    1        3.872  19.069  26.322  0.00  0.00    +0.111 C 
ATOM     17  C   LIG    1        4.503  17.693  26.457  0.00  0.00    -0.014 C 
ATOM     18  C   LIG    1        4.325  16.752  25.285  0.00  0.00    +0.012 C 
ATOM     19  C   LIG    1        4.522  16.970  27.780  0.00  0.00    +0.012 C 
ATOM     20  C   LIG    1        5.379  18.908  26.211  0.00  0.00    +0.032 C 
BRANCH  20  21
ATOM     21  C   LIG    1        6.253  19.480  27.249  0.00  0.00    -0.023 C 
ATOM     22  C   LIG    1        7.378  20.196  27.053  0.00  0.00    -0.079 C 
ATOM     23  C   LIG    1        8.178  20.728  28.211  0.00  0.00    +0.038 C 
ATOM     24  C   LIG    1        7.941  20.526  25.697  0.00  0.00    +0.038 C 
ENDBRANCH  20  21
ENDBRANCH  14  16
ENDBRANCH  13  14
ENDBRANCH   1  13
TORSDOF 5
ENDMDL
