MODEL 1
REMARK VINA RESULT:      -9.6      0.000      0.000
REMARK  Name = 
REMARK                            x       y       z     vdW  Elec       q    Type
REMARK                         _______ _______ _______ _____ _____    ______ ____
ROOT
ATOM      1  C   LIG    1       21.436 -16.936  18.047  0.00  0.00    +0.352 C 
ENDROOT
BRANCH   1   4
ATOM      2  O   LIG    1       20.087 -14.496  17.245  0.00  0.00    -0.270 OA
ATOM      3  C   LIG    1       19.534 -15.393  17.855  0.00  0.00    +0.252 C 
ATOM      4  N   LIG    1       20.056 -16.571  18.286  0.00  0.00    -0.200 N 
ATOM      5  C   LIG    1       19.113 -17.301  18.938  0.00  0.00    +0.252 C 
ATOM      6  O   LIG    1       19.179 -18.394  19.468  0.00  0.00    -0.270 OA
ATOM      7  C   LIG    1       17.880 -16.508  18.912  0.00  0.00    +0.023 C 
ATOM      8  C   LIG    1       16.595 -16.916  19.502  0.00  0.00    +0.041 C 
ATOM      9  C   LIG    1       15.454 -15.921  19.259  0.00  0.00    +0.005 C 
ATOM     10  C   LIG    1       15.765 -14.554  18.619  0.00  0.00    +0.005 C 
ATOM     11  C   LIG    1       17.153 -14.301  18.007  0.00  0.00    +0.041 C 
ATOM     12  C   LIG    1       18.126 -15.375  18.264  0.00  0.00    +0.023 C 
ENDBRANCH   1   4
BRANCH   1  13
ATOM     13  O   LIG    1       22.262 -16.401  19.067  0.00  0.00    -0.444 OA
BRANCH  13  14
ATOM     14  C   LIG    1       23.356 -15.738  18.638  0.00  0.00    +0.313 C 
ATOM     15  O   LIG    1       23.365 -14.803  17.850  0.00  0.00    -0.250 OA
BRANCH  14  16
ATOM     16  C   LIG    1       24.560 -16.274  19.314  0.00  0.00    +0.111 C 
ATOM     17  C   LIG    1       26.001 -16.061  18.879  0.00  0.00    -0.014 C 
ATOM     18  C   LIG    1       27.033 -15.973  19.983  0.00  0.00    +0.012 C 
ATOM     19  C   LIG    1       26.338 -15.179  17.703  0.00  0.00    +0.012 C 
ATOM     20  C   LIG    1       25.343 -17.415  18.686  0.00  0.00    +0.032 C 
BRANCH  20  21
ATOM     21  C   LIG    1       24.953 -17.926  17.361  0.00  0.00    -0.023 C 
ATOM     22  C   LIG    1       24.181 -19.001  17.105  0.00  0.00    -0.079 C 
ATOM     23  C   LIG    1       23.855 -19.411  15.695  0.00  0.00    +0.038 C 
ATOM     24  C   LIG    1       23.586 -19.883  18.169  0.00  0.00    +0.038 C 
ENDBRANCH  20  21
ENDBRANCH  14  16
ENDBRANCH  13  14
ENDBRANCH   1  13
TORSDOF 5
ENDMDL
MODEL 2
REMARK VINA RESULT:      -9.6      0.083      1.815
REMARK  Name = 
REMARK                            x       y       z     vdW  Elec       q    Type
REMARK                         _______ _______ _______ _____ _____    ______ ____
ROOT
ATOM      1  C   LIG    1       21.438 -16.990  18.250  0.00  0.00    +0.352 C 
ENDROOT
BRANCH   1   4
ATOM      2  O   LIG    1       19.213 -18.389  19.480  0.00  0.00    -0.270 OA
ATOM      3  C   LIG    1       19.105 -17.294  18.958  0.00  0.00    +0.252 C 
ATOM      4  N   LIG    1       20.064 -16.547  18.351  0.00  0.00    -0.200 N 
ATOM      5  C   LIG    1       19.539 -15.383  17.888  0.00  0.00    +0.252 C 
ATOM      6  O   LIG    1       20.058 -14.457  17.293  0.00  0.00    -0.270 OA
ATOM      7  C   LIG    1       18.115 -15.398  18.239  0.00  0.00    +0.023 C 
ATOM      8  C   LIG    1       17.154 -14.326  17.932  0.00  0.00    +0.041 C 
ATOM      9  C   LIG    1       15.746 -14.577  18.486  0.00  0.00    +0.005 C 
ATOM     10  C   LIG    1       15.412 -15.942  19.118  0.00  0.00    +0.005 C 
ATOM     11  C   LIG    1       16.546 -16.938  19.414  0.00  0.00    +0.041 C 
ATOM     12  C   LIG    1       17.856 -16.531  18.880  0.00  0.00    +0.023 C 
ENDBRANCH   1   4
BRANCH   1  13
ATOM     13  O   LIG    1       22.244 -16.283  19.177  0.00  0.00    -0.444 OA
BRANCH  13  14
ATOM     14  C   LIG    1       23.350 -15.708  18.662  0.00  0.00    +0.313 C 
ATOM     15  O   LIG    1       23.372 -14.839  17.801  0.00  0.00    -0.250 OA
BRANCH  14  16
ATOM     16  C   LIG    1       24.553 -16.244  19.340  0.00  0.00    +0.111 C 
ATOM     17  C   LIG    1       25.994 -16.040  18.903  0.00  0.00    -0.014 C 
ATOM     18  C   LIG    1       27.027 -15.949  20.005  0.00  0.00    +0.012 C 
ATOM     19  C   LIG    1       26.333 -15.168  17.720  0.00  0.00    +0.012 C 
ATOM     20  C   LIG    1       25.330 -17.393  18.719  0.00  0.00    +0.032 C 
BRANCH  20  21
ATOM     21  C   LIG    1       24.936 -17.911  17.398  0.00  0.00    -0.023 C 
ATOM     22  C   LIG    1       24.176 -18.997  17.149  0.00  0.00    -0.079 C 
ATOM     23  C   LIG    1       23.844 -19.413  15.742  0.00  0.00    +0.038 C 
ATOM     24  C   LIG    1       23.601 -19.884  18.219  0.00  0.00    +0.038 C 
ENDBRANCH  20  21
ENDBRANCH  14  16
ENDBRANCH  13  14
ENDBRANCH   1  13
TORSDOF 5
ENDMDL
MODEL 3
REMARK VINA RESULT:      -9.5      1.200      2.726
REMARK  Name = 
REMARK                            x       y       z     vdW  Elec       q    Type
REMARK                         _______ _______ _______ _____ _____    ______ ____
ROOT
ATOM      1  C   LIG    1       21.093 -16.886  18.668  0.00  0.00    +0.352 C 
ENDROOT
BRANCH   1   4
ATOM      2  O   LIG    1       19.713 -14.474  17.837  0.00  0.00    -0.270 OA
ATOM      3  C   LIG    1       19.134 -15.472  18.226  0.00  0.00    +0.252 C 
ATOM      4  N   LIG    1       19.666 -16.650  18.643  0.00  0.00    -0.200 N 
ATOM      5  C   LIG    1       18.683 -17.515  19.005  0.00  0.00    +0.252 C 
ATOM      6  O   LIG    1       18.742 -18.655  19.429  0.00  0.00    -0.270 OA
ATOM      7  C   LIG    1       17.412 -16.815  18.795  0.00  0.00    +0.023 C 
ATOM      8  C   LIG    1       16.078 -17.380  19.056  0.00  0.00    +0.041 C 
ATOM      9  C   LIG    1       14.922 -16.447  18.673  0.00  0.00    +0.005 C 
ATOM     10  C   LIG    1       15.227 -14.997  18.249  0.00  0.00    +0.005 C 
ATOM     11  C   LIG    1       16.680 -14.577  17.973  0.00  0.00    +0.041 C 
ATOM     12  C   LIG    1       17.677 -15.601  18.327  0.00  0.00    +0.023 C 
ENDBRANCH   1   4
BRANCH   1  13
ATOM     13  O   LIG    1       21.542 -17.276  17.382  0.00  0.00    -0.444 OA
BRANCH  13  14
ATOM     14  C   LIG    1       22.551 -16.539  16.873  0.00  0.00    +0.313 C 
ATOM     15  O   LIG    1       22.550 -15.324  16.729  0.00  0.00    -0.250 OA
BRANCH  14  16
ATOM     16  C   LIG    1       23.704 -17.417  16.564  0.00  0.00    +0.111 C 
ATOM     17  C   LIG    1       24.657 -18.032  17.575  0.00  0.00    -0.014 C 
ATOM     18  C   LIG    1       25.209 -19.400  17.237  0.00  0.00    +0.012 C 
ATOM     19  C   LIG    1       24.449 -17.844  19.057  0.00  0.00    +0.012 C 
ATOM     20  C   LIG    1       25.122 -16.887  16.694  0.00  0.00    +0.032 C 
BRANCH  20  21
ATOM     21  C   LIG    1       25.349 -15.527  17.213  0.00  0.00    -0.023 C 
ATOM     22  C   LIG    1       26.437 -15.087  17.877  0.00  0.00    -0.079 C 
ATOM     23  C   LIG    1       26.540 -13.663  18.349  0.00  0.00    +0.038 C 
ATOM     24  C   LIG    1       27.623 -15.949  18.214  0.00  0.00    +0.038 C 
ENDBRANCH  20  21
ENDBRANCH  14  16
ENDBRANCH  13  14
ENDBRANCH   1  13
TORSDOF 5
ENDMDL
MODEL 4
REMARK VINA RESULT:      -9.5      1.189      3.274
REMARK  Name = 
REMARK                            x       y       z     vdW  Elec       q    Type
REMARK                         _______ _______ _______ _____ _____    ______ ____
ROOT
ATOM      1  C   LIG    1       21.026 -16.998  18.591  0.00  0.00    +0.352 C 
ENDROOT
BRANCH   1   4
ATOM      2  O   LIG    1       18.793 -18.644  19.440  0.00  0.00    -0.270 OA
ATOM      3  C   LIG    1       18.659 -17.518  18.996  0.00  0.00    +0.252 C 
ATOM      4  N   LIG    1       19.619 -16.659  18.566  0.00  0.00    -0.200 N 
ATOM      5  C   LIG    1       19.061 -15.497  18.136  0.00  0.00    +0.252 C 
ATOM      6  O   LIG    1       19.571 -14.490  17.680  0.00  0.00    -0.270 OA
ATOM      7  C   LIG    1       17.613 -15.637  18.316  0.00  0.00    +0.023 C 
ATOM      8  C   LIG    1       16.612 -14.611  17.983  0.00  0.00    +0.041 C 
ATOM      9  C   LIG    1       15.174 -15.002  18.347  0.00  0.00    +0.005 C 
ATOM     10  C   LIG    1       14.879 -16.436  18.828  0.00  0.00    +0.005 C 
ATOM     11  C   LIG    1       16.045 -17.375  19.176  0.00  0.00    +0.041 C 
ATOM     12  C   LIG    1       17.371 -16.837  18.832  0.00  0.00    +0.023 C 
ENDBRANCH   1   4
BRANCH   1  13
ATOM     13  O   LIG    1       21.496 -17.213  17.272  0.00  0.00    -0.444 OA
BRANCH  13  14
ATOM     14  C   LIG    1       22.558 -16.466  16.907  0.00  0.00    +0.313 C 
ATOM     15  O   LIG    1       22.604 -15.244  16.889  0.00  0.00    -0.250 OA
BRANCH  14  16
ATOM     16  C   LIG    1       23.702 -17.351  16.584  0.00  0.00    +0.111 C 
ATOM     17  C   LIG    1       24.653 -17.988  17.585  0.00  0.00    -0.014 C 
ATOM     18  C   LIG    1       25.191 -19.356  17.226  0.00  0.00    +0.012 C 
ATOM     19  C   LIG    1       24.450 -17.817  19.069  0.00  0.00    +0.012 C 
ATOM     20  C   LIG    1       25.125 -16.835  16.717  0.00  0.00    +0.032 C 
BRANCH  20  21
ATOM     21  C   LIG    1       25.366 -15.485  17.253  0.00  0.00    -0.023 C 
ATOM     22  C   LIG    1       26.466 -15.059  17.907  0.00  0.00    -0.079 C 
ATOM     23  C   LIG    1       26.583 -13.643  18.399  0.00  0.00    +0.038 C 
ATOM     24  C   LIG    1       27.655 -15.930  18.210  0.00  0.00    +0.038 C 
ENDBRANCH  20  21
ENDBRANCH  14  16
ENDBRANCH  13  14
ENDBRANCH   1  13
TORSDOF 5
ENDMDL
MODEL 5
REMARK VINA RESULT:      -9.3      1.236      3.136
REMARK  Name = 
REMARK                            x       y       z     vdW  Elec       q    Type
REMARK                         _______ _______ _______ _____ _____    ______ ____
ROOT
ATOM      1  C   LIG    1       21.337 -16.978  17.603  0.00  0.00    +0.352 C 
ENDROOT
BRANCH   1   4
ATOM      2  O   LIG    1       19.942 -14.489  17.076  0.00  0.00    -0.270 OA
ATOM      3  C   LIG    1       19.447 -15.411  17.698  0.00  0.00    +0.252 C 
ATOM      4  N   LIG    1       19.997 -16.613  18.010  0.00  0.00    -0.200 N 
ATOM      5  C   LIG    1       19.121 -17.367  18.725  0.00  0.00    +0.252 C 
ATOM      6  O   LIG    1       19.229 -18.487  19.189  0.00  0.00    -0.270 OA
ATOM      7  C   LIG    1       17.903 -16.564  18.874  0.00  0.00    +0.023 C 
ATOM      8  C   LIG    1       16.685 -16.991  19.581  0.00  0.00    +0.041 C 
ATOM      9  C   LIG    1       15.538 -15.975  19.514  0.00  0.00    +0.005 C 
ATOM     10  C   LIG    1       15.797 -14.580  18.912  0.00  0.00    +0.005 C 
ATOM     11  C   LIG    1       17.112 -14.308  18.164  0.00  0.00    +0.041 C 
ATOM     12  C   LIG    1       18.093 -15.401  18.260  0.00  0.00    +0.023 C 
ENDBRANCH   1   4
BRANCH   1  13
ATOM     13  O   LIG    1       22.265 -16.608  18.609  0.00  0.00    -0.444 OA
BRANCH  13  14
ATOM     14  C   LIG    1       22.904 -15.438  18.405  0.00  0.00    +0.313 C 
ATOM     15  O   LIG    1       22.641 -14.373  18.948  0.00  0.00    -0.250 OA
BRANCH  14  16
ATOM     16  C   LIG    1       24.027 -15.640  17.460  0.00  0.00    +0.111 C 
ATOM     17  C   LIG    1       25.137 -16.670  17.596  0.00  0.00    -0.014 C 
ATOM     18  C   LIG    1       25.678 -17.252  16.308  0.00  0.00    +0.012 C 
ATOM     19  C   LIG    1       25.141 -17.667  18.727  0.00  0.00    +0.012 C 
ATOM     20  C   LIG    1       25.431 -15.201  17.841  0.00  0.00    +0.032 C 
BRANCH  20  21
ATOM     21  C   LIG    1       25.687 -14.655  19.185  0.00  0.00    -0.023 C 
ATOM     22  C   LIG    1       26.166 -13.430  19.482  0.00  0.00    -0.079 C 
ATOM     23  C   LIG    1       26.376 -12.998  20.907  0.00  0.00    +0.038 C 
ATOM     24  C   LIG    1       26.537 -12.399  18.451  0.00  0.00    +0.038 C 
ENDBRANCH  20  21
ENDBRANCH  14  16
ENDBRANCH  13  14
ENDBRANCH   1  13
TORSDOF 5
ENDMDL
MODEL 6
REMARK VINA RESULT:      -9.2      1.816      3.819
REMARK  Name = 
REMARK                            x       y       z     vdW  Elec       q    Type
REMARK                         _______ _______ _______ _____ _____    ______ ____
ROOT
ATOM      1  C   LIG    1       23.453 -15.680  17.994  0.00  0.00    +0.352 C 
ENDROOT
BRANCH   1   4
ATOM      2  O   LIG    1       21.285 -13.772  17.719  0.00  0.00    -0.270 OA
ATOM      3  C   LIG    1       21.108 -14.948  17.977  0.00  0.00    +0.252 C 
ATOM      4  N   LIG    1       22.034 -15.929  18.134  0.00  0.00    -0.200 N 
ATOM      5  C   LIG    1       21.432 -17.112  18.425  0.00  0.00    +0.252 C 
ATOM      6  O   LIG    1       21.903 -18.214  18.638  0.00  0.00    -0.270 OA
ATOM      7  C   LIG    1       19.990 -16.850  18.451  0.00  0.00    +0.023 C 
ATOM      8  C   LIG    1       18.949 -17.855  18.726  0.00  0.00    +0.041 C 
ATOM      9  C   LIG    1       17.518 -17.315  18.613  0.00  0.00    +0.005 C 
ATOM     10  C   LIG    1       17.292 -15.803  18.423  0.00  0.00    +0.005 C 
ATOM     11  C   LIG    1       18.487 -14.892  18.099  0.00  0.00    +0.041 C 
ATOM     12  C   LIG    1       19.794 -15.565  18.180  0.00  0.00    +0.023 C 
ENDBRANCH   1   4
BRANCH   1  13
ATOM     13  O   LIG    1       24.029 -15.433  19.265  0.00  0.00    -0.444 OA
BRANCH  13  14
ATOM     14  C   LIG    1       25.227 -14.812  19.247  0.00  0.00    +0.313 C 
ATOM     15  O   LIG    1       25.644 -14.033  20.093  0.00  0.00    -0.250 OA
BRANCH  14  16
ATOM     16  C   LIG    1       26.004 -15.263  18.069  0.00  0.00    +0.111 C 
ATOM     17  C   LIG    1       26.529 -16.669  17.828  0.00  0.00    -0.014 C 
ATOM     18  C   LIG    1       26.577 -17.133  16.388  0.00  0.00    +0.012 C 
ATOM     19  C   LIG    1       26.221 -17.792  18.786  0.00  0.00    +0.012 C 
ATOM     20  C   LIG    1       27.489 -15.555  18.203  0.00  0.00    +0.032 C 
BRANCH  20  21
ATOM     21  C   LIG    1       28.134 -15.474  19.525  0.00  0.00    -0.023 C 
ATOM     22  C   LIG    1       28.893 -14.462  19.993  0.00  0.00    -0.079 C 
ATOM     23  C   LIG    1       29.489 -14.507  21.373  0.00  0.00    +0.038 C 
ATOM     24  C   LIG    1       29.219 -13.221  19.208  0.00  0.00    +0.038 C 
ENDBRANCH  20  21
ENDBRANCH  14  16
ENDBRANCH  13  14
ENDBRANCH   1  13
TORSDOF 5
ENDMDL
MODEL 7
REMARK VINA RESULT:      -9.1      1.497      2.676
REMARK  Name = 
REMARK                            x       y       z     vdW  Elec       q    Type
REMARK                         _______ _______ _______ _____ _____    ______ ____
ROOT
ATOM      1  C   LIG    1       22.775 -16.178  17.691  0.00  0.00    +0.352 C 
ENDROOT
BRANCH   1   4
ATOM      2  O   LIG    1       21.066 -18.219  18.845  0.00  0.00    -0.270 OA
ATOM      3  C   LIG    1       20.650 -17.141  18.460  0.00  0.00    +0.252 C 
ATOM      4  N   LIG    1       21.345 -16.116  17.903  0.00  0.00    -0.200 N 
ATOM      5  C   LIG    1       20.513 -15.084  17.601  0.00  0.00    +0.252 C 
ATOM      6  O   LIG    1       20.739 -14.001  17.096  0.00  0.00    -0.270 OA
ATOM      7  C   LIG    1       19.167 -15.500  18.010  0.00  0.00    +0.023 C 
ATOM      8  C   LIG    1       17.948 -14.687  17.872  0.00  0.00    +0.041 C 
ATOM      9  C   LIG    1       16.692 -15.346  18.454  0.00  0.00    +0.005 C 
ATOM     10  C   LIG    1       16.757 -16.808  18.937  0.00  0.00    +0.005 C 
ATOM     11  C   LIG    1       18.122 -17.503  19.066  0.00  0.00    +0.041 C 
ATOM     12  C   LIG    1       19.247 -16.722  18.526  0.00  0.00    +0.023 C 
ENDBRANCH   1   4
BRANCH   1  13
ATOM     13  O   LIG    1       23.456 -15.776  18.866  0.00  0.00    -0.444 OA
BRANCH  13  14
ATOM     14  C   LIG    1       24.074 -14.578  18.796  0.00  0.00    +0.313 C 
ATOM     15  O   LIG    1       23.688 -13.608  18.159  0.00  0.00    -0.250 OA
BRANCH  14  16
ATOM     16  C   LIG    1       25.275 -14.586  19.663  0.00  0.00    +0.111 C 
ATOM     17  C   LIG    1       26.518 -13.730  19.480  0.00  0.00    -0.014 C 
ATOM     18  C   LIG    1       27.226 -13.289  20.743  0.00  0.00    +0.012 C 
ATOM     19  C   LIG    1       26.598 -12.699  18.382  0.00  0.00    +0.012 C 
ATOM     20  C   LIG    1       26.567 -15.215  19.169  0.00  0.00    +0.032 C 
BRANCH  20  21
ATOM     21  C   LIG    1       26.647 -15.737  17.795  0.00  0.00    -0.023 C 
ATOM     22  C   LIG    1       26.349 -16.987  17.387  0.00  0.00    -0.079 C 
ATOM     23  C   LIG    1       26.471 -17.387  15.942  0.00  0.00    +0.038 C 
ATOM     24  C   LIG    1       25.883 -18.084  18.305  0.00  0.00    +0.038 C 
ENDBRANCH  20  21
ENDBRANCH  14  16
ENDBRANCH  13  14
ENDBRANCH   1  13
TORSDOF 5
ENDMDL
MODEL 8
REMARK VINA RESULT:      -9.1      1.555      3.797
REMARK  Name = 
REMARK                            x       y       z     vdW  Elec       q    Type
REMARK                         _______ _______ _______ _____ _____    ______ ____
ROOT
ATOM      1  C   LIG    1       22.591 -15.622  17.335  0.00  0.00    +0.352 C 
ENDROOT
BRANCH   1   4
ATOM      2  O   LIG    1       21.802 -18.086  18.647  0.00  0.00    -0.270 OA
ATOM      3  C   LIG    1       21.015 -17.204  18.359  0.00  0.00    +0.252 C 
ATOM      4  N   LIG    1       21.261 -16.018  17.745  0.00  0.00    -0.200 N 
ATOM      5  C   LIG    1       20.110 -15.311  17.595  0.00  0.00    +0.252 C 
ATOM      6  O   LIG    1       19.906 -14.218  17.099  0.00  0.00    -0.270 OA
ATOM      7  C   LIG    1       19.039 -16.129  18.172  0.00  0.00    +0.023 C 
ATOM      8  C   LIG    1       17.618 -15.750  18.231  0.00  0.00    +0.041 C 
ATOM      9  C   LIG    1       16.732 -16.769  18.959  0.00  0.00    +0.005 C 
ATOM     10  C   LIG    1       17.327 -18.126  19.380  0.00  0.00    +0.005 C 
ATOM     11  C   LIG    1       18.846 -18.347  19.296  0.00  0.00    +0.041 C 
ATOM     12  C   LIG    1       19.575 -17.254  18.632  0.00  0.00    +0.023 C 
ENDBRANCH   1   4
BRANCH   1  13
ATOM     13  O   LIG    1       22.948 -14.403  17.963  0.00  0.00    -0.444 OA
BRANCH  13  14
ATOM     14  C   LIG    1       24.244 -14.295  18.323  0.00  0.00    +0.313 C 
ATOM     15  O   LIG    1       24.708 -13.465  19.092  0.00  0.00    -0.250 OA
BRANCH  14  16
ATOM     16  C   LIG    1       25.028 -15.382  17.692  0.00  0.00    +0.111 C 
ATOM     17  C   LIG    1       25.692 -16.544  18.415  0.00  0.00    -0.014 C 
ATOM     18  C   LIG    1       25.745 -17.860  17.669  0.00  0.00    +0.012 C 
ATOM     19  C   LIG    1       25.533 -16.728  19.903  0.00  0.00    +0.012 C 
ATOM     20  C   LIG    1       26.539 -15.419  17.847  0.00  0.00    +0.032 C 
BRANCH  20  21
ATOM     21  C   LIG    1       27.211 -14.424  18.699  0.00  0.00    -0.023 C 
ATOM     22  C   LIG    1       28.399 -14.564  19.324  0.00  0.00    -0.079 C 
ATOM     23  C   LIG    1       28.974 -13.458  20.164  0.00  0.00    +0.038 C 
ATOM     24  C   LIG    1       29.245 -15.806  19.254  0.00  0.00    +0.038 C 
ENDBRANCH  20  21
ENDBRANCH  14  16
ENDBRANCH  13  14
ENDBRANCH   1  13
TORSDOF 5
ENDMDL
MODEL 9
REMARK VINA RESULT:      -8.9      2.050      4.064
REMARK  Name = 
REMARK                            x       y       z     vdW  Elec       q    Type
REMARK                         _______ _______ _______ _____ _____    ______ ____
ROOT
ATOM      1  C   LIG    1       18.760 -17.507  18.761  0.00  0.00    +0.352 C 
ENDROOT
BRANCH   1   4
ATOM      2  O   LIG    1       16.124 -18.303  19.674  0.00  0.00    -0.270 OA
ATOM      3  C   LIG    1       16.360 -17.210  19.191  0.00  0.00    +0.252 C 
ATOM      4  N   LIG    1       17.542 -16.727  18.728  0.00  0.00    -0.200 N 
ATOM      5  C   LIG    1       17.388 -15.461  18.259  0.00  0.00    +0.252 C 
ATOM      6  O   LIG    1       18.193 -14.692  17.766  0.00  0.00    -0.270 OA
ATOM      7  C   LIG    1       15.976 -15.114  18.449  0.00  0.00    +0.023 C 
ATOM      8  C   LIG    1       15.362 -13.827  18.083  0.00  0.00    +0.041 C 
ATOM      9  C   LIG    1       13.881 -13.714  18.465  0.00  0.00    +0.005 C 
ATOM     10  C   LIG    1       13.139 -14.956  18.996  0.00  0.00    +0.005 C 
ATOM     11  C   LIG    1       13.939 -16.214  19.374  0.00  0.00    +0.041 C 
ATOM     12  C   LIG    1       15.363 -16.151  19.007  0.00  0.00    +0.023 C 
ENDBRANCH   1   4
BRANCH   1  13
ATOM     13  O   LIG    1       19.749 -16.827  19.515  0.00  0.00    -0.444 OA
BRANCH  13  14
ATOM     14  C   LIG    1       20.968 -16.759  18.942  0.00  0.00    +0.313 C 
ATOM     15  O   LIG    1       21.757 -17.686  18.820  0.00  0.00    -0.250 OA
BRANCH  14  16
ATOM     16  C   LIG    1       21.196 -15.392  18.418  0.00  0.00    +0.111 C 
ATOM     17  C   LIG    1       21.976 -15.032  17.164  0.00  0.00    -0.014 C 
ATOM     18  C   LIG    1       21.489 -13.827  16.389  0.00  0.00    +0.012 C 
ATOM     19  C   LIG    1       22.548 -16.102  16.268  0.00  0.00    +0.012 C 
ATOM     20  C   LIG    1       22.570 -14.752  18.532  0.00  0.00    +0.032 C 
BRANCH  20  21
ATOM     21  C   LIG    1       23.694 -15.527  19.084  0.00  0.00    -0.023 C 
ATOM     22  C   LIG    1       24.933 -15.070  19.357  0.00  0.00    -0.079 C 
ATOM     23  C   LIG    1       25.991 -15.975  19.927  0.00  0.00    +0.038 C 
ATOM     24  C   LIG    1       25.380 -13.653  19.121  0.00  0.00    +0.038 C 
ENDBRANCH  20  21
ENDBRANCH  14  16
ENDBRANCH  13  14
ENDBRANCH   1  13
TORSDOF 5
ENDMDL
