MODEL 1
REMARK VINA RESULT:      -7.4      0.000      0.000
REMARK  Name = 
REMARK                            x       y       z     vdW  Elec       q    Type
REMARK                         _______ _______ _______ _____ _____    ______ ____
ROOT
ATOM      1  C   LIG    1        2.976   9.707  -1.737  0.00  0.00    +0.352 C 
ENDROOT
BRANCH   1   4
ATOM      2  O   LIG    1        5.011  11.695  -2.305  0.00  0.00    -0.270 OA
ATOM      3  C   LIG    1        4.741  10.782  -3.064  0.00  0.00    +0.252 C 
ATOM      4  N   LIG    1        3.815   9.801  -2.912  0.00  0.00    -0.200 N 
ATOM      5  C   LIG    1        3.816   8.973  -3.990  0.00  0.00    +0.252 C 
ATOM      6  O   LIG    1        3.144   7.989  -4.239  0.00  0.00    -0.270 OA
ATOM      7  C   LIG    1        4.843   9.481  -4.905  0.00  0.00    +0.023 C 
ATOM      8  C   LIG    1        5.191   8.885  -6.205  0.00  0.00    +0.041 C 
ATOM      9  C   LIG    1        6.357   9.582  -6.917  0.00  0.00    +0.005 C 
ATOM     10  C   LIG    1        6.918  10.898  -6.341  0.00  0.00    +0.005 C 
ATOM     11  C   LIG    1        6.481  11.361  -4.942  0.00  0.00    +0.041 C 
ATOM     12  C   LIG    1        5.399  10.554  -4.354  0.00  0.00    +0.023 C 
ENDBRANCH   1   4
BRANCH   1  13
ATOM     13  O   LIG    1        3.327   8.560  -0.982  0.00  0.00    -0.444 OA
BRANCH  13  14
ATOM     14  C   LIG    1        2.295   7.903  -0.413  0.00  0.00    +0.313 C 
ATOM     15  O   LIG    1        1.944   7.994   0.755  0.00  0.00    -0.250 OA
BRANCH  14  16
ATOM     16  C   LIG    1        1.599   7.088  -1.436  0.00  0.00    +0.111 C 
ATOM     17  C   LIG    1        0.677   5.910  -1.167  0.00  0.00    -0.014 C 
ATOM     18  C   LIG    1       -0.474   5.721  -2.132  0.00  0.00    +0.012 C 
ATOM     19  C   LIG    1        0.323   5.503   0.241  0.00  0.00    +0.012 C 
ATOM     20  C   LIG    1        2.067   5.672  -1.730  0.00  0.00    +0.032 C 
BRANCH  20  21
ATOM     21  C   LIG    1        3.155   5.082  -0.933  0.00  0.00    -0.023 C 
ATOM     22  C   LIG    1        4.479   5.190  -1.168  0.00  0.00    -0.079 C 
ATOM     23  C   LIG    1        5.489   4.537  -0.265  0.00  0.00    +0.038 C 
ATOM     24  C   LIG    1        5.069   5.947  -2.327  0.00  0.00    +0.038 C 
ENDBRANCH  20  21
ENDBRANCH  14  16
ENDBRANCH  13  14
ENDBRANCH   1  13
TORSDOF 5
ENDMDL
MODEL 2
REMARK VINA RESULT:      -7.3      2.675      4.311
REMARK  Name = 
REMARK                            x       y       z     vdW  Elec       q    Type
REMARK                         _______ _______ _______ _____ _____    ______ ____
ROOT
ATOM      1  C   LIG    1        4.675   9.822  -2.662  0.00  0.00    +0.352 C 
ENDROOT
BRANCH   1   4
ATOM      2  O   LIG    1        3.656  12.313  -3.744  0.00  0.00    -0.270 OA
ATOM      3  C   LIG    1        4.259  12.243  -2.688  0.00  0.00    +0.252 C 
ATOM      4  N   LIG    1        4.784  11.145  -2.085  0.00  0.00    -0.200 N 
ATOM      5  C   LIG    1        5.388  11.486  -0.917  0.00  0.00    +0.252 C 
ATOM      6  O   LIG    1        5.970  10.804  -0.093  0.00  0.00    -0.270 OA
ATOM      7  C   LIG    1        5.225  12.936  -0.770  0.00  0.00    +0.023 C 
ATOM      8  C   LIG    1        5.725  13.736   0.359  0.00  0.00    +0.041 C 
ATOM      9  C   LIG    1        5.345  15.220   0.287  0.00  0.00    +0.005 C 
ATOM     10  C   LIG    1        4.672  15.768  -0.987  0.00  0.00    +0.005 C 
ATOM     11  C   LIG    1        4.165  14.789  -2.059  0.00  0.00    +0.041 C 
ATOM     12  C   LIG    1        4.549  13.388  -1.820  0.00  0.00    +0.023 C 
ENDBRANCH   1   4
BRANCH   1  13
ATOM     13  O   LIG    1        3.382   9.294  -2.422  0.00  0.00    -0.444 OA
BRANCH  13  14
ATOM     14  C   LIG    1        3.319   8.315  -1.495  0.00  0.00    +0.313 C 
ATOM     15  O   LIG    1        4.089   8.167  -0.556  0.00  0.00    -0.250 OA
BRANCH  14  16
ATOM     16  C   LIG    1        2.130   7.468  -1.745  0.00  0.00    +0.111 C 
ATOM     17  C   LIG    1        1.999   5.990  -1.415  0.00  0.00    -0.014 C 
ATOM     18  C   LIG    1        0.622   5.510  -1.008  0.00  0.00    +0.012 C 
ATOM     19  C   LIG    1        3.103   5.249  -0.704  0.00  0.00    +0.012 C 
ATOM     20  C   LIG    1        2.152   6.434  -2.859  0.00  0.00    +0.032 C 
BRANCH  20  21
ATOM     21  C   LIG    1        3.388   6.217  -3.629  0.00  0.00    -0.023 C 
ATOM     22  C   LIG    1        3.697   6.751  -4.828  0.00  0.00    -0.079 C 
ATOM     23  C   LIG    1        5.005   6.446  -5.505  0.00  0.00    +0.038 C 
ATOM     24  C   LIG    1        2.792   7.676  -5.596  0.00  0.00    +0.038 C 
ENDBRANCH  20  21
ENDBRANCH  14  16
ENDBRANCH  13  14
ENDBRANCH   1  13
TORSDOF 5
ENDMDL
MODEL 3
REMARK VINA RESULT:      -7.2      2.165      7.080
REMARK  Name = 
REMARK                            x       y       z     vdW  Elec       q    Type
REMARK                         _______ _______ _______ _____ _____    ______ ____
ROOT
ATOM      1  C   LIG    1        4.764   7.168  -1.693  0.00  0.00    +0.352 C 
ENDROOT
BRANCH   1   4
ATOM      2  O   LIG    1        2.724   5.923  -3.337  0.00  0.00    -0.270 OA
ATOM      3  C   LIG    1        2.554   6.205  -2.164  0.00  0.00    +0.252 C 
ATOM      4  N   LIG    1        3.424   6.789  -1.300  0.00  0.00    -0.200 N 
ATOM      5  C   LIG    1        2.851   6.942  -0.077  0.00  0.00    +0.252 C 
ATOM      6  O   LIG    1        3.290   7.417   0.953  0.00  0.00    -0.270 OA
ATOM      7  C   LIG    1        1.492   6.400  -0.183  0.00  0.00    +0.023 C 
ATOM      8  C   LIG    1        0.509   6.356   0.911  0.00  0.00    +0.041 C 
ATOM      9  C   LIG    1       -0.808   5.665   0.537  0.00  0.00    +0.005 C 
ATOM     10  C   LIG    1       -1.062   5.264  -0.930  0.00  0.00    +0.005 C 
ATOM     11  C   LIG    1        0.091   5.328  -1.944  0.00  0.00    +0.041 C 
ATOM     12  C   LIG    1        1.315   5.956  -1.422  0.00  0.00    +0.023 C 
ENDBRANCH   1   4
BRANCH   1  13
ATOM     13  O   LIG    1        4.726   8.367  -2.448  0.00  0.00    -0.444 OA
BRANCH  13  14
ATOM     14  C   LIG    1        4.468   9.488  -1.742  0.00  0.00    +0.313 C 
ATOM     15  O   LIG    1        4.943   9.774  -0.652  0.00  0.00    -0.250 OA
BRANCH  14  16
ATOM     16  C   LIG    1        3.559  10.366  -2.515  0.00  0.00    +0.111 C 
ATOM     17  C   LIG    1        3.962  11.298  -3.646  0.00  0.00    -0.014 C 
ATOM     18  C   LIG    1        2.951  11.486  -4.757  0.00  0.00    +0.012 C 
ATOM     19  C   LIG    1        5.384  11.350  -4.143  0.00  0.00    +0.012 C 
ATOM     20  C   LIG    1        3.580  11.869  -2.292  0.00  0.00    +0.032 C 
BRANCH  20  21
ATOM     21  C   LIG    1        4.567  12.457  -1.372  0.00  0.00    -0.023 C 
ATOM     22  C   LIG    1        4.804  13.770  -1.172  0.00  0.00    -0.079 C 
ATOM     23  C   LIG    1        5.844  14.236  -0.191  0.00  0.00    +0.038 C 
ATOM     24  C   LIG    1        4.079  14.875  -1.891  0.00  0.00    +0.038 C 
ENDBRANCH  20  21
ENDBRANCH  14  16
ENDBRANCH  13  14
ENDBRANCH   1  13
TORSDOF 5
ENDMDL
MODEL 4
REMARK VINA RESULT:      -7.2      1.971      3.633
REMARK  Name = 
REMARK                            x       y       z     vdW  Elec       q    Type
REMARK                         _______ _______ _______ _____ _____    ______ ____
ROOT
ATOM      1  C   LIG    1        4.237   8.566  -4.953  0.00  0.00    +0.352 C 
ENDROOT
BRANCH   1   4
ATOM      2  O   LIG    1        5.209  11.294  -4.787  0.00  0.00    -0.270 OA
ATOM      3  C   LIG    1        5.700  10.455  -5.521  0.00  0.00    +0.252 C 
ATOM      4  N   LIG    1        5.333   9.158  -5.688  0.00  0.00    -0.200 N 
ATOM      5  C   LIG    1        6.128   8.552  -6.608  0.00  0.00    +0.252 C 
ATOM      6  O   LIG    1        6.125   7.413  -7.036  0.00  0.00    -0.270 OA
ATOM      7  C   LIG    1        7.088   9.564  -7.061  0.00  0.00    +0.023 C 
ATOM      8  C   LIG    1        8.147   9.343  -8.060  0.00  0.00    +0.041 C 
ATOM      9  C   LIG    1        9.054  10.559  -8.284  0.00  0.00    +0.005 C 
ATOM     10  C   LIG    1        8.690  11.906  -7.629  0.00  0.00    +0.005 C 
ATOM     11  C   LIG    1        7.580  11.958  -6.566  0.00  0.00    +0.041 C 
ATOM     12  C   LIG    1        6.839  10.695  -6.412  0.00  0.00    +0.023 C 
ENDBRANCH   1   4
BRANCH   1  13
ATOM     13  O   LIG    1        4.661   7.360  -4.339  0.00  0.00    -0.444 OA
BRANCH  13  14
ATOM     14  C   LIG    1        3.717   6.710  -3.628  0.00  0.00    +0.313 C 
ATOM     15  O   LIG    1        2.571   6.487  -3.992  0.00  0.00    -0.250 OA
BRANCH  14  16
ATOM     16  C   LIG    1        4.294   6.241  -2.346  0.00  0.00    +0.111 C 
ATOM     17  C   LIG    1        3.511   5.771  -1.131  0.00  0.00    -0.014 C 
ATOM     18  C   LIG    1        4.147   4.676  -0.302  0.00  0.00    +0.012 C 
ATOM     19  C   LIG    1        2.007   5.671  -1.163  0.00  0.00    +0.012 C 
ATOM     20  C   LIG    1        4.210   7.118  -1.108  0.00  0.00    +0.032 C 
BRANCH  20  21
ATOM     21  C   LIG    1        3.477   8.394  -1.164  0.00  0.00    -0.023 C 
ATOM     22  C   LIG    1        3.994   9.613  -1.424  0.00  0.00    -0.079 C 
ATOM     23  C   LIG    1        3.125  10.839  -1.455  0.00  0.00    +0.038 C 
ATOM     24  C   LIG    1        5.452   9.868  -1.694  0.00  0.00    +0.038 C 
ENDBRANCH  20  21
ENDBRANCH  14  16
ENDBRANCH  13  14
ENDBRANCH   1  13
TORSDOF 5
ENDMDL
MODEL 5
REMARK VINA RESULT:      -7.1      2.078      3.523
REMARK  Name = 
REMARK                            x       y       z     vdW  Elec       q    Type
REMARK                         _______ _______ _______ _____ _____    ______ ____
ROOT
ATOM      1  C   LIG    1        3.612   8.959  -4.855  0.00  0.00    +0.352 C 
ENDROOT
BRANCH   1   4
ATOM      2  O   LIG    1        3.034  11.793  -4.626  0.00  0.00    -0.270 OA
ATOM      3  C   LIG    1        3.714  11.185  -3.820  0.00  0.00    +0.252 C 
ATOM      4  N   LIG    1        4.055   9.870  -3.822  0.00  0.00    -0.200 N 
ATOM      5  C   LIG    1        4.836   9.578  -2.748  0.00  0.00    +0.252 C 
ATOM      6  O   LIG    1        5.343   8.530  -2.394  0.00  0.00    -0.270 OA
ATOM      7  C   LIG    1        4.998  10.828  -1.998  0.00  0.00    +0.023 C 
ATOM      8  C   LIG    1        5.770  10.978  -0.754  0.00  0.00    +0.041 C 
ATOM      9  C   LIG    1        5.705  12.384  -0.147  0.00  0.00    +0.005 C 
ATOM     10  C   LIG    1        5.035  13.522  -0.942  0.00  0.00    +0.005 C 
ATOM     11  C   LIG    1        4.225  13.190  -2.205  0.00  0.00    +0.041 C 
ATOM     12  C   LIG    1        4.328  11.784  -2.631  0.00  0.00    +0.023 C 
ENDBRANCH   1   4
BRANCH   1  13
ATOM     13  O   LIG    1        2.681   8.035  -4.318  0.00  0.00    -0.444 OA
BRANCH  13  14
ATOM     14  C   LIG    1        3.104   6.755  -4.263  0.00  0.00    +0.313 C 
ATOM     15  O   LIG    1        4.085   6.298  -4.834  0.00  0.00    -0.250 OA
BRANCH  14  16
ATOM     16  C   LIG    1        2.231   5.981  -3.349  0.00  0.00    +0.111 C 
ATOM     17  C   LIG    1        1.972   6.288  -1.883  0.00  0.00    -0.014 C 
ATOM     18  C   LIG    1        0.593   5.954  -1.358  0.00  0.00    +0.012 C 
ATOM     19  C   LIG    1        2.559   7.514  -1.229  0.00  0.00    +0.012 C 
ATOM     20  C   LIG    1        2.845   5.108  -2.268  0.00  0.00    +0.032 C 
BRANCH  20  21
ATOM     21  C   LIG    1        4.305   5.103  -2.074  0.00  0.00    -0.023 C 
ATOM     22  C   LIG    1        4.968   4.814  -0.935  0.00  0.00    -0.079 C 
ATOM     23  C   LIG    1        6.470   4.842  -0.878  0.00  0.00    +0.038 C 
ATOM     24  C   LIG    1        4.296   4.451   0.361  0.00  0.00    +0.038 C 
ENDBRANCH  20  21
ENDBRANCH  14  16
ENDBRANCH  13  14
ENDBRANCH   1  13
TORSDOF 5
ENDMDL
MODEL 6
REMARK VINA RESULT:      -7.0      1.818      3.267
REMARK  Name = 
REMARK                            x       y       z     vdW  Elec       q    Type
REMARK                         _______ _______ _______ _____ _____    ______ ____
ROOT
ATOM      1  C   LIG    1        4.216   8.612  -5.009  0.00  0.00    +0.352 C 
ENDROOT
BRANCH   1   4
ATOM      2  O   LIG    1        6.008   7.443  -6.968  0.00  0.00    -0.270 OA
ATOM      3  C   LIG    1        6.094   8.598  -6.592  0.00  0.00    +0.252 C 
ATOM      4  N   LIG    1        5.324   9.252  -5.686  0.00  0.00    -0.200 N 
ATOM      5  C   LIG    1        5.748  10.535  -5.537  0.00  0.00    +0.252 C 
ATOM      6  O   LIG    1        5.332  11.434  -4.830  0.00  0.00    -0.270 OA
ATOM      7  C   LIG    1        6.892  10.703  -6.438  0.00  0.00    +0.023 C 
ATOM      8  C   LIG    1        7.666  11.944  -6.606  0.00  0.00    +0.041 C 
ATOM      9  C   LIG    1        8.763  11.854  -7.674  0.00  0.00    +0.005 C 
ATOM     10  C   LIG    1        9.084  10.490  -8.316  0.00  0.00    +0.005 C 
ATOM     11  C   LIG    1        8.145   9.297  -8.072  0.00  0.00    +0.041 C 
ATOM     12  C   LIG    1        7.097   9.554  -7.071  0.00  0.00    +0.023 C 
ENDBRANCH   1   4
BRANCH   1  13
ATOM     13  O   LIG    1        4.553   8.369  -3.654  0.00  0.00    -0.444 OA
BRANCH  13  14
ATOM     14  C   LIG    1        3.612   8.719  -2.752  0.00  0.00    +0.313 C 
ATOM     15  O   LIG    1        3.454   9.836  -2.278  0.00  0.00    -0.250 OA
BRANCH  14  16
ATOM     16  C   LIG    1        2.746   7.554  -2.458  0.00  0.00    +0.111 C 
ATOM     17  C   LIG    1        2.561   6.896  -1.100  0.00  0.00    -0.014 C 
ATOM     18  C   LIG    1        1.191   6.321  -0.811  0.00  0.00    +0.012 C 
ATOM     19  C   LIG    1        3.225   7.454   0.134  0.00  0.00    +0.012 C 
ATOM     20  C   LIG    1        3.366   6.195  -2.179  0.00  0.00    +0.032 C 
BRANCH  20  21
ATOM     21  C   LIG    1        4.831   6.059  -2.115  0.00  0.00    -0.023 C 
ATOM     22  C   LIG    1        5.529   5.181  -1.366  0.00  0.00    -0.079 C 
ATOM     23  C   LIG    1        7.032   5.147  -1.400  0.00  0.00    +0.038 C 
ATOM     24  C   LIG    1        4.899   4.177  -0.439  0.00  0.00    +0.038 C 
ENDBRANCH  20  21
ENDBRANCH  14  16
ENDBRANCH  13  14
ENDBRANCH   1  13
TORSDOF 5
ENDMDL
MODEL 7
REMARK VINA RESULT:      -7.0      2.702      4.678
REMARK  Name = 
REMARK                            x       y       z     vdW  Elec       q    Type
REMARK                         _______ _______ _______ _____ _____    ______ ____
ROOT
ATOM      1  C   LIG    1        4.392   8.091  -5.655  0.00  0.00    +0.352 C 
ENDROOT
BRANCH   1   4
ATOM      2  O   LIG    1        5.625   5.506  -6.119  0.00  0.00    -0.270 OA
ATOM      3  C   LIG    1        6.113   6.555  -6.500  0.00  0.00    +0.252 C 
ATOM      4  N   LIG    1        5.637   7.817  -6.341  0.00  0.00    -0.200 N 
ATOM      5  C   LIG    1        6.480   8.720  -6.906  0.00  0.00    +0.252 C 
ATOM      6  O   LIG    1        6.416   9.933  -6.976  0.00  0.00    -0.270 OA
ATOM      7  C   LIG    1        7.591   7.952  -7.477  0.00  0.00    +0.023 C 
ATOM      8  C   LIG    1        8.741   8.528  -8.193  0.00  0.00    +0.041 C 
ATOM      9  C   LIG    1        9.715   7.481  -8.748  0.00  0.00    +0.005 C 
ATOM     10  C   LIG    1        9.531   5.999  -8.370  0.00  0.00    +0.005 C 
ATOM     11  C   LIG    1        8.245   5.552  -7.656  0.00  0.00    +0.041 C 
ATOM     12  C   LIG    1        7.373   6.663  -7.241  0.00  0.00    +0.023 C 
ENDBRANCH   1   4
BRANCH   1  13
ATOM     13  O   LIG    1        4.547   7.868  -4.264  0.00  0.00    -0.444 OA
BRANCH  13  14
ATOM     14  C   LIG    1        3.686   6.983  -3.720  0.00  0.00    +0.313 C 
ATOM     15  O   LIG    1        2.617   6.634  -4.202  0.00  0.00    -0.250 OA
BRANCH  14  16
ATOM     16  C   LIG    1        4.256   6.439  -2.465  0.00  0.00    +0.111 C 
ATOM     17  C   LIG    1        3.467   5.893  -1.286  0.00  0.00    -0.014 C 
ATOM     18  C   LIG    1        4.101   4.752  -0.521  0.00  0.00    +0.012 C 
ATOM     19  C   LIG    1        1.963   5.792  -1.334  0.00  0.00    +0.012 C 
ATOM     20  C   LIG    1        4.162   7.239  -1.177  0.00  0.00    +0.032 C 
BRANCH  20  21
ATOM     21  C   LIG    1        3.425   8.513  -1.160  0.00  0.00    -0.023 C 
ATOM     22  C   LIG    1        3.938   9.746  -1.355  0.00  0.00    -0.079 C 
ATOM     23  C   LIG    1        3.065  10.970  -1.315  0.00  0.00    +0.038 C 
ATOM     24  C   LIG    1        5.394  10.020  -1.618  0.00  0.00    +0.038 C 
ENDBRANCH  20  21
ENDBRANCH  14  16
ENDBRANCH  13  14
ENDBRANCH   1  13
TORSDOF 5
ENDMDL
MODEL 8
REMARK VINA RESULT:      -7.0      2.183      3.875
REMARK  Name = 
REMARK                            x       y       z     vdW  Elec       q    Type
REMARK                         _______ _______ _______ _____ _____    ______ ____
ROOT
ATOM      1  C   LIG    1        3.581   6.713  -5.366  0.00  0.00    +0.352 C 
ENDROOT
BRANCH   1   4
ATOM      2  O   LIG    1        6.017   6.591  -6.936  0.00  0.00    -0.270 OA
ATOM      3  C   LIG    1        5.602   7.618  -6.429  0.00  0.00    +0.252 C 
ATOM      4  N   LIG    1        4.487   7.798  -5.676  0.00  0.00    -0.200 N 
ATOM      5  C   LIG    1        4.377   9.097  -5.291  0.00  0.00    +0.252 C 
ATOM      6  O   LIG    1        3.534   9.658  -4.616  0.00  0.00    -0.270 OA
ATOM      7  C   LIG    1        5.532   9.800  -5.858  0.00  0.00    +0.023 C 
ATOM      8  C   LIG    1        5.816  11.235  -5.696  0.00  0.00    +0.041 C 
ATOM      9  C   LIG    1        7.055  11.714  -6.463  0.00  0.00    +0.005 C 
ATOM     10  C   LIG    1        7.968  10.680  -7.149  0.00  0.00    +0.005 C 
ATOM     11  C   LIG    1        7.501   9.220  -7.274  0.00  0.00    +0.041 C 
ATOM     12  C   LIG    1        6.260   8.923  -6.540  0.00  0.00    +0.023 C 
ENDBRANCH   1   4
BRANCH   1  13
ATOM     13  O   LIG    1        2.719   7.091  -4.306  0.00  0.00    -0.444 OA
BRANCH  13  14
ATOM     14  C   LIG    1        2.687   6.244  -3.256  0.00  0.00    +0.313 C 
ATOM     15  O   LIG    1        1.696   5.670  -2.827  0.00  0.00    -0.250 OA
BRANCH  14  16
ATOM     16  C   LIG    1        4.058   6.058  -2.725  0.00  0.00    +0.111 C 
ATOM     17  C   LIG    1        4.428   5.790  -1.276  0.00  0.00    -0.014 C 
ATOM     18  C   LIG    1        5.634   4.905  -1.040  0.00  0.00    +0.012 C 
ATOM     19  C   LIG    1        3.366   5.612  -0.220  0.00  0.00    +0.012 C 
ATOM     20  C   LIG    1        4.707   7.149  -1.891  0.00  0.00    +0.032 C 
BRANCH  20  21
ATOM     21  C   LIG    1        3.937   8.354  -1.537  0.00  0.00    -0.023 C 
ATOM     22  C   LIG    1        4.378   9.628  -1.552  0.00  0.00    -0.079 C 
ATOM     23  C   LIG    1        3.478  10.771  -1.169  0.00  0.00    +0.038 C 
ATOM     24  C   LIG    1        5.776  10.030  -1.934  0.00  0.00    +0.038 C 
ENDBRANCH  20  21
ENDBRANCH  14  16
ENDBRANCH  13  14
ENDBRANCH   1  13
TORSDOF 5
ENDMDL
MODEL 9
REMARK VINA RESULT:      -6.9      5.194      7.514
REMARK  Name = 
REMARK                            x       y       z     vdW  Elec       q    Type
REMARK                         _______ _______ _______ _____ _____    ______ ____
ROOT
ATOM      1  C   LIG    1        8.632   6.642  -7.368  0.00  0.00    +0.352 C 
ENDROOT
BRANCH   1   4
ATOM      2  O   LIG    1        9.710   4.712  -9.246  0.00  0.00    -0.270 OA
ATOM      3  C   LIG    1        9.736   5.914  -9.437  0.00  0.00    +0.252 C 
ATOM      4  N   LIG    1        9.272   6.909  -8.638  0.00  0.00    -0.200 N 
ATOM      5  C   LIG    1        9.497   8.122  -9.207  0.00  0.00    +0.252 C 
ATOM      6  O   LIG    1        9.237   9.245  -8.815  0.00  0.00    -0.270 OA
ATOM      7  C   LIG    1       10.164   7.866 -10.487  0.00  0.00    +0.023 C 
ATOM      8  C   LIG    1       10.593   8.899 -11.443  0.00  0.00    +0.041 C 
ATOM      9  C   LIG    1       11.198   8.338 -12.736  0.00  0.00    +0.005 C 
ATOM     10  C   LIG    1       11.474   6.826 -12.849  0.00  0.00    +0.005 C 
ATOM     11  C   LIG    1       10.917   5.871 -11.781  0.00  0.00    +0.041 C 
ATOM     12  C   LIG    1       10.303   6.553 -10.629  0.00  0.00    +0.023 C 
ENDBRANCH   1   4
BRANCH   1  13
ATOM     13  O   LIG    1        7.254   6.963  -7.443  0.00  0.00    -0.444 OA
BRANCH  13  14
ATOM     14  C   LIG    1        6.460   6.317  -6.564  0.00  0.00    +0.313 C 
ATOM     15  O   LIG    1        6.824   5.477  -5.752  0.00  0.00    -0.250 OA
BRANCH  14  16
ATOM     16  C   LIG    1        5.073   6.822  -6.681  0.00  0.00    +0.111 C 
ATOM     17  C   LIG    1        4.566   8.170  -6.193  0.00  0.00    -0.014 C 
ATOM     18  C   LIG    1        3.470   8.815  -7.014  0.00  0.00    +0.012 C 
ATOM     19  C   LIG    1        5.504   9.182  -5.585  0.00  0.00    +0.012 C 
ATOM     20  C   LIG    1        4.185   6.902  -5.449  0.00  0.00    +0.032 C 
BRANCH  20  21
ATOM     21  C   LIG    1        4.737   6.562  -4.127  0.00  0.00    -0.023 C 
ATOM     22  C   LIG    1        4.039   6.299  -3.004  0.00  0.00    -0.079 C 
ATOM     23  C   LIG    1        4.734   5.958  -1.714  0.00  0.00    +0.038 C 
ATOM     24  C   LIG    1        2.537   6.324  -2.920  0.00  0.00    +0.038 C 
ENDBRANCH  20  21
ENDBRANCH  14  16
ENDBRANCH  13  14
ENDBRANCH   1  13
TORSDOF 5
ENDMDL
