MODEL 1
REMARK VINA RESULT:      -7.8      0.000      0.000
REMARK  Name = 
REMARK                            x       y       z     vdW  Elec       q    Type
REMARK                         _______ _______ _______ _____ _____    ______ ____
ROOT
ATOM      1  C   LIG    1       -0.208  31.458   6.586  0.00  0.00    +0.352 C 
ENDROOT
BRANCH   1   4
ATOM      2  O   LIG    1       -0.465  29.032   5.017  0.00  0.00    -0.270 OA
ATOM      3  C   LIG    1        0.594  29.418   5.478  0.00  0.00    +0.252 C 
ATOM      4  N   LIG    1        0.838  30.525   6.225  0.00  0.00    -0.200 N 
ATOM      5  C   LIG    1        2.155  30.599   6.551  0.00  0.00    +0.252 C 
ATOM      6  O   LIG    1        2.768  31.425   7.203  0.00  0.00    -0.270 OA
ATOM      7  C   LIG    1        2.801  29.428   5.950  0.00  0.00    +0.023 C 
ATOM      8  C   LIG    1        4.234  29.106   6.047  0.00  0.00    +0.041 C 
ATOM      9  C   LIG    1        4.645  27.858   5.255  0.00  0.00    +0.005 C 
ATOM     10  C   LIG    1        3.557  26.975   4.614  0.00  0.00    +0.005 C 
ATOM     11  C   LIG    1        2.106  27.480   4.557  0.00  0.00    +0.041 C 
ATOM     12  C   LIG    1        1.875  28.726   5.306  0.00  0.00    +0.023 C 
ENDBRANCH   1   4
BRANCH   1  13
ATOM     13  O   LIG    1        0.362  32.698   6.969  0.00  0.00    -0.444 OA
BRANCH  13  14
ATOM     14  C   LIG    1       -0.124  33.781   6.327  0.00  0.00    +0.313 C 
ATOM     15  O   LIG    1       -1.296  33.975   6.033  0.00  0.00    -0.250 OA
BRANCH  14  16
ATOM     16  C   LIG    1        0.972  34.746   6.078  0.00  0.00    +0.111 C 
ATOM     17  C   LIG    1        1.079  35.695   4.895  0.00  0.00    -0.014 C 
ATOM     18  C   LIG    1        1.732  37.034   5.161  0.00  0.00    +0.012 C 
ATOM     19  C   LIG    1       -0.020  35.782   3.865  0.00  0.00    +0.012 C 
ATOM     20  C   LIG    1        1.985  34.480   4.977  0.00  0.00    +0.032 C 
BRANCH  20  21
ATOM     21  C   LIG    1        1.823  33.307   4.102  0.00  0.00    -0.023 C 
ATOM     22  C   LIG    1        2.783  32.433   3.736  0.00  0.00    -0.079 C 
ATOM     23  C   LIG    1        2.476  31.269   2.835  0.00  0.00    +0.038 C 
ATOM     24  C   LIG    1        4.220  32.530   4.170  0.00  0.00    +0.038 C 
ENDBRANCH  20  21
ENDBRANCH  14  16
ENDBRANCH  13  14
ENDBRANCH   1  13
TORSDOF 5
ENDMDL
MODEL 2
REMARK VINA RESULT:      -7.6      0.133      1.815
REMARK  Name = 
REMARK                            x       y       z     vdW  Elec       q    Type
REMARK                         _______ _______ _______ _____ _____    ______ ____
ROOT
ATOM      1  C   LIG    1       -0.315  31.403   6.456  0.00  0.00    +0.352 C 
ENDROOT
BRANCH   1   4
ATOM      2  O   LIG    1        2.495  31.463   7.173  0.00  0.00    -0.270 OA
ATOM      3  C   LIG    1        2.002  30.589   6.483  0.00  0.00    +0.252 C 
ATOM      4  N   LIG    1        0.712  30.456   6.080  0.00  0.00    -0.200 N 
ATOM      5  C   LIG    1        0.565  29.345   5.311  0.00  0.00    +0.252 C 
ATOM      6  O   LIG    1       -0.417  28.881   4.762  0.00  0.00    -0.270 OA
ATOM      7  C   LIG    1        1.889  28.719   5.225  0.00  0.00    +0.023 C 
ATOM      8  C   LIG    1        2.196  27.482   4.489  0.00  0.00    +0.041 C 
ATOM      9  C   LIG    1        3.650  27.017   4.635  0.00  0.00    +0.005 C 
ATOM     10  C   LIG    1        4.671  27.931   5.341  0.00  0.00    +0.005 C 
ATOM     11  C   LIG    1        4.177  29.170   6.106  0.00  0.00    +0.041 C 
ATOM     12  C   LIG    1        2.744  29.454   5.926  0.00  0.00    +0.023 C 
ENDBRANCH   1   4
BRANCH   1  13
ATOM     13  O   LIG    1        0.278  32.620   6.875  0.00  0.00    -0.444 OA
BRANCH  13  14
ATOM     14  C   LIG    1       -0.197  33.731   6.277  0.00  0.00    +0.313 C 
ATOM     15  O   LIG    1       -1.366  33.945   5.984  0.00  0.00    -0.250 OA
BRANCH  14  16
ATOM     16  C   LIG    1        0.906  34.700   6.076  0.00  0.00    +0.111 C 
ATOM     17  C   LIG    1        1.047  35.667   4.912  0.00  0.00    -0.014 C 
ATOM     18  C   LIG    1        1.693  37.001   5.219  0.00  0.00    +0.012 C 
ATOM     19  C   LIG    1       -0.020  35.772   3.852  0.00  0.00    +0.012 C 
ATOM     20  C   LIG    1        1.951  34.451   5.001  0.00  0.00    +0.032 C 
BRANCH  20  21
ATOM     21  C   LIG    1        1.814  33.293   4.103  0.00  0.00    -0.023 C 
ATOM     22  C   LIG    1        2.790  32.439   3.730  0.00  0.00    -0.079 C 
ATOM     23  C   LIG    1        2.509  31.287   2.805  0.00  0.00    +0.038 C 
ATOM     24  C   LIG    1        4.221  32.548   4.181  0.00  0.00    +0.038 C 
ENDBRANCH  20  21
ENDBRANCH  14  16
ENDBRANCH  13  14
ENDBRANCH   1  13
TORSDOF 5
ENDMDL
MODEL 3
REMARK VINA RESULT:      -6.7      1.422      6.108
REMARK  Name = 
REMARK                            x       y       z     vdW  Elec       q    Type
REMARK                         _______ _______ _______ _____ _____    ______ ____
ROOT
ATOM      1  C   LIG    1       -1.010  30.914   5.636  0.00  0.00    +0.352 C 
ENDROOT
BRANCH   1   4
ATOM      2  O   LIG    1        0.846  32.456   7.245  0.00  0.00    -0.270 OA
ATOM      3  C   LIG    1        0.353  32.874   6.214  0.00  0.00    +0.252 C 
ATOM      4  N   LIG    1       -0.524  32.253   5.383  0.00  0.00    -0.200 N 
ATOM      5  C   LIG    1       -0.843  33.060   4.337  0.00  0.00    +0.252 C 
ATOM      6  O   LIG    1       -1.586  32.879   3.390  0.00  0.00    -0.270 OA
ATOM      7  C   LIG    1       -0.093  34.306   4.527  0.00  0.00    +0.023 C 
ATOM      8  C   LIG    1       -0.133  35.467   3.624  0.00  0.00    +0.041 C 
ATOM      9  C   LIG    1        0.812  36.604   4.030  0.00  0.00    +0.005 C 
ATOM     10  C   LIG    1        1.546  36.532   5.383  0.00  0.00    +0.005 C 
ATOM     11  C   LIG    1        1.524  35.222   6.189  0.00  0.00    +0.041 C 
ATOM     12  C   LIG    1        0.623  34.196   5.640  0.00  0.00    +0.023 C 
ENDBRANCH   1   4
BRANCH   1  13
ATOM     13  O   LIG    1       -0.300  29.983   4.837  0.00  0.00    -0.444 OA
BRANCH  13  14
ATOM     14  C   LIG    1        0.660  29.284   5.477  0.00  0.00    +0.313 C 
ATOM     15  O   LIG    1        0.787  29.185   6.690  0.00  0.00    -0.250 OA
BRANCH  14  16
ATOM     16  C   LIG    1        1.516  28.591   4.487  0.00  0.00    +0.111 C 
ATOM     17  C   LIG    1        2.785  27.810   4.790  0.00  0.00    -0.014 C 
ATOM     18  C   LIG    1        3.065  26.611   3.910  0.00  0.00    +0.012 C 
ATOM     19  C   LIG    1        3.255  27.609   6.209  0.00  0.00    +0.012 C 
ATOM     20  C   LIG    1        2.873  29.168   4.117  0.00  0.00    +0.032 C 
BRANCH  20  21
ATOM     21  C   LIG    1        3.371  30.368   4.812  0.00  0.00    -0.023 C 
ATOM     22  C   LIG    1        3.266  31.646   4.393  0.00  0.00    -0.079 C 
ATOM     23  C   LIG    1        3.818  32.782   5.209  0.00  0.00    +0.038 C 
ATOM     24  C   LIG    1        2.612  32.058   3.103  0.00  0.00    +0.038 C 
ENDBRANCH  20  21
ENDBRANCH  14  16
ENDBRANCH  13  14
ENDBRANCH   1  13
TORSDOF 5
ENDMDL
MODEL 4
REMARK VINA RESULT:      -6.4      1.157      2.842
REMARK  Name = 
REMARK                            x       y       z     vdW  Elec       q    Type
REMARK                         _______ _______ _______ _____ _____    ______ ____
ROOT
ATOM      1  C   LIG    1       -0.492  30.628   6.663  0.00  0.00    +0.352 C 
ENDROOT
BRANCH   1   4
ATOM      2  O   LIG    1       -0.268  28.429   4.784  0.00  0.00    -0.270 OA
ATOM      3  C   LIG    1        0.689  28.910   5.363  0.00  0.00    +0.252 C 
ATOM      4  N   LIG    1        0.710  29.929   6.260  0.00  0.00    -0.200 N 
ATOM      5  C   LIG    1        1.979  30.164   6.686  0.00  0.00    +0.252 C 
ATOM      6  O   LIG    1        2.415  30.978   7.478  0.00  0.00    -0.270 OA
ATOM      7  C   LIG    1        2.838  29.202   5.987  0.00  0.00    +0.023 C 
ATOM      8  C   LIG    1        4.298  29.098   6.142  0.00  0.00    +0.041 C 
ATOM      9  C   LIG    1        4.948  28.051   5.230  0.00  0.00    +0.005 C 
ATOM     10  C   LIG    1        4.053  27.104   4.406  0.00  0.00    +0.005 C 
ATOM     11  C   LIG    1        2.543  27.379   4.312  0.00  0.00    +0.041 C 
ATOM     12  C   LIG    1        2.074  28.458   5.196  0.00  0.00    +0.023 C 
ENDBRANCH   1   4
BRANCH   1  13
ATOM     13  O   LIG    1       -0.881  31.541   5.651  0.00  0.00    -0.444 OA
BRANCH  13  14
ATOM     14  C   LIG    1       -0.047  32.584   5.461  0.00  0.00    +0.313 C 
ATOM     15  O   LIG    1        0.073  33.551   6.202  0.00  0.00    -0.250 OA
BRANCH  14  16
ATOM     16  C   LIG    1        0.761  32.360   4.240  0.00  0.00    +0.111 C 
ATOM     17  C   LIG    1        2.207  32.781   4.034  0.00  0.00    -0.014 C 
ATOM     18  C   LIG    1        3.057  31.872   3.173  0.00  0.00    +0.012 C 
ATOM     19  C   LIG    1        2.996  33.430   5.143  0.00  0.00    +0.012 C 
ATOM     20  C   LIG    1        1.092  33.525   3.322  0.00  0.00    +0.032 C 
BRANCH  20  21
ATOM     21  C   LIG    1        0.683  34.889   3.695  0.00  0.00    -0.023 C 
ATOM     22  C   LIG    1       -0.553  35.419   3.594  0.00  0.00    -0.079 C 
ATOM     23  C   LIG    1       -0.834  36.834   4.020  0.00  0.00    +0.038 C 
ATOM     24  C   LIG    1       -1.745  34.677   3.055  0.00  0.00    +0.038 C 
ENDBRANCH  20  21
ENDBRANCH  14  16
ENDBRANCH  13  14
ENDBRANCH   1  13
TORSDOF 5
ENDMDL
MODEL 5
REMARK VINA RESULT:      -6.3      1.051      3.179
REMARK  Name = 
REMARK                            x       y       z     vdW  Elec       q    Type
REMARK                         _______ _______ _______ _____ _____    ______ ____
ROOT
ATOM      1  C   LIG    1       -0.276  30.534   6.960  0.00  0.00    +0.352 C 
ENDROOT
BRANCH   1   4
ATOM      2  O   LIG    1        2.550  30.891   7.510  0.00  0.00    -0.270 OA
ATOM      3  C   LIG    1        2.122  30.050   6.741  0.00  0.00    +0.252 C 
ATOM      4  N   LIG    1        0.833  29.791   6.401  0.00  0.00    -0.200 N 
ATOM      5  C   LIG    1        0.772  28.774   5.501  0.00  0.00    +0.252 C 
ATOM      6  O   LIG    1       -0.182  28.251   4.955  0.00  0.00    -0.270 OA
ATOM      7  C   LIG    1        2.154  28.351   5.255  0.00  0.00    +0.023 C 
ATOM      8  C   LIG    1        2.561  27.269   4.344  0.00  0.00    +0.041 C 
ATOM      9  C   LIG    1        4.070  26.994   4.340  0.00  0.00    +0.005 C 
ATOM     10  C   LIG    1        5.015  27.946   5.099  0.00  0.00    +0.005 C 
ATOM     11  C   LIG    1        4.426  29.002   6.049  0.00  0.00    +0.041 C 
ATOM     12  C   LIG    1        2.959  29.105   5.994  0.00  0.00    +0.023 C 
ENDBRANCH   1   4
BRANCH   1  13
ATOM     13  O   LIG    1       -0.261  31.865   6.474  0.00  0.00    -0.444 OA
BRANCH  13  14
ATOM     14  C   LIG    1       -0.684  32.022   5.203  0.00  0.00    +0.313 C 
ATOM     15  O   LIG    1       -1.849  32.117   4.842  0.00  0.00    -0.250 OA
BRANCH  14  16
ATOM     16  C   LIG    1        0.484  32.127   4.298  0.00  0.00    +0.111 C 
ATOM     17  C   LIG    1        1.709  33.001   4.514  0.00  0.00    -0.014 C 
ATOM     18  C   LIG    1        3.025  32.455   4.003  0.00  0.00    +0.012 C 
ATOM     19  C   LIG    1        1.871  33.818   5.772  0.00  0.00    +0.012 C 
ATOM     20  C   LIG    1        0.686  33.377   3.458  0.00  0.00    +0.032 C 
BRANCH  20  21
ATOM     21  C   LIG    1       -0.232  34.518   3.612  0.00  0.00    -0.023 C 
ATOM     22  C   LIG    1        0.107  35.801   3.854  0.00  0.00    -0.079 C 
ATOM     23  C   LIG    1       -0.939  36.874   3.985  0.00  0.00    +0.038 C 
ATOM     24  C   LIG    1        1.524  36.281   4.019  0.00  0.00    +0.038 C 
ENDBRANCH  20  21
ENDBRANCH  14  16
ENDBRANCH  13  14
ENDBRANCH   1  13
TORSDOF 5
ENDMDL
MODEL 6
REMARK VINA RESULT:      -6.3      1.412      5.696
REMARK  Name = 
REMARK                            x       y       z     vdW  Elec       q    Type
REMARK                         _______ _______ _______ _____ _____    ______ ____
ROOT
ATOM      1  C   LIG    1       -1.229  31.098   5.535  0.00  0.00    +0.352 C 
ENDROOT
BRANCH   1   4
ATOM      2  O   LIG    1       -1.421  32.882   3.255  0.00  0.00    -0.270 OA
ATOM      3  C   LIG    1       -0.766  33.139   4.249  0.00  0.00    +0.252 C 
ATOM      4  N   LIG    1       -0.597  32.389   5.368  0.00  0.00    -0.200 N 
ATOM      5  C   LIG    1        0.218  33.025   6.250  0.00  0.00    +0.252 C 
ATOM      6  O   LIG    1        0.613  32.692   7.353  0.00  0.00    -0.270 OA
ATOM      7  C   LIG    1        0.595  34.298   5.627  0.00  0.00    +0.023 C 
ATOM      8  C   LIG    1        1.471  35.313   6.233  0.00  0.00    +0.041 C 
ATOM      9  C   LIG    1        1.632  36.581   5.386  0.00  0.00    +0.005 C 
ATOM     10  C   LIG    1        1.055  36.616   3.957  0.00  0.00    +0.005 C 
ATOM     11  C   LIG    1        0.117  35.491   3.491  0.00  0.00    +0.041 C 
ATOM     12  C   LIG    1        0.007  34.370   4.438  0.00  0.00    +0.023 C 
ENDBRANCH   1   4
BRANCH   1  13
ATOM     13  O   LIG    1       -0.388  30.077   5.026  0.00  0.00    -0.444 OA
BRANCH  13  14
ATOM     14  C   LIG    1        0.413  29.482   5.934  0.00  0.00    +0.313 C 
ATOM     15  O   LIG    1        0.290  29.544   7.149  0.00  0.00    -0.250 OA
BRANCH  14  16
ATOM     16  C   LIG    1        1.444  28.677   5.237  0.00  0.00    +0.111 C 
ATOM     17  C   LIG    1        2.913  28.581   5.616  0.00  0.00    -0.014 C 
ATOM     18  C   LIG    1        3.589  27.251   5.365  0.00  0.00    +0.012 C 
ATOM     19  C   LIG    1        3.449  29.280   6.841  0.00  0.00    +0.012 C 
ATOM     20  C   LIG    1        2.497  29.363   4.383  0.00  0.00    +0.032 C 
BRANCH  20  21
ATOM     21  C   LIG    1        2.544  30.834   4.322  0.00  0.00    -0.023 C 
ATOM     22  C   LIG    1        3.646  31.610   4.379  0.00  0.00    -0.079 C 
ATOM     23  C   LIG    1        3.549  33.109   4.299  0.00  0.00    +0.038 C 
ATOM     24  C   LIG    1        5.044  31.077   4.529  0.00  0.00    +0.038 C 
ENDBRANCH  20  21
ENDBRANCH  14  16
ENDBRANCH  13  14
ENDBRANCH   1  13
TORSDOF 5
ENDMDL
MODEL 7
REMARK VINA RESULT:      -6.1      1.547      5.361
REMARK  Name = 
REMARK                            x       y       z     vdW  Elec       q    Type
REMARK                         _______ _______ _______ _____ _____    ______ ____
ROOT
ATOM      1  C   LIG    1       -1.605  31.655   5.758  0.00  0.00    +0.352 C 
ENDROOT
BRANCH   1   4
ATOM      2  O   LIG    1       -0.628  32.566   3.183  0.00  0.00    -0.270 OA
ATOM      3  C   LIG    1       -0.403  33.152   4.226  0.00  0.00    +0.252 C 
ATOM      4  N   LIG    1       -0.798  32.824   5.483  0.00  0.00    -0.200 N 
ATOM      5  C   LIG    1       -0.334  33.733   6.381  0.00  0.00    +0.252 C 
ATOM      6  O   LIG    1       -0.465  33.795   7.590  0.00  0.00    -0.270 OA
ATOM      7  C   LIG    1        0.423  34.728   5.615  0.00  0.00    +0.023 C 
ATOM      8  C   LIG    1        1.102  35.902   6.186  0.00  0.00    +0.041 C 
ATOM      9  C   LIG    1        1.754  36.814   5.140  0.00  0.00    +0.005 C 
ATOM     10  C   LIG    1        1.813  36.357   3.669  0.00  0.00    +0.005 C 
ATOM     11  C   LIG    1        1.006  35.126   3.224  0.00  0.00    +0.041 C 
ATOM     12  C   LIG    1        0.379  34.388   4.332  0.00  0.00    +0.023 C 
ENDBRANCH   1   4
BRANCH   1  13
ATOM     13  O   LIG    1       -0.875  30.741   6.559  0.00  0.00    -0.444 OA
BRANCH  13  14
ATOM     14  C   LIG    1        0.180  30.157   5.954  0.00  0.00    +0.313 C 
ATOM     15  O   LIG    1        0.131  29.209   5.183  0.00  0.00    -0.250 OA
BRANCH  14  16
ATOM     16  C   LIG    1        1.424  30.877   6.317  0.00  0.00    +0.111 C 
ATOM     17  C   LIG    1        2.541  31.270   5.364  0.00  0.00    -0.014 C 
ATOM     18  C   LIG    1        3.264  32.563   5.671  0.00  0.00    +0.012 C 
ATOM     19  C   LIG    1        2.430  31.008   3.883  0.00  0.00    +0.012 C 
ATOM     20  C   LIG    1        2.750  30.136   6.350  0.00  0.00    +0.032 C 
BRANCH  20  21
ATOM     21  C   LIG    1        2.810  28.724   5.936  0.00  0.00    -0.023 C 
ATOM     22  C   LIG    1        3.870  28.082   5.406  0.00  0.00    -0.079 C 
ATOM     23  C   LIG    1        3.795  26.627   5.031  0.00  0.00    +0.038 C 
ATOM     24  C   LIG    1        5.199  28.732   5.135  0.00  0.00    +0.038 C 
ENDBRANCH  20  21
ENDBRANCH  14  16
ENDBRANCH  13  14
ENDBRANCH   1  13
TORSDOF 5
ENDMDL
MODEL 8
REMARK VINA RESULT:      -5.3      1.930      3.724
REMARK  Name = 
REMARK                            x       y       z     vdW  Elec       q    Type
REMARK                         _______ _______ _______ _____ _____    ______ ____
ROOT
ATOM      1  C   LIG    1        3.323  33.218   3.948  0.00  0.00    +0.352 C 
ENDROOT
BRANCH   1   4
ATOM      2  O   LIG    1        5.256  31.547   5.321  0.00  0.00    -0.270 OA
ATOM      3  C   LIG    1        4.216  31.118   4.854  0.00  0.00    +0.252 C 
ATOM      4  N   LIG    1        3.243  31.794   4.191  0.00  0.00    -0.200 N 
ATOM      5  C   LIG    1        2.243  30.951   3.822  0.00  0.00    +0.252 C 
ATOM      6  O   LIG    1        1.208  31.161   3.218  0.00  0.00    -0.270 OA
ATOM      7  C   LIG    1        2.623  29.618   4.301  0.00  0.00    +0.023 C 
ATOM      8  C   LIG    1        1.826  28.394   4.124  0.00  0.00    +0.041 C 
ATOM      9  C   LIG    1        2.432  27.155   4.794  0.00  0.00    +0.005 C 
ATOM     10  C   LIG    1        3.846  27.237   5.401  0.00  0.00    +0.005 C 
ATOM     11  C   LIG    1        4.526  28.608   5.555  0.00  0.00    +0.041 C 
ATOM     12  C   LIG    1        3.794  29.715   4.919  0.00  0.00    +0.023 C 
ENDBRANCH   1   4
BRANCH   1  13
ATOM     13  O   LIG    1        2.019  33.763   3.832  0.00  0.00    -0.444 OA
BRANCH  13  14
ATOM     14  C   LIG    1        1.484  34.232   4.978  0.00  0.00    +0.313 C 
ATOM     15  O   LIG    1        2.023  35.007   5.756  0.00  0.00    -0.250 OA
BRANCH  14  16
ATOM     16  C   LIG    1        0.104  33.716   5.132  0.00  0.00    +0.111 C 
ATOM     17  C   LIG    1       -0.762  33.831   6.376  0.00  0.00    -0.014 C 
ATOM     18  C   LIG    1       -2.251  33.981   6.149  0.00  0.00    +0.012 C 
ATOM     19  C   LIG    1       -0.283  34.585   7.591  0.00  0.00    +0.012 C 
ATOM     20  C   LIG    1       -0.159  32.492   5.992  0.00  0.00    +0.032 C 
BRANCH  20  21
ATOM     21  C   LIG    1        0.947  31.875   6.743  0.00  0.00    -0.023 C 
ATOM     22  C   LIG    1        0.999  30.612   7.214  0.00  0.00    -0.079 C 
ATOM     23  C   LIG    1        2.200  30.107   7.965  0.00  0.00    +0.038 C 
ATOM     24  C   LIG    1       -0.108  29.606   7.049  0.00  0.00    +0.038 C 
ENDBRANCH  20  21
ENDBRANCH  14  16
ENDBRANCH  13  14
ENDBRANCH   1  13
TORSDOF 5
ENDMDL
MODEL 9
REMARK VINA RESULT:      -5.3      2.035      6.250
REMARK  Name = 
REMARK                            x       y       z     vdW  Elec       q    Type
REMARK                         _______ _______ _______ _____ _____    ______ ____
ROOT
ATOM      1  C   LIG    1        3.906  32.986   4.807  0.00  0.00    +0.352 C 
ENDROOT
BRANCH   1   4
ATOM      2  O   LIG    1        1.851  31.914   3.062  0.00  0.00    -0.270 OA
ATOM      3  C   LIG    1        1.727  32.959   3.674  0.00  0.00    +0.252 C 
ATOM      4  N   LIG    1        2.612  33.561   4.510  0.00  0.00    -0.200 N 
ATOM      5  C   LIG    1        2.098  34.723   4.992  0.00  0.00    +0.252 C 
ATOM      6  O   LIG    1        2.570  35.545   5.756  0.00  0.00    -0.270 OA
ATOM      7  C   LIG    1        0.762  34.864   4.404  0.00  0.00    +0.023 C 
ATOM      8  C   LIG    1       -0.161  35.983   4.654  0.00  0.00    +0.041 C 
ATOM      9  C   LIG    1       -1.523  35.831   3.965  0.00  0.00    +0.005 C 
ATOM     10  C   LIG    1       -1.740  34.681   2.962  0.00  0.00    +0.005 C 
ATOM     11  C   LIG    1       -0.692  33.562   2.853  0.00  0.00    +0.041 C 
ATOM     12  C   LIG    1        0.537  33.814   3.624  0.00  0.00    +0.023 C 
ENDBRANCH   1   4
BRANCH   1  13
ATOM     13  O   LIG    1        3.751  31.843   5.631  0.00  0.00    -0.444 OA
BRANCH  13  14
ATOM     14  C   LIG    1        4.386  30.732   5.204  0.00  0.00    +0.313 C 
ATOM     15  O   LIG    1        5.317  30.697   4.411  0.00  0.00    -0.250 OA
BRANCH  14  16
ATOM     16  C   LIG    1        3.826  29.544   5.890  0.00  0.00    +0.111 C 
ATOM     17  C   LIG    1        2.612  28.744   5.447  0.00  0.00    -0.014 C 
ATOM     18  C   LIG    1        2.644  27.257   5.731  0.00  0.00    +0.012 C 
ATOM     19  C   LIG    1        1.887  29.072   4.166  0.00  0.00    +0.012 C 
ATOM     20  C   LIG    1        2.520  29.654   6.659  0.00  0.00    +0.032 C 
BRANCH  20  21
ATOM     21  C   LIG    1        1.769  30.920   6.646  0.00  0.00    -0.023 C 
ATOM     22  C   LIG    1        0.437  31.071   6.802  0.00  0.00    -0.079 C 
ATOM     23  C   LIG    1       -0.203  32.432   6.772  0.00  0.00    +0.038 C 
ATOM     24  C   LIG    1       -0.521  29.930   7.009  0.00  0.00    +0.038 C 
ENDBRANCH  20  21
ENDBRANCH  14  16
ENDBRANCH  13  14
ENDBRANCH   1  13
TORSDOF 5
ENDMDL
