MODEL 1
REMARK VINA RESULT:      -8.3      0.000      0.000
REMARK  Name = 
REMARK                            x       y       z     vdW  Elec       q    Type
REMARK                         _______ _______ _______ _____ _____    ______ ____
ROOT
ATOM      1  C   LIG    1      -45.090  10.963 -43.419  0.00  0.00    +0.352 C 
ENDROOT
BRANCH   1   4
ATOM      2  O   LIG    1      -47.427  12.628 -43.848  0.00  0.00    -0.270 OA
ATOM      3  C   LIG    1      -47.295  11.902 -42.879  0.00  0.00    +0.252 C 
ATOM      4  N   LIG    1      -46.254  11.087 -42.568  0.00  0.00    -0.200 N 
ATOM      5  C   LIG    1      -46.486  10.445 -41.393  0.00  0.00    +0.252 C 
ATOM      6  O   LIG    1      -45.808   9.643 -40.777  0.00  0.00    -0.270 OA
ATOM      7  C   LIG    1      -47.798  10.899 -40.921  0.00  0.00    +0.023 C 
ATOM      8  C   LIG    1      -48.454  10.457 -39.680  0.00  0.00    +0.041 C 
ATOM      9  C   LIG    1      -49.857  11.040 -39.476  0.00  0.00    +0.005 C 
ATOM     10  C   LIG    1      -50.369  12.134 -40.433  0.00  0.00    +0.005 C 
ATOM     11  C   LIG    1      -49.583  12.448 -41.717  0.00  0.00    +0.041 C 
ATOM     12  C   LIG    1      -48.284  11.762 -41.806  0.00  0.00    +0.023 C 
ENDBRANCH   1   4
BRANCH   1  13
ATOM     13  O   LIG    1      -44.057  11.814 -42.952  0.00  0.00    -0.444 OA
BRANCH  13  14
ATOM     14  C   LIG    1      -43.740  12.841 -43.768  0.00  0.00    +0.313 C 
ATOM     15  O   LIG    1      -44.377  13.199 -44.750  0.00  0.00    -0.250 OA
BRANCH  14  16
ATOM     16  C   LIG    1      -42.526  13.522 -43.264  0.00  0.00    +0.111 C 
ATOM     17  C   LIG    1      -41.708  14.564 -44.010  0.00  0.00    -0.014 C 
ATOM     18  C   LIG    1      -41.066  15.646 -43.169  0.00  0.00    +0.012 C 
ATOM     19  C   LIG    1      -42.135  15.064 -45.367  0.00  0.00    +0.012 C 
ATOM     20  C   LIG    1      -41.161  13.160 -43.825  0.00  0.00    +0.032 C 
BRANCH  20  21
ATOM     21  C   LIG    1      -41.058  12.196 -44.933  0.00  0.00    -0.023 C 
ATOM     22  C   LIG    1      -40.107  12.160 -45.888  0.00  0.00    -0.079 C 
ATOM     23  C   LIG    1      -40.120  11.110 -46.965  0.00  0.00    +0.038 C 
ATOM     24  C   LIG    1      -38.969  13.141 -45.980  0.00  0.00    +0.038 C 
ENDBRANCH  20  21
ENDBRANCH  14  16
ENDBRANCH  13  14
ENDBRANCH   1  13
TORSDOF 5
ENDMDL
MODEL 2
REMARK VINA RESULT:      -8.2      3.334      5.444
REMARK  Name = 
REMARK                            x       y       z     vdW  Elec       q    Type
REMARK                         _______ _______ _______ _____ _____    ______ ____
ROOT
ATOM      1  C   LIG    1      -45.652  12.050 -44.205  0.00  0.00    +0.352 C 
ENDROOT
BRANCH   1   4
ATOM      2  O   LIG    1      -48.398  12.795 -43.642  0.00  0.00    -0.270 OA
ATOM      3  C   LIG    1      -47.739  12.079 -42.911  0.00  0.00    +0.252 C 
ATOM      4  N   LIG    1      -46.454  11.667 -43.064  0.00  0.00    -0.200 N 
ATOM      5  C   LIG    1      -46.079  10.879 -42.022  0.00  0.00    +0.252 C 
ATOM      6  O   LIG    1      -45.023  10.321 -41.786  0.00  0.00    -0.270 OA
ATOM      7  C   LIG    1      -47.239  10.785 -41.131  0.00  0.00    +0.023 C 
ATOM      8  C   LIG    1      -47.283  10.023 -39.872  0.00  0.00    +0.041 C 
ATOM      9  C   LIG    1      -48.653  10.041 -39.182  0.00  0.00    +0.005 C 
ATOM     10  C   LIG    1      -49.763  10.961 -39.726  0.00  0.00    +0.005 C 
ATOM     11  C   LIG    1      -49.576  11.654 -41.085  0.00  0.00    +0.041 C 
ATOM     12  C   LIG    1      -48.230  11.494 -41.660  0.00  0.00    +0.023 C 
ENDBRANCH   1   4
BRANCH   1  13
ATOM     13  O   LIG    1      -45.924  11.189 -45.298  0.00  0.00    -0.444 OA
BRANCH  13  14
ATOM     14  C   LIG    1      -45.126  10.106 -45.395  0.00  0.00    +0.313 C 
ATOM     15  O   LIG    1      -44.025   9.978 -44.877  0.00  0.00    -0.250 OA
BRANCH  14  16
ATOM     16  C   LIG    1      -45.811   9.051 -46.178  0.00  0.00    +0.111 C 
ATOM     17  C   LIG    1      -47.314   8.855 -46.295  0.00  0.00    -0.014 C 
ATOM     18  C   LIG    1      -47.824   8.328 -47.619  0.00  0.00    +0.012 C 
ATOM     19  C   LIG    1      -48.278   9.815 -45.645  0.00  0.00    +0.012 C 
ATOM     20  C   LIG    1      -46.485   7.890 -45.467  0.00  0.00    +0.032 C 
BRANCH  20  21
ATOM     21  C   LIG    1      -46.533   7.863 -43.995  0.00  0.00    -0.023 C 
ATOM     22  C   LIG    1      -46.173   6.840 -43.193  0.00  0.00    -0.079 C 
ATOM     23  C   LIG    1      -46.268   6.951 -41.696  0.00  0.00    +0.038 C 
ATOM     24  C   LIG    1      -45.658   5.518 -43.695  0.00  0.00    +0.038 C 
ENDBRANCH  20  21
ENDBRANCH  14  16
ENDBRANCH  13  14
ENDBRANCH   1  13
TORSDOF 5
ENDMDL
MODEL 3
REMARK VINA RESULT:      -8.1      2.056      7.911
REMARK  Name = 
REMARK                            x       y       z     vdW  Elec       q    Type
REMARK                         _______ _______ _______ _____ _____    ______ ____
ROOT
ATOM      1  C   LIG    1      -43.768  10.238 -44.093  0.00  0.00    +0.352 C 
ENDROOT
BRANCH   1   4
ATOM      2  O   LIG    1      -41.631  10.882 -45.946  0.00  0.00    -0.270 OA
ATOM      3  C   LIG    1      -42.000  11.639 -45.067  0.00  0.00    +0.252 C 
ATOM      4  N   LIG    1      -42.978  11.450 -44.143  0.00  0.00    -0.200 N 
ATOM      5  C   LIG    1      -43.080  12.532 -43.328  0.00  0.00    +0.252 C 
ATOM      6  O   LIG    1      -43.820  12.753 -42.388  0.00  0.00    -0.270 OA
ATOM      7  C   LIG    1      -42.071  13.494 -43.784  0.00  0.00    +0.023 C 
ATOM      8  C   LIG    1      -41.829  14.817 -43.186  0.00  0.00    +0.041 C 
ATOM      9  C   LIG    1      -40.762  15.643 -43.915  0.00  0.00    +0.005 C 
ATOM     10  C   LIG    1      -39.933  14.988 -45.037  0.00  0.00    +0.005 C 
ATOM     11  C   LIG    1      -40.347  13.611 -45.581  0.00  0.00    +0.041 C 
ATOM     12  C   LIG    1      -41.431  12.967 -44.821  0.00  0.00    +0.023 C 
ENDBRANCH   1   4
BRANCH   1  13
ATOM     13  O   LIG    1      -45.062  10.482 -44.619  0.00  0.00    -0.444 OA
BRANCH  13  14
ATOM     14  C   LIG    1      -46.077  10.349 -43.741  0.00  0.00    +0.313 C 
ATOM     15  O   LIG    1      -47.097  11.025 -43.716  0.00  0.00    -0.250 OA
BRANCH  14  16
ATOM     16  C   LIG    1      -45.806   9.210 -42.833  0.00  0.00    +0.111 C 
ATOM     17  C   LIG    1      -46.614   7.926 -42.742  0.00  0.00    -0.014 C 
ATOM     18  C   LIG    1      -45.843   6.665 -42.415  0.00  0.00    +0.012 C 
ATOM     19  C   LIG    1      -47.775   7.668 -43.670  0.00  0.00    +0.012 C 
ATOM     20  C   LIG    1      -46.706   8.960 -41.635  0.00  0.00    +0.032 C 
BRANCH  20  21
ATOM     21  C   LIG    1      -47.899   9.799 -41.429  0.00  0.00    -0.023 C 
ATOM     22  C   LIG    1      -48.517  10.051 -40.257  0.00  0.00    -0.079 C 
ATOM     23  C   LIG    1      -49.731  10.936 -40.189  0.00  0.00    +0.038 C 
ATOM     24  C   LIG    1      -48.076   9.486 -38.934  0.00  0.00    +0.038 C 
ENDBRANCH  20  21
ENDBRANCH  14  16
ENDBRANCH  13  14
ENDBRANCH   1  13
TORSDOF 5
ENDMDL
MODEL 4
REMARK VINA RESULT:      -8.0      2.065      7.959
REMARK  Name = 
REMARK                            x       y       z     vdW  Elec       q    Type
REMARK                         _______ _______ _______ _____ _____    ______ ____
ROOT
ATOM      1  C   LIG    1      -43.818  10.403 -43.842  0.00  0.00    +0.352 C 
ENDROOT
BRANCH   1   4
ATOM      2  O   LIG    1      -43.799  12.877 -42.326  0.00  0.00    -0.270 OA
ATOM      3  C   LIG    1      -43.046  12.661 -43.258  0.00  0.00    +0.252 C 
ATOM      4  N   LIG    1      -42.963  11.554 -44.040  0.00  0.00    -0.200 N 
ATOM      5  C   LIG    1      -41.995  11.706 -44.981  0.00  0.00    +0.252 C 
ATOM      6  O   LIG    1      -41.615  10.956 -45.861  0.00  0.00    -0.270 OA
ATOM      7  C   LIG    1      -41.412  13.035 -44.769  0.00  0.00    +0.023 C 
ATOM      8  C   LIG    1      -40.320  13.621 -45.564  0.00  0.00    +0.041 C 
ATOM      9  C   LIG    1      -39.860  14.997 -45.070  0.00  0.00    +0.005 C 
ATOM     10  C   LIG    1      -40.659  15.710 -43.961  0.00  0.00    +0.005 C 
ATOM     11  C   LIG    1      -41.744  14.939 -43.193  0.00  0.00    +0.041 C 
ATOM     12  C   LIG    1      -42.032  13.603 -43.741  0.00  0.00    +0.023 C 
ENDBRANCH   1   4
BRANCH   1  13
ATOM     13  O   LIG    1      -45.044  10.587 -44.527  0.00  0.00    -0.444 OA
BRANCH  13  14
ATOM     14  C   LIG    1      -46.153  10.285 -43.820  0.00  0.00    +0.313 C 
ATOM     15  O   LIG    1      -47.253  10.803 -43.955  0.00  0.00    -0.250 OA
BRANCH  14  16
ATOM     16  C   LIG    1      -45.860   9.175 -42.883  0.00  0.00    +0.111 C 
ATOM     17  C   LIG    1      -46.660   7.891 -42.737  0.00  0.00    -0.014 C 
ATOM     18  C   LIG    1      -45.877   6.645 -42.385  0.00  0.00    +0.012 C 
ATOM     19  C   LIG    1      -47.838   7.600 -43.634  0.00  0.00    +0.012 C 
ATOM     20  C   LIG    1      -46.736   8.959 -41.661  0.00  0.00    +0.032 C 
BRANCH  20  21
ATOM     21  C   LIG    1      -47.928   9.799 -41.458  0.00  0.00    -0.023 C 
ATOM     22  C   LIG    1      -48.534  10.073 -40.284  0.00  0.00    -0.079 C 
ATOM     23  C   LIG    1      -49.749  10.957 -40.220  0.00  0.00    +0.038 C 
ATOM     24  C   LIG    1      -48.077   9.535 -38.956  0.00  0.00    +0.038 C 
ENDBRANCH  20  21
ENDBRANCH  14  16
ENDBRANCH  13  14
ENDBRANCH   1  13
TORSDOF 5
ENDMDL
MODEL 5
REMARK VINA RESULT:      -7.9      1.220      2.435
REMARK  Name = 
REMARK                            x       y       z     vdW  Elec       q    Type
REMARK                         _______ _______ _______ _____ _____    ______ ____
ROOT
ATOM      1  C   LIG    1      -45.438  10.357 -43.747  0.00  0.00    +0.352 C 
ENDROOT
BRANCH   1   4
ATOM      2  O   LIG    1      -47.338  12.528 -44.050  0.00  0.00    -0.270 OA
ATOM      3  C   LIG    1      -47.383  11.726 -43.135  0.00  0.00    +0.252 C 
ATOM      4  N   LIG    1      -46.555  10.679 -42.885  0.00  0.00    -0.200 N 
ATOM      5  C   LIG    1      -46.938  10.027 -41.757  0.00  0.00    +0.252 C 
ATOM      6  O   LIG    1      -46.464   9.053 -41.201  0.00  0.00    -0.270 OA
ATOM      7  C   LIG    1      -48.121  10.729 -41.250  0.00  0.00    +0.023 C 
ATOM      8  C   LIG    1      -48.873  10.360 -40.039  0.00  0.00    +0.041 C 
ATOM      9  C   LIG    1      -50.113  11.227 -39.790  0.00  0.00    +0.005 C 
ATOM     10  C   LIG    1      -50.357  12.471 -40.667  0.00  0.00    +0.005 C 
ATOM     11  C   LIG    1      -49.505  12.688 -41.928  0.00  0.00    +0.041 C 
ATOM     12  C   LIG    1      -48.391  11.737 -42.070  0.00  0.00    +0.023 C 
ENDBRANCH   1   4
BRANCH   1  13
ATOM     13  O   LIG    1      -44.222  10.741 -43.127  0.00  0.00    -0.444 OA
BRANCH  13  14
ATOM     14  C   LIG    1      -43.882  12.039 -43.274  0.00  0.00    +0.313 C 
ATOM     15  O   LIG    1      -43.693  12.837 -42.366  0.00  0.00    -0.250 OA
BRANCH  14  16
ATOM     16  C   LIG    1      -43.709  12.349 -44.712  0.00  0.00    +0.111 C 
ATOM     17  C   LIG    1      -42.416  12.236 -45.503  0.00  0.00    -0.014 C 
ATOM     18  C   LIG    1      -42.547  11.834 -46.956  0.00  0.00    +0.012 C 
ATOM     19  C   LIG    1      -41.157  11.700 -44.866  0.00  0.00    +0.012 C 
ATOM     20  C   LIG    1      -42.962  13.603 -45.135  0.00  0.00    +0.032 C 
BRANCH  20  21
ATOM     21  C   LIG    1      -42.336  14.461 -44.115  0.00  0.00    -0.023 C 
ATOM     22  C   LIG    1      -41.266  15.264 -44.281  0.00  0.00    -0.079 C 
ATOM     23  C   LIG    1      -40.730  16.095 -43.147  0.00  0.00    +0.038 C 
ATOM     24  C   LIG    1      -40.511  15.405 -45.575  0.00  0.00    +0.038 C 
ENDBRANCH  20  21
ENDBRANCH  14  16
ENDBRANCH  13  14
ENDBRANCH   1  13
TORSDOF 5
ENDMDL
MODEL 6
REMARK VINA RESULT:      -7.9      1.826      7.785
REMARK  Name = 
REMARK                            x       y       z     vdW  Elec       q    Type
REMARK                         _______ _______ _______ _____ _____    ______ ____
ROOT
ATOM      1  C   LIG    1      -43.361  10.466 -44.033  0.00  0.00    +0.352 C 
ENDROOT
BRANCH   1   4
ATOM      2  O   LIG    1      -41.217  11.069 -45.891  0.00  0.00    -0.270 OA
ATOM      3  C   LIG    1      -41.616  11.860 -45.056  0.00  0.00    +0.252 C 
ATOM      4  N   LIG    1      -42.601  11.693 -44.136  0.00  0.00    -0.200 N 
ATOM      5  C   LIG    1      -42.740  12.813 -43.378  0.00  0.00    +0.252 C 
ATOM      6  O   LIG    1      -43.498  13.063 -42.459  0.00  0.00    -0.270 OA
ATOM      7  C   LIG    1      -41.750  13.776 -43.870  0.00  0.00    +0.023 C 
ATOM      8  C   LIG    1      -41.548  15.133 -43.338  0.00  0.00    +0.041 C 
ATOM      9  C   LIG    1      -40.493  15.948 -44.096  0.00  0.00    +0.005 C 
ATOM     10  C   LIG    1      -39.633  15.258 -45.173  0.00  0.00    +0.005 C 
ATOM     11  C   LIG    1      -40.006  13.845 -45.651  0.00  0.00    +0.041 C 
ATOM     12  C   LIG    1      -41.083  13.213 -44.872  0.00  0.00    +0.023 C 
ENDBRANCH   1   4
BRANCH   1  13
ATOM     13  O   LIG    1      -44.729  10.721 -44.301  0.00  0.00    -0.444 OA
BRANCH  13  14
ATOM     14  C   LIG    1      -45.603   9.899 -43.683  0.00  0.00    +0.313 C 
ATOM     15  O   LIG    1      -45.312   8.924 -43.003  0.00  0.00    -0.250 OA
BRANCH  14  16
ATOM     16  C   LIG    1      -46.985  10.388 -43.899  0.00  0.00    +0.111 C 
ATOM     17  C   LIG    1      -47.642  11.559 -43.186  0.00  0.00    -0.014 C 
ATOM     18  C   LIG    1      -48.636  12.367 -43.992  0.00  0.00    +0.012 C 
ATOM     19  C   LIG    1      -46.871  12.405 -42.203  0.00  0.00    +0.012 C 
ATOM     20  C   LIG    1      -48.053  10.138 -42.848  0.00  0.00    +0.032 C 
BRANCH  20  21
ATOM     21  C   LIG    1      -47.691   9.487 -41.577  0.00  0.00    -0.023 C 
ATOM     22  C   LIG    1      -48.283   9.668 -40.379  0.00  0.00    -0.079 C 
ATOM     23  C   LIG    1      -47.812   8.930 -39.156  0.00  0.00    +0.038 C 
ATOM     24  C   LIG    1      -49.439  10.602 -40.143  0.00  0.00    +0.038 C 
ENDBRANCH  20  21
ENDBRANCH  14  16
ENDBRANCH  13  14
ENDBRANCH   1  13
TORSDOF 5
ENDMDL
MODEL 7
REMARK VINA RESULT:      -7.8      3.818      5.945
REMARK  Name = 
REMARK                            x       y       z     vdW  Elec       q    Type
REMARK                         _______ _______ _______ _____ _____    ______ ____
ROOT
ATOM      1  C   LIG    1      -46.020  12.100 -44.583  0.00  0.00    +0.352 C 
ENDROOT
BRANCH   1   4
ATOM      2  O   LIG    1      -48.666  12.728 -43.572  0.00  0.00    -0.270 OA
ATOM      3  C   LIG    1      -47.888  11.993 -42.992  0.00  0.00    +0.252 C 
ATOM      4  N   LIG    1      -46.632  11.630 -43.360  0.00  0.00    -0.200 N 
ATOM      5  C   LIG    1      -46.087  10.796 -42.435  0.00  0.00    +0.252 C 
ATOM      6  O   LIG    1      -44.996  10.259 -42.393  0.00  0.00    -0.270 OA
ATOM      7  C   LIG    1      -47.097  10.617 -41.388  0.00  0.00    +0.023 C 
ATOM      8  C   LIG    1      -46.934   9.785 -40.184  0.00  0.00    +0.041 C 
ATOM      9  C   LIG    1      -48.184   9.722 -39.298  0.00  0.00    +0.005 C 
ATOM     10  C   LIG    1      -49.383  10.637 -39.613  0.00  0.00    +0.005 C 
ATOM     11  C   LIG    1      -49.419  11.410 -40.941  0.00  0.00    +0.041 C 
ATOM     12  C   LIG    1      -48.172  11.323 -41.719  0.00  0.00    +0.023 C 
ENDBRANCH   1   4
BRANCH   1  13
ATOM     13  O   LIG    1      -45.750  11.005 -45.441  0.00  0.00    -0.444 OA
BRANCH  13  14
ATOM     14  C   LIG    1      -46.716  10.720 -46.339  0.00  0.00    +0.313 C 
ATOM     15  O   LIG    1      -46.787  11.159 -47.479  0.00  0.00    -0.250 OA
BRANCH  14  16
ATOM     16  C   LIG    1      -47.660   9.737 -45.760  0.00  0.00    +0.111 C 
ATOM     17  C   LIG    1      -47.332   8.308 -45.359  0.00  0.00    -0.014 C 
ATOM     18  C   LIG    1      -48.079   7.753 -44.165  0.00  0.00    +0.012 C 
ATOM     19  C   LIG    1      -45.924   7.775 -45.459  0.00  0.00    +0.012 C 
ATOM     20  C   LIG    1      -48.161   8.575 -46.602  0.00  0.00    +0.032 C 
BRANCH  20  21
ATOM     21  C   LIG    1      -47.637   8.380 -47.964  0.00  0.00    -0.023 C 
ATOM     22  C   LIG    1      -48.336   7.999 -49.052  0.00  0.00    -0.079 C 
ATOM     23  C   LIG    1      -47.672   7.842 -50.392  0.00  0.00    +0.038 C 
ATOM     24  C   LIG    1      -49.809   7.691 -49.041  0.00  0.00    +0.038 C 
ENDBRANCH  20  21
ENDBRANCH  14  16
ENDBRANCH  13  14
ENDBRANCH   1  13
TORSDOF 5
ENDMDL
MODEL 8
REMARK VINA RESULT:      -7.7      1.025      2.041
REMARK  Name = 
REMARK                            x       y       z     vdW  Elec       q    Type
REMARK                         _______ _______ _______ _____ _____    ______ ____
ROOT
ATOM      1  C   LIG    1      -45.760  11.743 -44.526  0.00  0.00    +0.352 C 
ENDROOT
BRANCH   1   4
ATOM      2  O   LIG    1      -45.156   9.937 -42.338  0.00  0.00    -0.270 OA
ATOM      3  C   LIG    1      -46.185  10.584 -42.402  0.00  0.00    +0.252 C 
ATOM      4  N   LIG    1      -46.580  11.451 -43.369  0.00  0.00    -0.200 N 
ATOM      5  C   LIG    1      -47.803  11.967 -43.077  0.00  0.00    +0.252 C 
ATOM      6  O   LIG    1      -48.495  12.765 -43.682  0.00  0.00    -0.270 OA
ATOM      7  C   LIG    1      -48.215  11.369 -41.803  0.00  0.00    +0.023 C 
ATOM      8  C   LIG    1      -49.480  11.647 -41.105  0.00  0.00    +0.041 C 
ATOM      9  C   LIG    1      -49.613  10.935 -39.752  0.00  0.00    +0.005 C 
ATOM     10  C   LIG    1      -48.558   9.890 -39.339  0.00  0.00    +0.005 C 
ATOM     11  C   LIG    1      -47.264   9.755 -40.158  0.00  0.00    +0.041 C 
ATOM     12  C   LIG    1      -47.252  10.549 -41.397  0.00  0.00    +0.023 C 
ENDBRANCH   1   4
BRANCH   1  13
ATOM     13  O   LIG    1      -44.672  12.570 -44.151  0.00  0.00    -0.444 OA
BRANCH  13  14
ATOM     14  C   LIG    1      -43.447  12.073 -44.422  0.00  0.00    +0.313 C 
ATOM     15  O   LIG    1      -43.203  11.134 -45.167  0.00  0.00    -0.250 OA
BRANCH  14  16
ATOM     16  C   LIG    1      -42.417  12.879 -43.725  0.00  0.00    +0.111 C 
ATOM     17  C   LIG    1      -41.819  14.187 -44.217  0.00  0.00    -0.014 C 
ATOM     18  C   LIG    1      -41.442  15.197 -43.155  0.00  0.00    +0.012 C 
ATOM     19  C   LIG    1      -42.307  14.838 -45.487  0.00  0.00    +0.012 C 
ATOM     20  C   LIG    1      -40.993  12.914 -44.253  0.00  0.00    +0.032 C 
BRANCH  20  21
ATOM     21  C   LIG    1      -40.661  12.218 -45.507  0.00  0.00    -0.023 C 
ATOM     22  C   LIG    1      -39.666  12.527 -46.364  0.00  0.00    -0.079 C 
ATOM     23  C   LIG    1      -39.434  11.723 -47.613  0.00  0.00    +0.038 C 
ATOM     24  C   LIG    1      -38.715  13.677 -46.170  0.00  0.00    +0.038 C 
ENDBRANCH  20  21
ENDBRANCH  14  16
ENDBRANCH  13  14
ENDBRANCH   1  13
TORSDOF 5
ENDMDL
MODEL 9
REMARK VINA RESULT:      -7.7      2.202      7.291
REMARK  Name = 
REMARK                            x       y       z     vdW  Elec       q    Type
REMARK                         _______ _______ _______ _____ _____    ______ ____
ROOT
ATOM      1  C   LIG    1      -44.979   9.437 -45.633  0.00  0.00    +0.352 C 
ENDROOT
BRANCH   1   4
ATOM      2  O   LIG    1      -42.919  10.094 -43.699  0.00  0.00    -0.270 OA
ATOM      3  C   LIG    1      -43.437  10.921 -44.428  0.00  0.00    +0.252 C 
ATOM      4  N   LIG    1      -44.405  10.737 -45.362  0.00  0.00    -0.200 N 
ATOM      5  C   LIG    1      -44.719  11.915 -45.961  0.00  0.00    +0.252 C 
ATOM      6  O   LIG    1      -45.527  12.174 -46.835  0.00  0.00    -0.270 OA
ATOM      7  C   LIG    1      -43.864  12.937 -45.348  0.00  0.00    +0.023 C 
ATOM      8  C   LIG    1      -43.865  14.366 -45.697  0.00  0.00    +0.041 C 
ATOM      9  C   LIG    1      -42.812  15.191 -44.946  0.00  0.00    +0.005 C 
ATOM     10  C   LIG    1      -42.010  14.535 -43.805  0.00  0.00    +0.005 C 
ATOM     11  C   LIG    1      -42.088  13.014 -43.600  0.00  0.00    +0.041 C 
ATOM     12  C   LIG    1      -43.097  12.347 -44.439  0.00  0.00    +0.023 C 
ENDBRANCH   1   4
BRANCH   1  13
ATOM     13  O   LIG    1      -46.368   9.453 -45.352  0.00  0.00    -0.444 OA
BRANCH  13  14
ATOM     14  C   LIG    1      -46.698   9.315 -44.051  0.00  0.00    +0.313 C 
ATOM     15  O   LIG    1      -46.181   8.540 -43.259  0.00  0.00    -0.250 OA
BRANCH  14  16
ATOM     16  C   LIG    1      -47.750  10.296 -43.697  0.00  0.00    +0.111 C 
ATOM     17  C   LIG    1      -47.572  11.523 -42.817  0.00  0.00    -0.014 C 
ATOM     18  C   LIG    1      -48.408  12.734 -43.171  0.00  0.00    +0.012 C 
ATOM     19  C   LIG    1      -46.219  11.896 -42.266  0.00  0.00    +0.012 C 
ATOM     20  C   LIG    1      -48.330  10.317 -42.293  0.00  0.00    +0.032 C 
BRANCH  20  21
ATOM     21  C   LIG    1      -47.781   9.421 -41.262  0.00  0.00    -0.023 C 
ATOM     22  C   LIG    1      -48.006   9.483 -39.933  0.00  0.00    -0.079 C 
ATOM     23  C   LIG    1      -47.381   8.494 -38.988  0.00  0.00    +0.038 C 
ATOM     24  C   LIG    1      -48.874  10.520 -39.274  0.00  0.00    +0.038 C 
ENDBRANCH  20  21
ENDBRANCH  14  16
ENDBRANCH  13  14
ENDBRANCH   1  13
TORSDOF 5
ENDMDL
