MODEL 1
REMARK VINA RESULT:      -7.4      0.000      0.000
REMARK  Name = 
REMARK                            x       y       z     vdW  Elec       q    Type
REMARK                         _______ _______ _______ _____ _____    ______ ____
ROOT
ATOM      1  C   LIG    1       22.821 -28.294 -12.400  0.00  0.00    +0.352 C 
ENDROOT
BRANCH   1   4
ATOM      2  O   LIG    1       25.613 -28.213 -13.184  0.00  0.00    -0.270 OA
ATOM      3  C   LIG    1       25.011 -27.242 -12.763  0.00  0.00    +0.252 C 
ATOM      4  N   LIG    1       23.716 -27.158 -12.363  0.00  0.00    -0.200 N 
ATOM      5  C   LIG    1       23.425 -25.895 -11.952  0.00  0.00    +0.252 C 
ATOM      6  O   LIG    1       22.391 -25.416 -11.524  0.00  0.00    -0.270 OA
ATOM      7  C   LIG    1       24.654 -25.111 -12.111  0.00  0.00    +0.023 C 
ATOM      8  C   LIG    1       24.797 -23.683 -11.787  0.00  0.00    +0.041 C 
ATOM      9  C   LIG    1       26.177 -23.104 -12.124  0.00  0.00    +0.005 C 
ATOM     10  C   LIG    1       27.308 -24.052 -12.570  0.00  0.00    +0.005 C 
ATOM     11  C   LIG    1       26.980 -25.514 -12.912  0.00  0.00    +0.041 C 
ATOM     12  C   LIG    1       25.598 -25.909 -12.597  0.00  0.00    +0.023 C 
ENDBRANCH   1   4
BRANCH   1  13
ATOM     13  O   LIG    1       22.297 -28.539 -11.106  0.00  0.00    -0.444 OA
BRANCH  13  14
ATOM     14  C   LIG    1       23.144 -29.135 -10.241  0.00  0.00    +0.313 C 
ATOM     15  O   LIG    1       23.148 -28.991  -9.026  0.00  0.00    -0.250 OA
BRANCH  14  16
ATOM     16  C   LIG    1       24.044 -30.053 -10.978  0.00  0.00    +0.111 C 
ATOM     17  C   LIG    1       24.767 -31.257 -10.396  0.00  0.00    -0.014 C 
ATOM     18  C   LIG    1       24.963 -32.438 -11.323  0.00  0.00    +0.012 C 
ATOM     19  C   LIG    1       24.554 -31.676  -8.963  0.00  0.00    +0.012 C 
ATOM     20  C   LIG    1       25.544 -30.000 -10.742  0.00  0.00    +0.032 C 
BRANCH  20  21
ATOM     21  C   LIG    1       26.091 -29.098  -9.715  0.00  0.00    -0.023 C 
ATOM     22  C   LIG    1       27.320 -28.543  -9.698  0.00  0.00    -0.079 C 
ATOM     23  C   LIG    1       27.750 -27.629  -8.584  0.00  0.00    +0.038 C 
ATOM     24  C   LIG    1       28.364 -28.776 -10.757  0.00  0.00    +0.038 C 
ENDBRANCH  20  21
ENDBRANCH  14  16
ENDBRANCH  13  14
ENDBRANCH   1  13
TORSDOF 5
ENDMDL
MODEL 2
REMARK VINA RESULT:      -7.4      0.075      1.814
REMARK  Name = 
REMARK                            x       y       z     vdW  Elec       q    Type
REMARK                         _______ _______ _______ _____ _____    ______ ____
ROOT
ATOM      1  C   LIG    1       22.772 -28.301 -12.345  0.00  0.00    +0.352 C 
ENDROOT
BRANCH   1   4
ATOM      2  O   LIG    1       22.294 -25.539 -11.601  0.00  0.00    -0.270 OA
ATOM      3  C   LIG    1       23.375 -25.948 -11.984  0.00  0.00    +0.252 C 
ATOM      4  N   LIG    1       23.718 -27.207 -12.361  0.00  0.00    -0.200 N 
ATOM      5  C   LIG    1       25.025 -27.254 -12.731  0.00  0.00    +0.252 C 
ATOM      6  O   LIG    1       25.706 -28.181 -13.129  0.00  0.00    -0.270 OA
ATOM      7  C   LIG    1       25.555 -25.897 -12.568  0.00  0.00    +0.023 C 
ATOM      8  C   LIG    1       26.939 -25.486 -12.851  0.00  0.00    +0.041 C 
ATOM      9  C   LIG    1       27.233 -24.018 -12.517  0.00  0.00    +0.005 C 
ATOM     10  C   LIG    1       26.074 -23.086 -12.117  0.00  0.00    +0.005 C 
ATOM     11  C   LIG    1       24.690 -23.683 -11.813  0.00  0.00    +0.041 C 
ATOM     12  C   LIG    1       24.577 -25.119 -12.119  0.00  0.00    +0.023 C 
ENDBRANCH   1   4
BRANCH   1  13
ATOM     13  O   LIG    1       22.292 -28.506 -11.028  0.00  0.00    -0.444 OA
BRANCH  13  14
ATOM     14  C   LIG    1       23.157 -29.104 -10.182  0.00  0.00    +0.313 C 
ATOM     15  O   LIG    1       23.186 -28.962  -8.967  0.00  0.00    -0.250 OA
BRANCH  14  16
ATOM     16  C   LIG    1       24.043 -30.018 -10.940  0.00  0.00    +0.111 C 
ATOM     17  C   LIG    1       24.764 -31.234 -10.381  0.00  0.00    -0.014 C 
ATOM     18  C   LIG    1       24.941 -32.405 -11.324  0.00  0.00    +0.012 C 
ATOM     19  C   LIG    1       24.564 -31.669  -8.951  0.00  0.00    +0.012 C 
ATOM     20  C   LIG    1       25.546 -29.978 -10.720  0.00  0.00    +0.032 C 
BRANCH  20  21
ATOM     21  C   LIG    1       26.110 -29.092  -9.688  0.00  0.00    -0.023 C 
ATOM     22  C   LIG    1       27.344 -28.547  -9.678  0.00  0.00    -0.079 C 
ATOM     23  C   LIG    1       27.791 -27.649  -8.557  0.00  0.00    +0.038 C 
ATOM     24  C   LIG    1       28.374 -28.776 -10.750  0.00  0.00    +0.038 C 
ENDBRANCH  20  21
ENDBRANCH  14  16
ENDBRANCH  13  14
ENDBRANCH   1  13
TORSDOF 5
ENDMDL
MODEL 3
REMARK VINA RESULT:      -7.1      1.245      5.024
REMARK  Name = 
REMARK                            x       y       z     vdW  Elec       q    Type
REMARK                         _______ _______ _______ _____ _____    ______ ____
ROOT
ATOM      1  C   LIG    1       22.773 -26.582 -12.347  0.00  0.00    +0.352 C 
ENDROOT
BRANCH   1   4
ATOM      2  O   LIG    1       24.675 -28.424 -13.532  0.00  0.00    -0.270 OA
ATOM      3  C   LIG    1       24.085 -28.654 -12.492  0.00  0.00    +0.252 C 
ATOM      4  N   LIG    1       23.177 -27.878 -11.846  0.00  0.00    -0.200 N 
ATOM      5  C   LIG    1       22.743 -28.495 -10.715  0.00  0.00    +0.252 C 
ATOM      6  O   LIG    1       21.939 -28.139  -9.873  0.00  0.00    -0.270 OA
ATOM      7  C   LIG    1       23.448 -29.778 -10.642  0.00  0.00    +0.023 C 
ATOM      8  C   LIG    1       23.286 -30.776  -9.573  0.00  0.00    +0.041 C 
ATOM      9  C   LIG    1       24.206 -31.995  -9.714  0.00  0.00    +0.005 C 
ATOM     10  C   LIG    1       25.045 -32.166 -10.996  0.00  0.00    +0.005 C 
ATOM     11  C   LIG    1       25.144 -31.004 -11.998  0.00  0.00    +0.041 C 
ATOM     12  C   LIG    1       24.251 -29.873 -11.696  0.00  0.00    +0.023 C 
ENDBRANCH   1   4
BRANCH   1  13
ATOM     13  O   LIG    1       23.880 -25.698 -12.348  0.00  0.00    -0.444 OA
BRANCH  13  14
ATOM     14  C   LIG    1       24.292 -25.285 -11.131  0.00  0.00    +0.313 C 
ATOM     15  O   LIG    1       23.632 -25.315 -10.102  0.00  0.00    -0.250 OA
BRANCH  14  16
ATOM     16  C   LIG    1       25.703 -24.838 -11.208  0.00  0.00    +0.111 C 
ATOM     17  C   LIG    1       26.732 -25.293 -12.229  0.00  0.00    -0.014 C 
ATOM     18  C   LIG    1       27.762 -24.267 -12.652  0.00  0.00    +0.012 C 
ATOM     19  C   LIG    1       26.357 -26.231 -13.349  0.00  0.00    +0.012 C 
ATOM     20  C   LIG    1       26.823 -25.778 -10.793  0.00  0.00    +0.032 C 
BRANCH  20  21
ATOM     21  C   LIG    1       26.508 -27.162 -10.401  0.00  0.00    -0.023 C 
ATOM     22  C   LIG    1       27.083 -27.872  -9.409  0.00  0.00    -0.079 C 
ATOM     23  C   LIG    1       26.658 -29.283  -9.111  0.00  0.00    +0.038 C 
ATOM     24  C   LIG    1       28.180 -27.346  -8.525  0.00  0.00    +0.038 C 
ENDBRANCH  20  21
ENDBRANCH  14  16
ENDBRANCH  13  14
ENDBRANCH   1  13
TORSDOF 5
ENDMDL
MODEL 4
REMARK VINA RESULT:      -7.1      1.232      5.282
REMARK  Name = 
REMARK                            x       y       z     vdW  Elec       q    Type
REMARK                         _______ _______ _______ _____ _____    ______ ____
ROOT
ATOM      1  C   LIG    1       22.806 -26.492 -12.331  0.00  0.00    +0.352 C 
ENDROOT
BRANCH   1   4
ATOM      2  O   LIG    1       21.920 -27.992 -10.011  0.00  0.00    -0.270 OA
ATOM      3  C   LIG    1       22.752 -28.409 -10.797  0.00  0.00    +0.252 C 
ATOM      4  N   LIG    1       23.246 -27.803 -11.907  0.00  0.00    -0.200 N 
ATOM      5  C   LIG    1       24.167 -28.597 -12.513  0.00  0.00    +0.252 C 
ATOM      6  O   LIG    1       24.832 -28.421 -13.517  0.00  0.00    -0.270 OA
ATOM      7  C   LIG    1       24.259 -29.820 -11.709  0.00  0.00    +0.023 C 
ATOM      8  C   LIG    1       25.137 -30.964 -12.000  0.00  0.00    +0.041 C 
ATOM      9  C   LIG    1       24.970 -32.140 -11.030  0.00  0.00    +0.005 C 
ATOM     10  C   LIG    1       24.086 -31.969  -9.779  0.00  0.00    +0.005 C 
ATOM     11  C   LIG    1       23.190 -30.727  -9.647  0.00  0.00    +0.041 C 
ATOM     12  C   LIG    1       23.414 -29.713 -10.690  0.00  0.00    +0.023 C 
ENDBRANCH   1   4
BRANCH   1  13
ATOM     13  O   LIG    1       23.903 -25.594 -12.345  0.00  0.00    -0.444 OA
BRANCH  13  14
ATOM     14  C   LIG    1       24.337 -25.192 -11.133  0.00  0.00    +0.313 C 
ATOM     15  O   LIG    1       23.689 -25.213 -10.095  0.00  0.00    -0.250 OA
BRANCH  14  16
ATOM     16  C   LIG    1       25.754 -24.771 -11.226  0.00  0.00    +0.111 C 
ATOM     17  C   LIG    1       26.760 -25.233 -12.268  0.00  0.00    -0.014 C 
ATOM     18  C   LIG    1       27.802 -24.222 -12.695  0.00  0.00    +0.012 C 
ATOM     19  C   LIG    1       26.350 -26.151 -13.393  0.00  0.00    +0.012 C 
ATOM     20  C   LIG    1       26.863 -25.737 -10.840  0.00  0.00    +0.032 C 
BRANCH  20  21
ATOM     21  C   LIG    1       26.527 -27.119 -10.459  0.00  0.00    -0.023 C 
ATOM     22  C   LIG    1       27.069 -27.834  -9.452  0.00  0.00    -0.079 C 
ATOM     23  C   LIG    1       26.627 -29.244  -9.169  0.00  0.00    +0.038 C 
ATOM     24  C   LIG    1       28.144 -27.316  -8.536  0.00  0.00    +0.038 C 
ENDBRANCH  20  21
ENDBRANCH  14  16
ENDBRANCH  13  14
ENDBRANCH   1  13
TORSDOF 5
ENDMDL
MODEL 5
REMARK VINA RESULT:      -6.9      1.595      2.573
REMARK  Name = 
REMARK                            x       y       z     vdW  Elec       q    Type
REMARK                         _______ _______ _______ _____ _____    ______ ____
ROOT
ATOM      1  C   LIG    1       22.754 -27.224 -10.220  0.00  0.00    +0.352 C 
ENDROOT
BRANCH   1   4
ATOM      2  O   LIG    1       22.137 -24.930 -11.885  0.00  0.00    -0.270 OA
ATOM      3  C   LIG    1       23.273 -25.254 -11.592  0.00  0.00    +0.252 C 
ATOM      4  N   LIG    1       23.685 -26.300 -10.831  0.00  0.00    -0.200 N 
ATOM      5  C   LIG    1       25.041 -26.324 -10.746  0.00  0.00    +0.252 C 
ATOM      6  O   LIG    1       25.790 -27.090 -10.169  0.00  0.00    -0.270 OA
ATOM      7  C   LIG    1       25.528 -25.182 -11.527  0.00  0.00    +0.023 C 
ATOM      8  C   LIG    1       26.943 -24.819 -11.709  0.00  0.00    +0.041 C 
ATOM      9  C   LIG    1       27.156 -23.531 -12.513  0.00  0.00    +0.005 C 
ATOM     10  C   LIG    1       25.951 -22.857 -13.198  0.00  0.00    +0.005 C 
ATOM     11  C   LIG    1       24.527 -23.332 -12.865  0.00  0.00    +0.041 C 
ATOM     12  C   LIG    1       24.478 -24.541 -12.028  0.00  0.00    +0.023 C 
ENDBRANCH   1   4
BRANCH   1  13
ATOM     13  O   LIG    1       22.082 -27.967 -11.223  0.00  0.00    -0.444 OA
BRANCH  13  14
ATOM     14  C   LIG    1       22.880 -28.646 -12.072  0.00  0.00    +0.313 C 
ATOM     15  O   LIG    1       23.508 -28.165 -13.006  0.00  0.00    -0.250 OA
BRANCH  14  16
ATOM     16  C   LIG    1       22.937 -30.071 -11.671  0.00  0.00    +0.111 C 
ATOM     17  C   LIG    1       23.429 -30.607 -10.337  0.00  0.00    -0.014 C 
ATOM     18  C   LIG    1       22.742 -31.850  -9.815  0.00  0.00    +0.012 C 
ATOM     19  C   LIG    1       23.852 -29.673  -9.230  0.00  0.00    +0.012 C 
ATOM     20  C   LIG    1       24.276 -30.784 -11.584  0.00  0.00    +0.032 C 
BRANCH  20  21
ATOM     21  C   LIG    1       25.521 -30.032 -11.812  0.00  0.00    -0.023 C 
ATOM     22  C   LIG    1       26.690 -30.188 -11.158  0.00  0.00    -0.079 C 
ATOM     23  C   LIG    1       27.893 -29.350 -11.498  0.00  0.00    +0.038 C 
ATOM     24  C   LIG    1       26.909 -31.180 -10.049  0.00  0.00    +0.038 C 
ENDBRANCH  20  21
ENDBRANCH  14  16
ENDBRANCH  13  14
ENDBRANCH   1  13
TORSDOF 5
ENDMDL
MODEL 6
REMARK VINA RESULT:      -6.9      1.623      2.095
REMARK  Name = 
REMARK                            x       y       z     vdW  Elec       q    Type
REMARK                         _______ _______ _______ _____ _____    ______ ____
ROOT
ATOM      1  C   LIG    1       22.921 -27.142 -10.104  0.00  0.00    +0.352 C 
ENDROOT
BRANCH   1   4
ATOM      2  O   LIG    1       25.821 -27.106 -10.185  0.00  0.00    -0.270 OA
ATOM      3  C   LIG    1       25.128 -26.300 -10.779  0.00  0.00    +0.252 C 
ATOM      4  N   LIG    1       23.773 -26.213 -10.814  0.00  0.00    -0.200 N 
ATOM      5  C   LIG    1       23.383 -25.166 -11.589  0.00  0.00    +0.252 C 
ATOM      6  O   LIG    1       22.272 -24.754 -11.869  0.00  0.00    -0.270 OA
ATOM      7  C   LIG    1       24.609 -24.537 -12.089  0.00  0.00    +0.023 C 
ATOM      8  C   LIG    1       24.661 -23.362 -12.974  0.00  0.00    +0.041 C 
ATOM      9  C   LIG    1       26.080 -22.966 -13.401  0.00  0.00    +0.005 C 
ATOM     10  C   LIG    1       27.289 -23.668 -12.752  0.00  0.00    +0.005 C 
ATOM     11  C   LIG    1       27.065 -24.917 -11.883  0.00  0.00    +0.041 C 
ATOM     12  C   LIG    1       25.649 -25.213 -11.614  0.00  0.00    +0.023 C 
ENDBRANCH   1   4
BRANCH   1  13
ATOM     13  O   LIG    1       22.125 -27.869 -11.024  0.00  0.00    -0.444 OA
BRANCH  13  14
ATOM     14  C   LIG    1       22.808 -28.556 -11.963  0.00  0.00    +0.313 C 
ATOM     15  O   LIG    1       23.365 -28.075 -12.940  0.00  0.00    -0.250 OA
BRANCH  14  16
ATOM     16  C   LIG    1       22.839 -29.993 -11.604  0.00  0.00    +0.111 C 
ATOM     17  C   LIG    1       23.363 -30.580 -10.303  0.00  0.00    -0.014 C 
ATOM     18  C   LIG    1       22.660 -31.820  -9.792  0.00  0.00    +0.012 C 
ATOM     19  C   LIG    1       23.850 -29.690  -9.187  0.00  0.00    +0.012 C 
ATOM     20  C   LIG    1       24.160 -30.744 -11.584  0.00  0.00    +0.032 C 
BRANCH  20  21
ATOM     21  C   LIG    1       25.417 -30.019 -11.835  0.00  0.00    -0.023 C 
ATOM     22  C   LIG    1       26.602 -30.219 -11.222  0.00  0.00    -0.079 C 
ATOM     23  C   LIG    1       27.814 -29.405 -11.582  0.00  0.00    +0.038 C 
ATOM     24  C   LIG    1       26.828 -31.241 -10.141  0.00  0.00    +0.038 C 
ENDBRANCH  20  21
ENDBRANCH  14  16
ENDBRANCH  13  14
ENDBRANCH   1  13
TORSDOF 5
ENDMDL
MODEL 7
REMARK VINA RESULT:      -6.7      1.468      5.509
REMARK  Name = 
REMARK                            x       y       z     vdW  Elec       q    Type
REMARK                         _______ _______ _______ _____ _____    ______ ____
ROOT
ATOM      1  C   LIG    1       22.025 -27.142 -11.758  0.00  0.00    +0.352 C 
ENDROOT
BRANCH   1   4
ATOM      2  O   LIG    1       22.882 -27.902  -9.093  0.00  0.00    -0.270 OA
ATOM      3  C   LIG    1       23.252 -28.476 -10.101  0.00  0.00    +0.252 C 
ATOM      4  N   LIG    1       22.927 -28.212 -11.393  0.00  0.00    -0.200 N 
ATOM      5  C   LIG    1       23.556 -29.079 -12.229  0.00  0.00    +0.252 C 
ATOM      6  O   LIG    1       23.531 -29.174 -13.442  0.00  0.00    -0.270 OA
ATOM      7  C   LIG    1       24.351 -29.974 -11.382  0.00  0.00    +0.023 C 
ATOM      8  C   LIG    1       25.196 -31.076 -11.870  0.00  0.00    +0.041 C 
ATOM      9  C   LIG    1       25.854 -31.896 -10.753  0.00  0.00    +0.005 C 
ATOM     10  C   LIG    1       25.745 -31.413  -9.294  0.00  0.00    +0.005 C 
ATOM     11  C   LIG    1       24.778 -30.270  -8.943  0.00  0.00    +0.041 C 
ATOM     12  C   LIG    1       24.168 -29.621 -10.115  0.00  0.00    +0.023 C 
ENDBRANCH   1   4
BRANCH   1  13
ATOM     13  O   LIG    1       22.722 -26.152 -12.495  0.00  0.00    -0.444 OA
BRANCH  13  14
ATOM     14  C   LIG    1       23.758 -25.574 -11.852  0.00  0.00    +0.313 C 
ATOM     15  O   LIG    1       23.674 -24.722 -10.978  0.00  0.00    -0.250 OA
BRANCH  14  16
ATOM     16  C   LIG    1       25.031 -26.171 -12.320  0.00  0.00    +0.111 C 
ATOM     17  C   LIG    1       26.264 -26.430 -11.470  0.00  0.00    -0.014 C 
ATOM     18  C   LIG    1       27.087 -27.648 -11.829  0.00  0.00    +0.012 C 
ATOM     19  C   LIG    1       26.262 -26.149  -9.988  0.00  0.00    +0.012 C 
ATOM     20  C   LIG    1       26.265 -25.300 -12.484  0.00  0.00    +0.032 C 
BRANCH  20  21
ATOM     21  C   LIG    1       26.216 -23.882 -12.093  0.00  0.00    -0.023 C 
ATOM     22  C   LIG    1       25.739 -22.856 -12.829  0.00  0.00    -0.079 C 
ATOM     23  C   LIG    1       25.745 -21.448 -12.301  0.00  0.00    +0.038 C 
ATOM     24  C   LIG    1       25.174 -23.006 -14.215  0.00  0.00    +0.038 C 
ENDBRANCH  20  21
ENDBRANCH  14  16
ENDBRANCH  13  14
ENDBRANCH   1  13
TORSDOF 5
ENDMDL
MODEL 8
REMARK VINA RESULT:      -6.4      1.865      3.300
REMARK  Name = 
REMARK                            x       y       z     vdW  Elec       q    Type
REMARK                         _______ _______ _______ _____ _____    ______ ____
ROOT
ATOM      1  C   LIG    1       26.675 -27.304  -9.580  0.00  0.00    +0.352 C 
ENDROOT
BRANCH   1   4
ATOM      2  O   LIG    1       28.066 -26.671 -12.046  0.00  0.00    -0.270 OA
ATOM      3  C   LIG    1       27.077 -26.071 -11.666  0.00  0.00    +0.252 C 
ATOM      4  N   LIG    1       26.348 -26.270 -10.537  0.00  0.00    -0.200 N 
ATOM      5  C   LIG    1       25.320 -25.384 -10.472  0.00  0.00    +0.252 C 
ATOM      6  O   LIG    1       24.452 -25.232  -9.632  0.00  0.00    -0.270 OA
ATOM      7  C   LIG    1       25.409 -24.550 -11.675  0.00  0.00    +0.023 C 
ATOM      8  C   LIG    1       24.489 -23.455 -12.019  0.00  0.00    +0.041 C 
ATOM      9  C   LIG    1       24.778 -22.803 -13.377  0.00  0.00    +0.005 C 
ATOM     10  C   LIG    1       26.056 -23.191 -14.147  0.00  0.00    +0.005 C 
ATOM     11  C   LIG    1       26.888 -24.395 -13.676  0.00  0.00    +0.041 C 
ATOM     12  C   LIG    1       26.451 -24.960 -12.389  0.00  0.00    +0.023 C 
ENDBRANCH   1   4
BRANCH   1  13
ATOM     13  O   LIG    1       25.567 -28.170  -9.406  0.00  0.00    -0.444 OA
BRANCH  13  14
ATOM     14  C   LIG    1       25.856 -29.488  -9.419  0.00  0.00    +0.313 C 
ATOM     15  O   LIG    1       26.977 -29.977  -9.393  0.00  0.00    -0.250 OA
BRANCH  14  16
ATOM     16  C   LIG    1       24.600 -30.274  -9.409  0.00  0.00    +0.111 C 
ATOM     17  C   LIG    1       23.990 -31.005 -10.594  0.00  0.00    -0.014 C 
ATOM     18  C   LIG    1       23.249 -32.288 -10.286  0.00  0.00    +0.012 C 
ATOM     19  C   LIG    1       24.694 -31.050 -11.927  0.00  0.00    +0.012 C 
ATOM     20  C   LIG    1       23.353 -29.725 -10.083  0.00  0.00    +0.032 C 
BRANCH  20  21
ATOM     21  C   LIG    1       23.422 -28.454 -10.823  0.00  0.00    -0.023 C 
ATOM     22  C   LIG    1       22.711 -28.117 -11.919  0.00  0.00    -0.079 C 
ATOM     23  C   LIG    1       22.877 -26.774 -12.575  0.00  0.00    +0.038 C 
ATOM     24  C   LIG    1       21.711 -29.023 -12.585  0.00  0.00    +0.038 C 
ENDBRANCH  20  21
ENDBRANCH  14  16
ENDBRANCH  13  14
ENDBRANCH   1  13
TORSDOF 5
ENDMDL
MODEL 9
REMARK VINA RESULT:      -6.4      1.665      2.861
REMARK  Name = 
REMARK                            x       y       z     vdW  Elec       q    Type
REMARK                         _______ _______ _______ _____ _____    ______ ____
ROOT
ATOM      1  C   LIG    1       23.300 -27.167  -9.530  0.00  0.00    +0.352 C 
ENDROOT
BRANCH   1   4
ATOM      2  O   LIG    1       22.277 -25.326 -11.525  0.00  0.00    -0.270 OA
ATOM      3  C   LIG    1       23.461 -25.429 -11.258  0.00  0.00    +0.252 C 
ATOM      4  N   LIG    1       24.056 -26.250 -10.355  0.00  0.00    -0.200 N 
ATOM      5  C   LIG    1       25.403 -26.068 -10.361  0.00  0.00    +0.252 C 
ATOM      6  O   LIG    1       26.281 -26.604  -9.710  0.00  0.00    -0.270 OA
ATOM      7  C   LIG    1       25.680 -25.032 -11.361  0.00  0.00    +0.023 C 
ATOM      8  C   LIG    1       27.016 -24.514 -11.699  0.00  0.00    +0.041 C 
ATOM      9  C   LIG    1       27.000 -23.378 -12.730  0.00  0.00    +0.005 C 
ATOM     10  C   LIG    1       25.679 -23.017 -13.438  0.00  0.00    +0.005 C 
ATOM     11  C   LIG    1       24.358 -23.616 -12.931  0.00  0.00    +0.041 C 
ATOM     12  C   LIG    1       24.526 -24.646 -11.893  0.00  0.00    +0.023 C 
ENDBRANCH   1   4
BRANCH   1  13
ATOM     13  O   LIG    1       23.812 -28.481  -9.673  0.00  0.00    -0.444 OA
BRANCH  13  14
ATOM     14  C   LIG    1       23.090 -29.301 -10.465  0.00  0.00    +0.313 C 
ATOM     15  O   LIG    1       22.023 -29.027 -10.998  0.00  0.00    -0.250 OA
BRANCH  14  16
ATOM     16  C   LIG    1       23.814 -30.580 -10.651  0.00  0.00    +0.111 C 
ATOM     17  C   LIG    1       25.142 -30.958 -10.016  0.00  0.00    -0.014 C 
ATOM     18  C   LIG    1       25.332 -32.419  -9.670  0.00  0.00    +0.012 C 
ATOM     19  C   LIG    1       25.827 -30.038  -9.036  0.00  0.00    +0.012 C 
ATOM     20  C   LIG    1       25.077 -30.624 -11.495  0.00  0.00    +0.032 C 
BRANCH  20  21
ATOM     21  C   LIG    1       25.627 -29.377 -12.053  0.00  0.00    -0.023 C 
ATOM     22  C   LIG    1       25.093 -28.629 -13.039  0.00  0.00    -0.079 C 
ATOM     23  C   LIG    1       25.762 -27.367 -13.511  0.00  0.00    +0.038 C 
ATOM     24  C   LIG    1       23.814 -28.968 -13.755  0.00  0.00    +0.038 C 
ENDBRANCH  20  21
ENDBRANCH  14  16
ENDBRANCH  13  14
ENDBRANCH   1  13
TORSDOF 5
ENDMDL
