MODEL 1
REMARK VINA RESULT:      -8.0      0.000      0.000
REMARK  Name = 
REMARK                            x       y       z     vdW  Elec       q    Type
REMARK                         _______ _______ _______ _____ _____    ______ ____
ROOT
ATOM      1  C   LIG    1       19.689  47.451  16.064  0.00  0.00    +0.352 C 
ENDROOT
BRANCH   1   4
ATOM      2  O   LIG    1       21.469  46.619  13.930  0.00  0.00    -0.270 OA
ATOM      3  C   LIG    1       21.222  47.786  14.174  0.00  0.00    +0.252 C 
ATOM      4  N   LIG    1       20.415  48.295  15.140  0.00  0.00    -0.200 N 
ATOM      5  C   LIG    1       20.409  49.653  15.089  0.00  0.00    +0.252 C 
ATOM      6  O   LIG    1       19.825  50.473  15.773  0.00  0.00    -0.270 OA
ATOM      7  C   LIG    1       21.294  50.033  13.983  0.00  0.00    +0.023 C 
ATOM      8  C   LIG    1       21.583  51.414  13.562  0.00  0.00    +0.041 C 
ATOM      9  C   LIG    1       22.486  51.512  12.326  0.00  0.00    +0.005 C 
ATOM     10  C   LIG    1       23.144  50.235  11.766  0.00  0.00    +0.005 C 
ATOM     11  C   LIG    1       22.696  48.860  12.287  0.00  0.00    +0.041 C 
ATOM     12  C   LIG    1       21.775  48.924  13.434  0.00  0.00    +0.023 C 
ENDBRANCH   1   4
BRANCH   1  13
ATOM     13  O   LIG    1       19.990  47.821  17.398  0.00  0.00    -0.444 OA
BRANCH  13  14
ATOM     14  C   LIG    1       18.959  47.753  18.265  0.00  0.00    +0.313 C 
ATOM     15  O   LIG    1       18.757  46.854  19.070  0.00  0.00    -0.250 OA
BRANCH  14  16
ATOM     16  C   LIG    1       18.124  48.971  18.144  0.00  0.00    +0.111 C 
ATOM     17  C   LIG    1       16.775  49.202  18.805  0.00  0.00    -0.014 C 
ATOM     18  C   LIG    1       16.462  50.623  19.221  0.00  0.00    +0.012 C 
ATOM     19  C   LIG    1       16.184  48.181  19.746  0.00  0.00    +0.012 C 
ATOM     20  C   LIG    1       16.853  48.943  17.312  0.00  0.00    +0.032 C 
BRANCH  20  21
ATOM     21  C   LIG    1       16.407  47.680  16.700  0.00  0.00    -0.023 C 
ATOM     22  C   LIG    1       16.308  47.411  15.382  0.00  0.00    -0.079 C 
ATOM     23  C   LIG    1       15.841  46.069  14.892  0.00  0.00    +0.038 C 
ATOM     24  C   LIG    1       16.639  48.397  14.294  0.00  0.00    +0.038 C 
ENDBRANCH  20  21
ENDBRANCH  14  16
ENDBRANCH  13  14
ENDBRANCH   1  13
TORSDOF 5
ENDMDL
MODEL 2
REMARK VINA RESULT:      -7.7      1.576      2.877
REMARK  Name = 
REMARK                            x       y       z     vdW  Elec       q    Type
REMARK                         _______ _______ _______ _____ _____    ______ ____
ROOT
ATOM      1  C   LIG    1       19.253  47.000  14.677  0.00  0.00    +0.352 C 
ENDROOT
BRANCH   1   4
ATOM      2  O   LIG    1       21.696  46.676  13.147  0.00  0.00    -0.270 OA
ATOM      3  C   LIG    1       21.255  47.763  13.475  0.00  0.00    +0.252 C 
ATOM      4  N   LIG    1       20.134  48.040  14.189  0.00  0.00    -0.200 N 
ATOM      5  C   LIG    1       19.991  49.381  14.352  0.00  0.00    +0.252 C 
ATOM      6  O   LIG    1       19.133  50.027  14.925  0.00  0.00    -0.270 OA
ATOM      7  C   LIG    1       21.130  50.007  13.674  0.00  0.00    +0.023 C 
ATOM      8  C   LIG    1       21.380  51.456  13.594  0.00  0.00    +0.041 C 
ATOM      9  C   LIG    1       22.609  51.830  12.755  0.00  0.00    +0.005 C 
ATOM     10  C   LIG    1       23.548  50.718  12.251  0.00  0.00    +0.005 C 
ATOM     11  C   LIG    1       23.117  49.247  12.372  0.00  0.00    +0.041 C 
ATOM     12  C   LIG    1       21.881  49.047  13.147  0.00  0.00    +0.023 C 
ENDBRANCH   1   4
BRANCH   1  13
ATOM     13  O   LIG    1       17.906  47.433  14.604  0.00  0.00    -0.444 OA
BRANCH  13  14
ATOM     14  C   LIG    1       17.166  47.214  15.711  0.00  0.00    +0.313 C 
ATOM     15  O   LIG    1       15.945  47.149  15.757  0.00  0.00    -0.250 OA
BRANCH  14  16
ATOM     16  C   LIG    1       18.060  46.999  16.873  0.00  0.00    +0.111 C 
ATOM     17  C   LIG    1       17.624  46.837  18.320  0.00  0.00    -0.014 C 
ATOM     18  C   LIG    1       18.461  45.912  19.177  0.00  0.00    +0.012 C 
ATOM     19  C   LIG    1       16.164  46.809  18.696  0.00  0.00    +0.012 C 
ATOM     20  C   LIG    1       18.297  48.121  17.870  0.00  0.00    +0.032 C 
BRANCH  20  21
ATOM     21  C   LIG    1       17.566  49.392  17.727  0.00  0.00    -0.023 C 
ATOM     22  C   LIG    1       17.156  50.205  18.722  0.00  0.00    -0.079 C 
ATOM     23  C   LIG    1       16.419  51.484  18.432  0.00  0.00    +0.038 C 
ATOM     24  C   LIG    1       17.379  49.925  20.183  0.00  0.00    +0.038 C 
ENDBRANCH  20  21
ENDBRANCH  14  16
ENDBRANCH  13  14
ENDBRANCH   1  13
TORSDOF 5
ENDMDL
MODEL 3
REMARK VINA RESULT:      -7.6      1.556      3.884
REMARK  Name = 
REMARK                            x       y       z     vdW  Elec       q    Type
REMARK                         _______ _______ _______ _____ _____    ______ ____
ROOT
ATOM      1  C   LIG    1       19.237  47.622  15.662  0.00  0.00    +0.352 C 
ENDROOT
BRANCH   1   4
ATOM      2  O   LIG    1       19.547  50.501  15.495  0.00  0.00    -0.270 OA
ATOM      3  C   LIG    1       20.203  49.721  14.830  0.00  0.00    +0.252 C 
ATOM      4  N   LIG    1       20.146  48.364  14.816  0.00  0.00    -0.200 N 
ATOM      5  C   LIG    1       21.040  47.858  13.927  0.00  0.00    +0.252 C 
ATOM      6  O   LIG    1       21.294  46.708  13.620  0.00  0.00    -0.270 OA
ATOM      7  C   LIG    1       21.726  49.007  13.325  0.00  0.00    +0.023 C 
ATOM      8  C   LIG    1       22.783  48.925  12.304  0.00  0.00    +0.041 C 
ATOM      9  C   LIG    1       23.374  50.284  11.911  0.00  0.00    +0.005 C 
ATOM     10  C   LIG    1       22.721  51.576  12.440  0.00  0.00    +0.005 C 
ATOM     11  C   LIG    1       21.655  51.489  13.544  0.00  0.00    +0.041 C 
ATOM     12  C   LIG    1       21.233  50.116  13.864  0.00  0.00    +0.023 C 
ENDBRANCH   1   4
BRANCH   1  13
ATOM     13  O   LIG    1       17.979  48.274  15.710  0.00  0.00    -0.444 OA
BRANCH  13  14
ATOM     14  C   LIG    1       17.142  47.992  14.691  0.00  0.00    +0.313 C 
ATOM     15  O   LIG    1       16.677  48.801  13.899  0.00  0.00    -0.250 OA
BRANCH  14  16
ATOM     16  C   LIG    1       16.908  46.530  14.628  0.00  0.00    +0.111 C 
ATOM     17  C   LIG    1       15.568  45.846  14.410  0.00  0.00    -0.014 C 
ATOM     18  C   LIG    1       15.593  44.547  13.634  0.00  0.00    +0.012 C 
ATOM     19  C   LIG    1       14.316  46.647  14.155  0.00  0.00    +0.012 C 
ATOM     20  C   LIG    1       16.220  45.819  15.780  0.00  0.00    +0.032 C 
BRANCH  20  21
ATOM     21  C   LIG    1       15.707  46.599  16.919  0.00  0.00    -0.023 C 
ATOM     22  C   LIG    1       16.321  46.800  18.103  0.00  0.00    -0.079 C 
ATOM     23  C   LIG    1       15.681  47.627  19.184  0.00  0.00    +0.038 C 
ATOM     24  C   LIG    1       17.666  46.230  18.461  0.00  0.00    +0.038 C 
ENDBRANCH  20  21
ENDBRANCH  14  16
ENDBRANCH  13  14
ENDBRANCH   1  13
TORSDOF 5
ENDMDL
MODEL 4
REMARK VINA RESULT:      -7.2      1.629      2.859
REMARK  Name = 
REMARK                            x       y       z     vdW  Elec       q    Type
REMARK                         _______ _______ _______ _____ _____    ______ ____
ROOT
ATOM      1  C   LIG    1       18.530  46.769  14.898  0.00  0.00    +0.352 C 
ENDROOT
BRANCH   1   4
ATOM      2  O   LIG    1       21.038  46.211  13.550  0.00  0.00    -0.270 OA
ATOM      3  C   LIG    1       20.633  47.339  13.763  0.00  0.00    +0.252 C 
ATOM      4  N   LIG    1       19.487  47.724  14.383  0.00  0.00    -0.200 N 
ATOM      5  C   LIG    1       19.402  49.080  14.429  0.00  0.00    +0.252 C 
ATOM      6  O   LIG    1       18.546  49.808  14.895  0.00  0.00    -0.270 OA
ATOM      7  C   LIG    1       20.608  49.596  13.774  0.00  0.00    +0.023 C 
ATOM      8  C   LIG    1       20.933  51.020  13.594  0.00  0.00    +0.041 C 
ATOM      9  C   LIG    1       22.225  51.269  12.805  0.00  0.00    +0.005 C 
ATOM     10  C   LIG    1       23.136  50.078  12.449  0.00  0.00    +0.005 C 
ATOM     11  C   LIG    1       22.626  48.643  12.661  0.00  0.00    +0.041 C 
ATOM     12  C   LIG    1       21.339  48.563  13.372  0.00  0.00    +0.023 C 
ENDBRANCH   1   4
BRANCH   1  13
ATOM     13  O   LIG    1       18.486  46.843  16.312  0.00  0.00    -0.444 OA
BRANCH  13  14
ATOM     14  C   LIG    1       17.304  47.231  16.835  0.00  0.00    +0.313 C 
ATOM     15  O   LIG    1       16.216  47.160  16.280  0.00  0.00    -0.250 OA
BRANCH  14  16
ATOM     16  C   LIG    1       17.505  47.707  18.224  0.00  0.00    +0.111 C 
ATOM     17  C   LIG    1       17.762  49.143  18.650  0.00  0.00    -0.014 C 
ATOM     18  C   LIG    1       17.191  49.561  19.988  0.00  0.00    +0.012 C 
ATOM     19  C   LIG    1       17.759  50.267  17.644  0.00  0.00    +0.012 C 
ATOM     20  C   LIG    1       18.888  48.127  18.692  0.00  0.00    +0.032 C 
BRANCH  20  21
ATOM     21  C   LIG    1       20.009  48.144  17.737  0.00  0.00    -0.023 C 
ATOM     22  C   LIG    1       20.987  49.069  17.655  0.00  0.00    -0.079 C 
ATOM     23  C   LIG    1       22.081  48.961  16.629  0.00  0.00    +0.038 C 
ATOM     24  C   LIG    1       21.082  50.275  18.550  0.00  0.00    +0.038 C 
ENDBRANCH  20  21
ENDBRANCH  14  16
ENDBRANCH  13  14
ENDBRANCH   1  13
TORSDOF 5
ENDMDL
MODEL 5
REMARK VINA RESULT:      -7.1      1.601      6.397
REMARK  Name = 
REMARK                            x       y       z     vdW  Elec       q    Type
REMARK                         _______ _______ _______ _____ _____    ______ ____
ROOT
ATOM      1  C   LIG    1       20.686  48.017  17.862  0.00  0.00    +0.352 C 
ENDROOT
BRANCH   1   4
ATOM      2  O   LIG    1       19.460  50.635  18.102  0.00  0.00    -0.270 OA
ATOM      3  C   LIG    1       18.881  49.600  18.380  0.00  0.00    +0.252 C 
ATOM      4  N   LIG    1       19.347  48.326  18.314  0.00  0.00    -0.200 N 
ATOM      5  C   LIG    1       18.392  47.448  18.718  0.00  0.00    +0.252 C 
ATOM      6  O   LIG    1       18.413  46.234  18.807  0.00  0.00    -0.270 OA
ATOM      7  C   LIG    1       17.213  48.246  19.069  0.00  0.00    +0.023 C 
ATOM      8  C   LIG    1       15.935  47.703  19.558  0.00  0.00    +0.041 C 
ATOM      9  C   LIG    1       14.850  48.765  19.774  0.00  0.00    +0.005 C 
ATOM     10  C   LIG    1       15.217  50.258  19.658  0.00  0.00    +0.005 C 
ATOM     11  C   LIG    1       16.586  50.659  19.085  0.00  0.00    +0.041 C 
ATOM     12  C   LIG    1       17.500  49.526  18.864  0.00  0.00    +0.023 C 
ENDBRANCH   1   4
BRANCH   1  13
ATOM     13  O   LIG    1       20.737  48.041  16.446  0.00  0.00    -0.444 OA
BRANCH  13  14
ATOM     14  C   LIG    1       21.731  48.783  15.916  0.00  0.00    +0.313 C 
ATOM     15  O   LIG    1       22.532  49.463  16.543  0.00  0.00    -0.250 OA
BRANCH  14  16
ATOM     16  C   LIG    1       21.754  48.607  14.445  0.00  0.00    +0.111 C 
ATOM     17  C   LIG    1       21.588  49.707  13.408  0.00  0.00    -0.014 C 
ATOM     18  C   LIG    1       22.365  49.542  12.120  0.00  0.00    +0.012 C 
ATOM     19  C   LIG    1       21.451  51.151  13.820  0.00  0.00    +0.012 C 
ATOM     20  C   LIG    1       20.467  48.711  13.645  0.00  0.00    +0.032 C 
BRANCH  20  21
ATOM     21  C   LIG    1       19.212  49.076  14.324  0.00  0.00    -0.023 C 
ATOM     22  C   LIG    1       18.261  48.231  14.772  0.00  0.00    -0.079 C 
ATOM     23  C   LIG    1       17.023  48.741  15.457  0.00  0.00    +0.038 C 
ATOM     24  C   LIG    1       18.330  46.734  14.633  0.00  0.00    +0.038 C 
ENDBRANCH  20  21
ENDBRANCH  14  16
ENDBRANCH  13  14
ENDBRANCH   1  13
TORSDOF 5
ENDMDL
MODEL 6
REMARK VINA RESULT:      -6.7      1.724      6.453
REMARK  Name = 
REMARK                            x       y       z     vdW  Elec       q    Type
REMARK                         _______ _______ _______ _____ _____    ______ ____
ROOT
ATOM      1  C   LIG    1       20.313  47.857  18.053  0.00  0.00    +0.352 C 
ENDROOT
BRANCH   1   4
ATOM      2  O   LIG    1       18.036  46.165  18.660  0.00  0.00    -0.270 OA
ATOM      3  C   LIG    1       18.001  47.380  18.732  0.00  0.00    +0.252 C 
ATOM      4  N   LIG    1       18.992  48.272  18.471  0.00  0.00    -0.200 N 
ATOM      5  C   LIG    1       18.551  49.543  18.664  0.00  0.00    +0.252 C 
ATOM      6  O   LIG    1       19.122  50.610  18.537  0.00  0.00    -0.270 OA
ATOM      7  C   LIG    1       17.151  49.440  19.088  0.00  0.00    +0.023 C 
ATOM      8  C   LIG    1       16.276  50.578  19.411  0.00  0.00    +0.041 C 
ATOM      9  C   LIG    1       14.880  50.171  19.900  0.00  0.00    +0.005 C 
ATOM     10  C   LIG    1       14.457  48.690  19.834  0.00  0.00    +0.005 C 
ATOM     11  C   LIG    1       15.510  47.614  19.523  0.00  0.00    +0.041 C 
ATOM     12  C   LIG    1       16.823  48.154  19.134  0.00  0.00    +0.023 C 
ENDBRANCH   1   4
BRANCH   1  13
ATOM     13  O   LIG    1       21.044  48.975  17.581  0.00  0.00    -0.444 OA
BRANCH  13  14
ATOM     14  C   LIG    1       21.285  48.991  16.253  0.00  0.00    +0.313 C 
ATOM     15  O   LIG    1       22.336  48.680  15.711  0.00  0.00    -0.250 OA
BRANCH  14  16
ATOM     16  C   LIG    1       20.055  49.386  15.529  0.00  0.00    +0.111 C 
ATOM     17  C   LIG    1       19.158  48.465  14.716  0.00  0.00    -0.014 C 
ATOM     18  C   LIG    1       17.679  48.786  14.722  0.00  0.00    +0.012 C 
ATOM     19  C   LIG    1       19.428  46.983  14.641  0.00  0.00    +0.012 C 
ATOM     20  C   LIG    1       20.057  49.465  14.011  0.00  0.00    +0.032 C 
BRANCH  20  21
ATOM     21  C   LIG    1       21.258  49.063  13.260  0.00  0.00    -0.023 C 
ATOM     22  C   LIG    1       22.226  49.874  12.789  0.00  0.00    -0.079 C 
ATOM     23  C   LIG    1       23.408  49.325  12.038  0.00  0.00    +0.038 C 
ATOM     24  C   LIG    1       22.225  51.370  12.953  0.00  0.00    +0.038 C 
ENDBRANCH  20  21
ENDBRANCH  14  16
ENDBRANCH  13  14
ENDBRANCH   1  13
TORSDOF 5
ENDMDL
MODEL 7
REMARK VINA RESULT:      -6.5      1.059      3.402
REMARK  Name = 
REMARK                            x       y       z     vdW  Elec       q    Type
REMARK                         _______ _______ _______ _____ _____    ______ ____
ROOT
ATOM      1  C   LIG    1       19.343  47.123  14.520  0.00  0.00    +0.352 C 
ENDROOT
BRANCH   1   4
ATOM      2  O   LIG    1       19.115  50.005  14.765  0.00  0.00    -0.270 OA
ATOM      3  C   LIG    1       20.047  49.455  14.206  0.00  0.00    +0.252 C 
ATOM      4  N   LIG    1       20.261  48.127  14.025  0.00  0.00    -0.200 N 
ATOM      5  C   LIG    1       21.418  47.918  13.344  0.00  0.00    +0.252 C 
ATOM      6  O   LIG    1       21.956  46.887  12.985  0.00  0.00    -0.270 OA
ATOM      7  C   LIG    1       21.987  49.242  13.072  0.00  0.00    +0.023 C 
ATOM      8  C   LIG    1       23.247  49.494  12.354  0.00  0.00    +0.041 C 
ATOM      9  C   LIG    1       23.636  50.975  12.282  0.00  0.00    +0.005 C 
ATOM     10  C   LIG    1       22.639  52.045  12.767  0.00  0.00    +0.005 C 
ATOM     11  C   LIG    1       21.383  51.615  13.544  0.00  0.00    +0.041 C 
ATOM     12  C   LIG    1       21.176  50.158  13.588  0.00  0.00    +0.023 C 
ENDBRANCH   1   4
BRANCH   1  13
ATOM     13  O   LIG    1       19.738  46.703  15.815  0.00  0.00    -0.444 OA
BRANCH  13  14
ATOM     14  C   LIG    1       19.038  47.241  16.836  0.00  0.00    +0.313 C 
ATOM     15  O   LIG    1       19.377  48.205  17.508  0.00  0.00    -0.250 OA
BRANCH  14  16
ATOM     16  C   LIG    1       17.751  46.525  16.990  0.00  0.00    +0.111 C 
ATOM     17  C   LIG    1       16.459  46.836  16.252  0.00  0.00    -0.014 C 
ATOM     18  C   LIG    1       15.567  45.656  15.926  0.00  0.00    +0.012 C 
ATOM     19  C   LIG    1       16.404  47.910  15.194  0.00  0.00    +0.012 C 
ATOM     20  C   LIG    1       16.595  47.185  17.723  0.00  0.00    +0.032 C 
BRANCH  20  21
ATOM     21  C   LIG    1       16.729  48.571  18.200  0.00  0.00    -0.023 C 
ATOM     22  C   LIG    1       16.076  49.136  19.237  0.00  0.00    -0.079 C 
ATOM     23  C   LIG    1       16.314  50.570  19.622  0.00  0.00    +0.038 C 
ATOM     24  C   LIG    1       15.067  48.415  20.089  0.00  0.00    +0.038 C 
ENDBRANCH  20  21
ENDBRANCH  14  16
ENDBRANCH  13  14
ENDBRANCH   1  13
TORSDOF 5
ENDMDL
MODEL 8
REMARK VINA RESULT:      -6.5      1.080      2.878
REMARK  Name = 
REMARK                            x       y       z     vdW  Elec       q    Type
REMARK                         _______ _______ _______ _____ _____    ______ ____
ROOT
ATOM      1  C   LIG    1       19.369  47.061  14.480  0.00  0.00    +0.352 C 
ENDROOT
BRANCH   1   4
ATOM      2  O   LIG    1       21.865  46.864  13.014  0.00  0.00    -0.270 OA
ATOM      3  C   LIG    1       21.372  47.925  13.351  0.00  0.00    +0.252 C 
ATOM      4  N   LIG    1       20.221  48.144  14.038  0.00  0.00    -0.200 N 
ATOM      5  C   LIG    1       20.022  49.476  14.223  0.00  0.00    +0.252 C 
ATOM      6  O   LIG    1       19.123  50.075  14.784  0.00  0.00    -0.270 OA
ATOM      7  C   LIG    1       21.154  50.159  13.590  0.00  0.00    +0.023 C 
ATOM      8  C   LIG    1       21.349  51.617  13.546  0.00  0.00    +0.041 C 
ATOM      9  C   LIG    1       22.585  52.056  12.751  0.00  0.00    +0.005 C 
ATOM     10  C   LIG    1       23.581  50.991  12.251  0.00  0.00    +0.005 C 
ATOM     11  C   LIG    1       23.205  49.503  12.332  0.00  0.00    +0.041 C 
ATOM     12  C   LIG    1       21.957  49.239  13.066  0.00  0.00    +0.023 C 
ENDBRANCH   1   4
BRANCH   1  13
ATOM     13  O   LIG    1       19.781  46.613  15.760  0.00  0.00    -0.444 OA
BRANCH  13  14
ATOM     14  C   LIG    1       19.139  47.175  16.804  0.00  0.00    +0.313 C 
ATOM     15  O   LIG    1       19.523  48.145  17.445  0.00  0.00    -0.250 OA
BRANCH  14  16
ATOM     16  C   LIG    1       17.851  46.479  17.032  0.00  0.00    +0.111 C 
ATOM     17  C   LIG    1       16.515  46.838  16.403  0.00  0.00    -0.014 C 
ATOM     18  C   LIG    1       15.577  45.688  16.108  0.00  0.00    +0.012 C 
ATOM     19  C   LIG    1       16.405  47.948  15.387  0.00  0.00    +0.012 C 
ATOM     20  C   LIG    1       16.767  47.136  17.870  0.00  0.00    +0.032 C 
BRANCH  20  21
ATOM     21  C   LIG    1       16.966  48.503  18.379  0.00  0.00    -0.023 C 
ATOM     22  C   LIG    1       16.182  49.160  19.259  0.00  0.00    -0.079 C 
ATOM     23  C   LIG    1       16.507  50.560  19.701  0.00  0.00    +0.038 C 
ATOM     24  C   LIG    1       14.933  48.582  19.868  0.00  0.00    +0.038 C 
ENDBRANCH  20  21
ENDBRANCH  14  16
ENDBRANCH  13  14
ENDBRANCH   1  13
TORSDOF 5
ENDMDL
MODEL 9
REMARK VINA RESULT:      -6.4      1.743      6.123
REMARK  Name = 
REMARK                            x       y       z     vdW  Elec       q    Type
REMARK                         _______ _______ _______ _____ _____    ______ ____
ROOT
ATOM      1  C   LIG    1       17.598  46.279  15.582  0.00  0.00    +0.352 C 
ENDROOT
BRANCH   1   4
ATOM      2  O   LIG    1       17.917  46.107  18.460  0.00  0.00    -0.270 OA
ATOM      3  C   LIG    1       17.628  47.139  17.883  0.00  0.00    +0.252 C 
ATOM      4  N   LIG    1       17.448  47.343  16.552  0.00  0.00    -0.200 N 
ATOM      5  C   LIG    1       17.125  48.640  16.307  0.00  0.00    +0.252 C 
ATOM      6  O   LIG    1       16.885  49.217  15.263  0.00  0.00    -0.270 OA
ATOM      7  C   LIG    1       17.103  49.317  17.608  0.00  0.00    +0.023 C 
ATOM      8  C   LIG    1       16.800  50.742  17.818  0.00  0.00    +0.041 C 
ATOM      9  C   LIG    1       16.923  51.195  19.278  0.00  0.00    +0.005 C 
ATOM     10  C   LIG    1       17.152  50.143  20.381  0.00  0.00    +0.005 C 
ATOM     11  C   LIG    1       17.502  48.698  19.990  0.00  0.00    +0.041 C 
ATOM     12  C   LIG    1       17.406  48.428  18.546  0.00  0.00    +0.023 C 
ENDBRANCH   1   4
BRANCH   1  13
ATOM     13  O   LIG    1       18.965  46.124  15.243  0.00  0.00    -0.444 OA
BRANCH  13  14
ATOM     14  C   LIG    1       19.546  47.200  14.672  0.00  0.00    +0.313 C 
ATOM     15  O   LIG    1       19.185  47.746  13.638  0.00  0.00    -0.250 OA
BRANCH  14  16
ATOM     16  C   LIG    1       20.664  47.672  15.522  0.00  0.00    +0.111 C 
ATOM     17  C   LIG    1       20.917  49.107  15.953  0.00  0.00    -0.014 C 
ATOM     18  C   LIG    1       21.531  49.302  17.323  0.00  0.00    +0.012 C 
ATOM     19  C   LIG    1       19.957  50.212  15.588  0.00  0.00    +0.012 C 
ATOM     20  C   LIG    1       21.807  48.461  14.907  0.00  0.00    +0.032 C 
BRANCH  20  21
ATOM     21  C   LIG    1       21.757  48.831  13.483  0.00  0.00    -0.023 C 
ATOM     22  C   LIG    1       22.499  49.774  12.866  0.00  0.00    -0.079 C 
ATOM     23  C   LIG    1       22.348  50.047  11.395  0.00  0.00    +0.038 C 
ATOM     24  C   LIG    1       23.519  50.631  13.563  0.00  0.00    +0.038 C 
ENDBRANCH  20  21
ENDBRANCH  14  16
ENDBRANCH  13  14
ENDBRANCH   1  13
TORSDOF 5
ENDMDL
