REMARK  Name = 
REMARK                            x       y       z     vdW  Elec       q    Type
REMARK                         _______ _______ _______ _____ _____    ______ ____
ROOT
ATOM      1  C   LIG    1        2.641   2.596   0.028  0.00  0.00    +0.352 C 
ENDROOT
BRANCH   1   4
ATOM      2  O   LIG    1        0.981   0.217   0.018  0.00  0.00    -0.270 OA
ATOM      3  C   LIG    1        2.198   0.180   0.028  0.00  0.00    +0.252 C 
ATOM      4  N   LIG    1        3.076   1.216   0.038  0.00  0.00    -0.200 N 
ATOM      5  C   LIG    1        4.355   0.757   0.055  0.00  0.00    +0.252 C 
ATOM      6  O   LIG    1        5.415   1.355   0.070  0.00  0.00    -0.270 OA
ATOM      7  C   LIG    1        4.273  -0.707   0.053  0.00  0.00    +0.023 C 
ATOM      8  C   LIG    1        5.426  -1.622   0.065  0.00  0.00    +0.041 C 
ATOM      9  C   LIG    1        5.044  -3.105  -0.017  0.00  0.00    +0.005 C 
ATOM     10  C   LIG    1        3.561  -3.512   0.085  0.00  0.00    +0.005 C 
ATOM     11  C   LIG    1        2.471  -2.430   0.014  0.00  0.00    +0.041 C 
ATOM     12  C   LIG    1        2.991  -1.053   0.032  0.00  0.00    +0.023 C 
ENDBRANCH   1   4
BRANCH   1  13
ATOM     13  O   LIG    1        3.766   3.458   0.042  0.00  0.00    -0.444 OA
BRANCH  13  14
ATOM     14  C   LIG    1        3.484   4.777   0.075  0.00  0.00    +0.313 C 
ATOM     15  O   LIG    1        2.366   5.270   0.138  0.00  0.00    -0.250 OA
BRANCH  14  16
ATOM     16  C   LIG    1        4.744   5.556   0.086  0.00  0.00    +0.111 C 
ATOM     17  C   LIG    1        4.909   6.999  -0.363  0.00  0.00    -0.014 C 
ATOM     18  C   LIG    1        5.933   7.825   0.385  0.00  0.00    +0.012 C 
ATOM     19  C   LIG    1        3.723   7.816  -0.811  0.00  0.00    +0.012 C 
ATOM     20  C   LIG    1        5.456   5.871  -1.219  0.00  0.00    +0.032 C 
BRANCH  20  21
ATOM     21  C   LIG    1        4.844   5.477  -2.499  0.00  0.00    -0.023 C 
ATOM     22  C   LIG    1        5.111   4.365  -3.214  0.00  0.00    -0.079 C 
ATOM     23  C   LIG    1        4.404   4.082  -4.511  0.00  0.00    +0.038 C 
ATOM     24  C   LIG    1        6.118   3.324  -2.807  0.00  0.00    +0.038 C 
ENDBRANCH  20  21
ENDBRANCH  14  16
ENDBRANCH  13  14
ENDBRANCH   1  13
TORSDOF 5
