MODEL 1
REMARK VINA RESULT:      -8.3      0.000      0.000
REMARK  Name = 
REMARK                            x       y       z     vdW  Elec       q    Type
REMARK                         _______ _______ _______ _____ _____    ______ ____
ROOT
ATOM      1  C   LIG    1       -7.146  -4.975  12.627  0.00  0.00    +0.015 C 
ATOM      2  C   LIG    1       -6.228  -5.061  11.375  0.00  0.00    +0.021 C 
ATOM      3  C   LIG    1       -7.972  -6.291  12.590  0.00  0.00    +0.021 C 
ENDROOT
BRANCH   1   7
ATOM      4  C   LIG    1      -10.000  -1.673  12.659  0.00  0.00    +0.117 A 
ATOM      5  C   LIG    1       -8.666  -1.412  12.386  0.00  0.00    +0.046 A 
ATOM      6  C   LIG    1       -7.740  -2.461  12.351  0.00  0.00    +0.008 A 
ATOM      7  C   LIG    1       -8.139  -3.786  12.592  0.00  0.00    -0.037 A 
ATOM      8  C   LIG    1       -9.506  -4.015  12.857  0.00  0.00    +0.008 A 
ATOM      9  C   LIG    1      -10.434  -2.971  12.891  0.00  0.00    +0.046 A 
BRANCH   4  10
ATOM     10  O   LIG    1      -10.863  -0.619  12.703  0.00  0.00    -0.507 OA
ATOM     11  H   LIG    1      -10.410   0.162  12.347  0.00  0.00    +0.292 HD
ENDBRANCH   4  10
ENDBRANCH   1   7
BRANCH   1  12
ATOM     12  C   LIG    1       -6.253  -4.843  13.888  0.00  0.00    -0.037 A 
ATOM     13  C   LIG    1       -4.847  -4.862  13.760  0.00  0.00    +0.008 A 
ATOM     14  C   LIG    1       -4.013  -4.665  14.863  0.00  0.00    +0.046 A 
ATOM     15  C   LIG    1       -4.568  -4.422  16.108  0.00  0.00    +0.117 A 
ATOM     16  C   LIG    1       -5.946  -4.394  16.273  0.00  0.00    +0.046 A 
ATOM     17  C   LIG    1       -6.781  -4.608  15.172  0.00  0.00    +0.008 A 
BRANCH  15  18
ATOM     18  O   LIG    1       -3.720  -4.196  17.151  0.00  0.00    -0.507 OA
ATOM     19  H   LIG    1       -2.811  -4.188  16.812  0.00  0.00    +0.292 HD
ENDBRANCH  15  18
ENDBRANCH   1  12
TORSDOF 4
ENDMDL
MODEL 2
REMARK VINA RESULT:      -8.3      0.068      5.540
REMARK  Name = 
REMARK                            x       y       z     vdW  Elec       q    Type
REMARK                         _______ _______ _______ _____ _____    ______ ____
ROOT
ATOM      1  C   LIG    1       -7.143  -4.992  12.599  0.00  0.00    +0.015 C 
ATOM      2  C   LIG    1       -7.930  -6.333  12.577  0.00  0.00    +0.021 C 
ATOM      3  C   LIG    1       -6.226  -5.063  11.347  0.00  0.00    +0.021 C 
ENDROOT
BRANCH   1   7
ATOM      4  C   LIG    1       -4.513  -4.407  16.033  0.00  0.00    +0.117 A 
ATOM      5  C   LIG    1       -5.886  -4.394  16.222  0.00  0.00    +0.046 A 
ATOM      6  C   LIG    1       -6.745  -4.600  15.137  0.00  0.00    +0.008 A 
ATOM      7  C   LIG    1       -6.238  -4.821  13.845  0.00  0.00    -0.037 A 
ATOM      8  C   LIG    1       -4.835  -4.837  13.692  0.00  0.00    +0.008 A 
ATOM      9  C   LIG    1       -3.975  -4.633  14.774  0.00  0.00    +0.046 A 
BRANCH   4  10
ATOM     10  O   LIG    1       -3.715  -4.182  17.115  0.00  0.00    -0.507 OA
ATOM     11  H   LIG    1       -3.126  -4.946  17.225  0.00  0.00    +0.292 HD
ENDBRANCH   4  10
ENDBRANCH   1   7
BRANCH   1  12
ATOM     12  C   LIG    1       -8.158  -3.821  12.554  0.00  0.00    -0.037 A 
ATOM     13  C   LIG    1       -9.519  -4.058  12.843  0.00  0.00    +0.008 A 
ATOM     14  C   LIG    1      -10.446  -3.014  12.891  0.00  0.00    +0.046 A 
ATOM     15  C   LIG    1      -10.025  -1.712  12.675  0.00  0.00    +0.117 A 
ATOM     16  C   LIG    1       -8.694  -1.439  12.390  0.00  0.00    +0.046 A 
ATOM     17  C   LIG    1       -7.770  -2.487  12.326  0.00  0.00    +0.008 A 
BRANCH  15  18
ATOM     18  O   LIG    1      -10.953  -0.718  12.769  0.00  0.00    -0.507 OA
ATOM     19  H   LIG    1      -11.248  -0.487  11.874  0.00  0.00    +0.292 HD
ENDBRANCH  15  18
ENDBRANCH   1  12
TORSDOF 4
ENDMDL
MODEL 3
REMARK VINA RESULT:      -8.1      2.539      5.239
REMARK  Name = 
REMARK                            x       y       z     vdW  Elec       q    Type
REMARK                         _______ _______ _______ _____ _____    ______ ____
ROOT
ATOM      1  C   LIG    1       -7.539  -4.169  13.079  0.00  0.00    +0.015 C 
ATOM      2  C   LIG    1       -7.154  -2.872  12.313  0.00  0.00    +0.021 C 
ATOM      3  C   LIG    1       -9.038  -3.972  13.439  0.00  0.00    +0.021 C 
ENDROOT
BRANCH   1   7
ATOM      4  C   LIG    1       -5.418  -4.849  16.832  0.00  0.00    +0.117 A 
ATOM      5  C   LIG    1       -4.693  -4.731  15.657  0.00  0.00    +0.046 A 
ATOM      6  C   LIG    1       -5.354  -4.493  14.446  0.00  0.00    +0.008 A 
ATOM      7  C   LIG    1       -6.753  -4.371  14.398  0.00  0.00    -0.037 A 
ATOM      8  C   LIG    1       -7.457  -4.486  15.616  0.00  0.00    +0.008 A 
ATOM      9  C   LIG    1       -6.800  -4.723  16.826  0.00  0.00    +0.046 A 
BRANCH   4  10
ATOM     10  O   LIG    1       -4.734  -5.102  17.984  0.00  0.00    -0.507 OA
ATOM     11  H   LIG    1       -5.305  -5.624  18.571  0.00  0.00    +0.292 HD
ENDBRANCH   4  10
ENDBRANCH   1   7
BRANCH   1  12
ATOM     12  C   LIG    1       -7.282  -5.386  12.153  0.00  0.00    -0.037 A 
ATOM     13  C   LIG    1       -6.288  -5.313  11.154  0.00  0.00    +0.008 A 
ATOM     14  C   LIG    1       -5.975  -6.416  10.356  0.00  0.00    +0.046 A 
ATOM     15  C   LIG    1       -6.633  -7.618  10.559  0.00  0.00    +0.117 A 
ATOM     16  C   LIG    1       -7.615  -7.729  11.533  0.00  0.00    +0.046 A 
ATOM     17  C   LIG    1       -7.940  -6.619  12.320  0.00  0.00    +0.008 A 
BRANCH  15  18
ATOM     18  O   LIG    1       -6.270  -8.681   9.786  0.00  0.00    -0.507 OA
ATOM     19  H   LIG    1       -5.839  -9.340  10.352  0.00  0.00    +0.292 HD
ENDBRANCH  15  18
ENDBRANCH   1  12
TORSDOF 4
ENDMDL
MODEL 4
REMARK VINA RESULT:      -8.1      2.508      4.295
REMARK  Name = 
REMARK                            x       y       z     vdW  Elec       q    Type
REMARK                         _______ _______ _______ _____ _____    ______ ____
ROOT
ATOM      1  C   LIG    1       -7.624  -4.124  13.061  0.00  0.00    +0.015 C 
ATOM      2  C   LIG    1       -9.125  -3.943  13.426  0.00  0.00    +0.021 C 
ATOM      3  C   LIG    1       -7.262  -2.835  12.272  0.00  0.00    +0.021 C 
ENDROOT
BRANCH   1   7
ATOM      4  C   LIG    1       -6.697  -7.523  10.485  0.00  0.00    +0.117 A 
ATOM      5  C   LIG    1       -7.594  -7.689  11.528  0.00  0.00    +0.046 A 
ATOM      6  C   LIG    1       -7.920  -6.606  12.352  0.00  0.00    +0.008 A 
ATOM      7  C   LIG    1       -7.347  -5.340  12.142  0.00  0.00    -0.037 A 
ATOM      8  C   LIG    1       -6.445  -5.206  11.064  0.00  0.00    +0.008 A 
ATOM      9  C   LIG    1       -6.120  -6.285  10.239  0.00  0.00    +0.046 A 
BRANCH   4  10
ATOM     10  O   LIG    1       -6.395  -8.610   9.720  0.00  0.00    -0.507 OA
ATOM     11  H   LIG    1       -6.525  -8.374   8.788  0.00  0.00    +0.292 HD
ENDBRANCH   4  10
ENDBRANCH   1   7
BRANCH   1  12
ATOM     12  C   LIG    1       -6.812  -4.293  14.371  0.00  0.00    -0.037 A 
ATOM     13  C   LIG    1       -7.486  -4.485  15.597  0.00  0.00    +0.008 A 
ATOM     14  C   LIG    1       -6.787  -4.721  16.783  0.00  0.00    +0.046 A 
ATOM     15  C   LIG    1       -5.404  -4.793  16.762  0.00  0.00    +0.117 A 
ATOM     16  C   LIG    1       -4.706  -4.610  15.576  0.00  0.00    +0.046 A 
ATOM     17  C   LIG    1       -5.406  -4.357  14.391  0.00  0.00    +0.008 A 
BRANCH  15  18
ATOM     18  O   LIG    1       -4.762  -5.063  17.933  0.00  0.00    -0.507 OA
ATOM     19  H   LIG    1       -4.606  -4.226  18.398  0.00  0.00    +0.292 HD
ENDBRANCH  15  18
ENDBRANCH   1  12
TORSDOF 4
ENDMDL
MODEL 5
REMARK VINA RESULT:      -8.0      1.800      5.530
REMARK  Name = 
REMARK                            x       y       z     vdW  Elec       q    Type
REMARK                         _______ _______ _______ _____ _____    ______ ____
ROOT
ATOM      1  C   LIG    1       -6.946  -5.601  12.299  0.00  0.00    +0.015 C 
ATOM      2  C   LIG    1       -8.304  -6.236  12.713  0.00  0.00    +0.021 C 
ATOM      3  C   LIG    1       -6.157  -6.770  11.646  0.00  0.00    +0.021 C 
ENDROOT
BRANCH   1   7
ATOM      4  C   LIG    1       -4.679  -4.207  15.759  0.00  0.00    +0.117 A 
ATOM      5  C   LIG    1       -4.000  -4.575  14.608  0.00  0.00    +0.046 A 
ATOM      6  C   LIG    1       -4.711  -5.005  13.481  0.00  0.00    +0.008 A 
ATOM      7  C   LIG    1       -6.114  -5.074  13.495  0.00  0.00    -0.037 A 
ATOM      8  C   LIG    1       -6.772  -4.681  14.681  0.00  0.00    +0.008 A 
ATOM      9  C   LIG    1       -6.066  -4.250  15.806  0.00  0.00    +0.046 A 
BRANCH   4  10
ATOM     10  O   LIG    1       -3.945  -3.813  16.838  0.00  0.00    -0.507 OA
ATOM     11  H   LIG    1       -4.515  -3.846  17.623  0.00  0.00    +0.292 HD
ENDBRANCH   4  10
ENDBRANCH   1   7
BRANCH   1  12
ATOM     12  C   LIG    1       -7.224  -4.427  11.326  0.00  0.00    -0.037 A 
ATOM     13  C   LIG    1       -6.930  -4.566   9.953  0.00  0.00    +0.008 A 
ATOM     14  C   LIG    1       -7.241  -3.560   9.036  0.00  0.00    +0.046 A 
ATOM     15  C   LIG    1       -7.873  -2.406   9.471  0.00  0.00    +0.117 A 
ATOM     16  C   LIG    1       -8.180  -2.234  10.813  0.00  0.00    +0.046 A 
ATOM     17  C   LIG    1       -7.852  -3.235  11.734  0.00  0.00    +0.008 A 
BRANCH  15  18
ATOM     18  O   LIG    1       -8.195  -1.466   8.538  0.00  0.00    -0.507 OA
ATOM     19  H   LIG    1       -7.526  -1.487   7.836  0.00  0.00    +0.292 HD
ENDBRANCH  15  18
ENDBRANCH   1  12
TORSDOF 4
ENDMDL
MODEL 6
REMARK VINA RESULT:      -7.9      1.619      2.382
REMARK  Name = 
REMARK                            x       y       z     vdW  Elec       q    Type
REMARK                         _______ _______ _______ _____ _____    ______ ____
ROOT
ATOM      1  C   LIG    1       -6.971  -5.392  12.523  0.00  0.00    +0.015 C 
ATOM      2  C   LIG    1       -6.296  -6.565  11.758  0.00  0.00    +0.021 C 
ATOM      3  C   LIG    1       -8.327  -5.978  13.007  0.00  0.00    +0.021 C 
ENDROOT
BRANCH   1   7
ATOM      4  C   LIG    1       -7.904  -2.010   9.927  0.00  0.00    +0.117 A 
ATOM      5  C   LIG    1       -8.075  -1.879  11.296  0.00  0.00    +0.046 A 
ATOM      6  C   LIG    1       -7.762  -2.946  12.147  0.00  0.00    +0.008 A 
ATOM      7  C   LIG    1       -7.274  -4.160  11.634  0.00  0.00    -0.037 A 
ATOM      8  C   LIG    1       -7.104  -4.253  10.235  0.00  0.00    +0.008 A 
ATOM      9  C   LIG    1       -7.415  -3.189   9.385  0.00  0.00    +0.046 A 
BRANCH   4  10
ATOM     10  O   LIG    1       -8.242  -0.952   9.135  0.00  0.00    -0.507 OA
ATOM     11  H   LIG    1       -7.485  -0.744   8.564  0.00  0.00    +0.292 HD
ENDBRANCH   4  10
ENDBRANCH   1   7
BRANCH   1  12
ATOM     12  C   LIG    1       -6.040  -4.954  13.683  0.00  0.00    -0.037 A 
ATOM     13  C   LIG    1       -6.584  -4.671  14.954  0.00  0.00    +0.008 A 
ATOM     14  C   LIG    1       -5.768  -4.353  16.041  0.00  0.00    +0.046 A 
ATOM     15  C   LIG    1       -4.392  -4.336  15.884  0.00  0.00    +0.117 A 
ATOM     16  C   LIG    1       -3.819  -4.611  14.650  0.00  0.00    +0.046 A 
ATOM     17  C   LIG    1       -4.638  -4.912  13.557  0.00  0.00    +0.008 A 
BRANCH  15  18
ATOM     18  O   LIG    1       -3.629  -4.059  16.979  0.00  0.00    -0.507 OA
ATOM     19  H   LIG    1       -3.692  -3.109  17.166  0.00  0.00    +0.292 HD
ENDBRANCH  15  18
ENDBRANCH   1  12
TORSDOF 4
ENDMDL
MODEL 7
REMARK VINA RESULT:      -7.9      2.791      3.810
REMARK  Name = 
REMARK                            x       y       z     vdW  Elec       q    Type
REMARK                         _______ _______ _______ _____ _____    ______ ____
ROOT
ATOM      1  C   LIG    1       -5.903  -6.107  11.586  0.00  0.00    +0.015 C 
ATOM      2  C   LIG    1       -4.407  -5.761  11.344  0.00  0.00    +0.021 C 
ATOM      3  C   LIG    1       -5.945  -7.661  11.581  0.00  0.00    +0.021 C 
ENDROOT
BRANCH   1   7
ATOM      4  C   LIG    1       -8.454  -4.605   8.380  0.00  0.00    +0.117 A 
ATOM      5  C   LIG    1       -8.487  -5.954   8.695  0.00  0.00    +0.046 A 
ATOM      6  C   LIG    1       -7.692  -6.451   9.734  0.00  0.00    +0.008 A 
ATOM      7  C   LIG    1       -6.850  -5.600  10.470  0.00  0.00    -0.037 A 
ATOM      8  C   LIG    1       -6.850  -4.231  10.127  0.00  0.00    +0.008 A 
ATOM      9  C   LIG    1       -7.644  -3.732   9.092  0.00  0.00    +0.046 A 
BRANCH   4  10
ATOM     10  O   LIG    1       -9.231  -4.169   7.348  0.00  0.00    -0.507 OA
ATOM     11  H   LIG    1       -9.991  -3.691   7.717  0.00  0.00    +0.292 HD
ENDBRANCH   4  10
ENDBRANCH   1   7
BRANCH   1  12
ATOM     12  C   LIG    1       -6.343  -5.484  12.936  0.00  0.00    -0.037 A 
ATOM     13  C   LIG    1       -7.695  -5.557  13.337  0.00  0.00    +0.008 A 
ATOM     14  C   LIG    1       -8.112  -5.079  14.581  0.00  0.00    +0.046 A 
ATOM     15  C   LIG    1       -7.183  -4.541  15.457  0.00  0.00    +0.117 A 
ATOM     16  C   LIG    1       -5.845  -4.454  15.099  0.00  0.00    +0.046 A 
ATOM     17  C   LIG    1       -5.430  -4.917  13.845  0.00  0.00    +0.008 A 
BRANCH  15  18
ATOM     18  O   LIG    1       -7.624  -4.121  16.676  0.00  0.00    -0.507 OA
ATOM     19  H   LIG    1       -6.859  -4.028  17.265  0.00  0.00    +0.292 HD
ENDBRANCH  15  18
ENDBRANCH   1  12
TORSDOF 4
ENDMDL
MODEL 8
REMARK VINA RESULT:      -7.8      2.476      5.515
REMARK  Name = 
REMARK                            x       y       z     vdW  Elec       q    Type
REMARK                         _______ _______ _______ _____ _____    ______ ____
ROOT
ATOM      1  C   LIG    1       -7.640  -3.937  13.176  0.00  0.00    +0.015 C 
ATOM      2  C   LIG    1       -7.268  -2.548  12.584  0.00  0.00    +0.021 C 
ATOM      3  C   LIG    1       -9.148  -3.813  13.531  0.00  0.00    +0.021 C 
ENDROOT
BRANCH   1   7
ATOM      4  C   LIG    1       -5.378  -4.816  16.803  0.00  0.00    +0.117 A 
ATOM      5  C   LIG    1       -6.760  -4.725  16.872  0.00  0.00    +0.046 A 
ATOM      6  C   LIG    1       -7.504  -4.464  15.716  0.00  0.00    +0.008 A 
ATOM      7  C   LIG    1       -6.871  -4.289  14.473  0.00  0.00    -0.037 A 
ATOM      8  C   LIG    1       -5.464  -4.398  14.440  0.00  0.00    +0.008 A 
ATOM      9  C   LIG    1       -4.719  -4.660  15.592  0.00  0.00    +0.046 A 
BRANCH   4  10
ATOM     10  O   LIG    1       -4.693  -5.051  17.958  0.00  0.00    -0.507 OA
ATOM     11  H   LIG    1       -5.202  -5.683  18.492  0.00  0.00    +0.292 HD
ENDBRANCH   4  10
ENDBRANCH   1   7
BRANCH   1  12
ATOM     12  C   LIG    1       -7.347  -5.024  12.110  0.00  0.00    -0.037 A 
ATOM     13  C   LIG    1       -7.792  -6.348  12.314  0.00  0.00    +0.008 A 
ATOM     14  C   LIG    1       -7.617  -7.334  11.340  0.00  0.00    +0.046 A 
ATOM     15  C   LIG    1       -7.014  -7.009  10.136  0.00  0.00    +0.117 A 
ATOM     16  C   LIG    1       -6.564  -5.718   9.898  0.00  0.00    +0.046 A 
ATOM     17  C   LIG    1       -6.725  -4.735  10.881  0.00  0.00    +0.008 A 
BRANCH  15  18
ATOM     18  O   LIG    1       -6.896  -7.991   9.198  0.00  0.00    -0.507 OA
ATOM     19  H   LIG    1       -6.132  -7.788   8.635  0.00  0.00    +0.292 HD
ENDBRANCH  15  18
ENDBRANCH   1  12
TORSDOF 4
ENDMDL
MODEL 9
REMARK VINA RESULT:      -7.6      2.675      5.768
REMARK  Name = 
REMARK                            x       y       z     vdW  Elec       q    Type
REMARK                         _______ _______ _______ _____ _____    ______ ____
ROOT
ATOM      1  C   LIG    1       -8.591  -3.133  12.367  0.00  0.00    +0.015 C 
ATOM      2  C   LIG    1       -8.432  -1.645  11.947  0.00  0.00    +0.021 C 
ATOM      3  C   LIG    1       -9.968  -3.185  13.086  0.00  0.00    +0.021 C 
ENDROOT
BRANCH   1   7
ATOM      4  C   LIG    1       -5.624  -4.630  15.196  0.00  0.00    +0.117 A 
ATOM      5  C   LIG    1       -5.198  -4.044  14.015  0.00  0.00    +0.046 A 
ATOM      6  C   LIG    1       -6.134  -3.540  13.104  0.00  0.00    +0.008 A 
ATOM      7  C   LIG    1       -7.512  -3.618  13.366  0.00  0.00    -0.037 A 
ATOM      8  C   LIG    1       -7.909  -4.212  14.584  0.00  0.00    +0.008 A 
ATOM      9  C   LIG    1       -6.977  -4.715  15.495  0.00  0.00    +0.046 A 
BRANCH   4  10
ATOM     10  O   LIG    1       -4.678  -5.125  16.044  0.00  0.00    -0.507 OA
ATOM     11  H   LIG    1       -5.087  -5.818  16.588  0.00  0.00    +0.292 HD
ENDBRANCH   4  10
ENDBRANCH   1   7
BRANCH   1  12
ATOM     12  C   LIG    1       -8.527  -4.017  11.095  0.00  0.00    -0.037 A 
ATOM     13  C   LIG    1       -8.786  -5.402  11.186  0.00  0.00    +0.008 A 
ATOM     14  C   LIG    1       -8.817  -6.213  10.050  0.00  0.00    +0.046 A 
ATOM     15  C   LIG    1       -8.613  -5.652   8.800  0.00  0.00    +0.117 A 
ATOM     16  C   LIG    1       -8.357  -4.294   8.669  0.00  0.00    +0.046 A 
ATOM     17  C   LIG    1       -8.309  -3.485   9.809  0.00  0.00    +0.008 A 
BRANCH  15  18
ATOM     18  O   LIG    1       -8.689  -6.472   7.713  0.00  0.00    -0.507 OA
ATOM     19  H   LIG    1       -9.061  -7.322   7.995  0.00  0.00    +0.292 HD
ENDBRANCH  15  18
ENDBRANCH   1  12
TORSDOF 4
ENDMDL
