MODEL 1
REMARK VINA RESULT:      -7.9      0.000      0.000
REMARK  Name = 
REMARK                            x       y       z     vdW  Elec       q    Type
REMARK                         _______ _______ _______ _____ _____    ______ ____
ROOT
ATOM      1  C   LIG    1       64.835  44.895  33.474  0.00  0.00    +0.015 C 
ATOM      2  C   LIG    1       64.709  43.443  34.015  0.00  0.00    +0.021 C 
ATOM      3  C   LIG    1       66.281  45.323  33.852  0.00  0.00    +0.021 C 
ENDROOT
BRANCH   1   7
ATOM      4  C   LIG    1       61.975  47.598  35.361  0.00  0.00    +0.117 A 
ATOM      5  C   LIG    1       63.306  47.648  35.742  0.00  0.00    +0.046 A 
ATOM      6  C   LIG    1       64.242  46.803  35.134  0.00  0.00    +0.008 A 
ATOM      7  C   LIG    1       63.854  45.895  34.135  0.00  0.00    -0.037 A 
ATOM      8  C   LIG    1       62.491  45.880  33.765  0.00  0.00    +0.008 A 
ATOM      9  C   LIG    1       61.556  46.723  34.369  0.00  0.00    +0.046 A 
BRANCH   4  10
ATOM     10  O   LIG    1       61.096  48.425  35.994  0.00  0.00    -0.507 OA
ATOM     11  H   LIG    1       60.780  49.084  35.355  0.00  0.00    +0.292 HD
ENDBRANCH   4  10
ENDBRANCH   1   7
BRANCH   1  12
ATOM     12  C   LIG    1       64.578  44.879  31.945  0.00  0.00    -0.037 A 
ATOM     13  C   LIG    1       64.161  43.687  31.314  0.00  0.00    +0.008 A 
ATOM     14  C   LIG    1       63.843  43.654  29.955  0.00  0.00    +0.046 A 
ATOM     15  C   LIG    1       63.911  44.818  29.207  0.00  0.00    +0.117 A 
ATOM     16  C   LIG    1       64.315  46.010  29.792  0.00  0.00    +0.046 A 
ATOM     17  C   LIG    1       64.651  46.038  31.150  0.00  0.00    +0.008 A 
BRANCH  15  18
ATOM     18  O   LIG    1       63.555  44.753  27.893  0.00  0.00    -0.507 OA
ATOM     19  H   LIG    1       64.284  44.349  27.396  0.00  0.00    +0.292 HD
ENDBRANCH  15  18
ENDBRANCH   1  12
TORSDOF 4
ENDMDL
MODEL 2
REMARK VINA RESULT:      -7.9      0.099      5.454
REMARK  Name = 
REMARK                            x       y       z     vdW  Elec       q    Type
REMARK                         _______ _______ _______ _____ _____    ______ ____
ROOT
ATOM      1  C   LIG    1       64.774  44.919  33.386  0.00  0.00    +0.015 C 
ATOM      2  C   LIG    1       66.236  45.298  33.759  0.00  0.00    +0.021 C 
ATOM      3  C   LIG    1       64.607  43.466  33.912  0.00  0.00    +0.021 C 
ENDROOT
BRANCH   1   7
ATOM      4  C   LIG    1       63.878  44.818  29.115  0.00  0.00    +0.117 A 
ATOM      5  C   LIG    1       64.304  46.006  29.690  0.00  0.00    +0.046 A 
ATOM      6  C   LIG    1       64.616  46.052  31.054  0.00  0.00    +0.008 A 
ATOM      7  C   LIG    1       64.503  44.908  31.861  0.00  0.00    -0.037 A 
ATOM      8  C   LIG    1       64.075  43.714  31.239  0.00  0.00    +0.008 A 
ATOM      9  C   LIG    1       63.765  43.664  29.878  0.00  0.00    +0.046 A 
BRANCH   4  10
ATOM     10  O   LIG    1       63.566  44.825  27.788  0.00  0.00    -0.507 OA
ATOM     11  H   LIG    1       63.074  45.638  27.594  0.00  0.00    +0.292 HD
ENDBRANCH   4  10
ENDBRANCH   1   7
BRANCH   1  12
ATOM     12  C   LIG    1       63.812  45.932  34.058  0.00  0.00    -0.037 A 
ATOM     13  C   LIG    1       62.449  45.956  33.693  0.00  0.00    +0.008 A 
ATOM     14  C   LIG    1       61.538  46.798  34.334  0.00  0.00    +0.046 A 
ATOM     15  C   LIG    1       61.968  47.615  35.367  0.00  0.00    +0.117 A 
ATOM     16  C   LIG    1       63.301  47.618  35.755  0.00  0.00    +0.046 A 
ATOM     17  C   LIG    1       64.216  46.786  35.101  0.00  0.00    +0.008 A 
BRANCH  15  18
ATOM     18  O   LIG    1       61.041  48.393  35.992  0.00  0.00    -0.507 OA
ATOM     19  H   LIG    1       60.619  48.963  35.329  0.00  0.00    +0.292 HD
ENDBRANCH  15  18
ENDBRANCH   1  12
TORSDOF 4
ENDMDL
MODEL 3
REMARK VINA RESULT:      -7.7      5.040      6.449
REMARK  Name = 
REMARK                            x       y       z     vdW  Elec       q    Type
REMARK                         _______ _______ _______ _____ _____    ______ ____
ROOT
ATOM      1  C   LIG    1       60.198  46.814  28.921  0.00  0.00    +0.015 C 
ATOM      2  C   LIG    1       60.605  46.228  27.540  0.00  0.00    +0.021 C 
ATOM      3  C   LIG    1       60.148  48.350  28.688  0.00  0.00    +0.021 C 
ENDROOT
BRANCH   1   7
ATOM      4  C   LIG    1       63.211  46.060  31.988  0.00  0.00    +0.117 A 
ATOM      5  C   LIG    1       62.139  46.888  32.281  0.00  0.00    +0.046 A 
ATOM      6  C   LIG    1       61.152  47.126  31.318  0.00  0.00    +0.008 A 
ATOM      7  C   LIG    1       61.228  46.536  30.044  0.00  0.00    -0.037 A 
ATOM      8  C   LIG    1       62.329  45.691  29.785  0.00  0.00    +0.008 A 
ATOM      9  C   LIG    1       63.314  45.451  30.745  0.00  0.00    +0.046 A 
BRANCH   4  10
ATOM     10  O   LIG    1       64.158  45.873  32.950  0.00  0.00    -0.507 OA
ATOM     11  H   LIG    1       64.177  44.931  33.182  0.00  0.00    +0.292 HD
ENDBRANCH   4  10
ENDBRANCH   1   7
BRANCH   1  12
ATOM     12  C   LIG    1       58.832  46.209  29.335  0.00  0.00    -0.037 A 
ATOM     13  C   LIG    1       57.634  46.823  28.912  0.00  0.00    +0.008 A 
ATOM     14  C   LIG    1       56.387  46.261  29.198  0.00  0.00    +0.046 A 
ATOM     15  C   LIG    1       56.317  45.063  29.890  0.00  0.00    +0.117 A 
ATOM     16  C   LIG    1       57.474  44.428  30.320  0.00  0.00    +0.046 A 
ATOM     17  C   LIG    1       58.721  45.000  30.049  0.00  0.00    +0.008 A 
BRANCH  15  18
ATOM     18  O   LIG    1       55.084  44.528  30.114  0.00  0.00    -0.507 OA
ATOM     19  H   LIG    1       54.809  44.043  29.320  0.00  0.00    +0.292 HD
ENDBRANCH  15  18
ENDBRANCH   1  12
TORSDOF 4
ENDMDL
MODEL 4
REMARK VINA RESULT:      -7.7      5.046      6.517
REMARK  Name = 
REMARK                            x       y       z     vdW  Elec       q    Type
REMARK                         _______ _______ _______ _____ _____    ______ ____
ROOT
ATOM      1  C   LIG    1       60.193  46.828  28.951  0.00  0.00    +0.015 C 
ATOM      2  C   LIG    1       60.138  48.366  28.733  0.00  0.00    +0.021 C 
ATOM      3  C   LIG    1       60.607  46.257  27.566  0.00  0.00    +0.021 C 
ENDROOT
BRANCH   1   7
ATOM      4  C   LIG    1       56.304  45.083  29.893  0.00  0.00    +0.117 A 
ATOM      5  C   LIG    1       57.456  44.447  30.330  0.00  0.00    +0.046 A 
ATOM      6  C   LIG    1       58.711  45.002  30.055  0.00  0.00    +0.008 A 
ATOM      7  C   LIG    1       58.828  46.203  29.336  0.00  0.00    -0.037 A 
ATOM      8  C   LIG    1       57.634  46.828  28.916  0.00  0.00    +0.008 A 
ATOM      9  C   LIG    1       56.380  46.277  29.190  0.00  0.00    +0.046 A 
BRANCH   4  10
ATOM     10  O   LIG    1       55.105  44.496  30.166  0.00  0.00    -0.507 OA
ATOM     11  H   LIG    1       55.185  44.012  31.004  0.00  0.00    +0.292 HD
ENDBRANCH   4  10
ENDBRANCH   1   7
BRANCH   1  12
ATOM     12  C   LIG    1       61.217  46.522  30.074  0.00  0.00    -0.037 A 
ATOM     13  C   LIG    1       62.324  45.689  29.809  0.00  0.00    +0.008 A 
ATOM     14  C   LIG    1       63.309  45.457  30.772  0.00  0.00    +0.046 A 
ATOM     15  C   LIG    1       63.217  46.073  32.009  0.00  0.00    +0.117 A 
ATOM     16  C   LIG    1       62.144  46.901  32.307  0.00  0.00    +0.046 A 
ATOM     17  C   LIG    1       61.149  47.119  31.348  0.00  0.00    +0.008 A 
BRANCH  15  18
ATOM     18  O   LIG    1       64.218  45.852  32.907  0.00  0.00    -0.507 OA
ATOM     19  H   LIG    1       65.067  46.033  32.473  0.00  0.00    +0.292 HD
ENDBRANCH  15  18
ENDBRANCH   1  12
TORSDOF 4
ENDMDL
MODEL 5
REMARK VINA RESULT:      -7.5      4.352      6.738
REMARK  Name = 
REMARK                            x       y       z     vdW  Elec       q    Type
REMARK                         _______ _______ _______ _____ _____    ______ ____
ROOT
ATOM      1  C   LIG    1       60.815  46.968  29.179  0.00  0.00    +0.015 C 
ATOM      2  C   LIG    1       60.696  47.532  27.735  0.00  0.00    +0.021 C 
ATOM      3  C   LIG    1       61.155  48.209  30.050  0.00  0.00    +0.021 C 
ENDROOT
BRANCH   1   7
ATOM      4  C   LIG    1       64.082  44.094  29.531  0.00  0.00    +0.117 A 
ATOM      5  C   LIG    1       63.851  44.987  30.566  0.00  0.00    +0.046 A 
ATOM      6  C   LIG    1       62.795  45.902  30.480  0.00  0.00    +0.008 A 
ATOM      7  C   LIG    1       61.957  45.935  29.353  0.00  0.00    -0.037 A 
ATOM      8  C   LIG    1       62.216  45.005  28.323  0.00  0.00    +0.008 A 
ATOM      9  C   LIG    1       63.268  44.089  28.407  0.00  0.00    +0.046 A 
BRANCH   4  10
ATOM     10  O   LIG    1       65.133  43.234  29.649  0.00  0.00    -0.507 OA
ATOM     11  H   LIG    1       65.580  43.412  30.492  0.00  0.00    +0.292 HD
ENDBRANCH   4  10
ENDBRANCH   1   7
BRANCH   1  12
ATOM     12  C   LIG    1       59.472  46.296  29.562  0.00  0.00    -0.037 A 
ATOM     13  C   LIG    1       59.263  45.842  30.882  0.00  0.00    +0.008 A 
ATOM     14  C   LIG    1       58.037  45.306  31.283  0.00  0.00    +0.046 A 
ATOM     15  C   LIG    1       56.990  45.236  30.378  0.00  0.00    +0.117 A 
ATOM     16  C   LIG    1       57.157  45.673  29.071  0.00  0.00    +0.046 A 
ATOM     17  C   LIG    1       58.391  46.194  28.666  0.00  0.00    +0.008 A 
BRANCH  15  18
ATOM     18  O   LIG    1       55.799  44.742  30.819  0.00  0.00    -0.507 OA
ATOM     19  H   LIG    1       55.084  45.200  30.350  0.00  0.00    +0.292 HD
ENDBRANCH  15  18
ENDBRANCH   1  12
TORSDOF 4
ENDMDL
MODEL 6
REMARK VINA RESULT:      -7.5      4.185      5.735
REMARK  Name = 
REMARK                            x       y       z     vdW  Elec       q    Type
REMARK                         _______ _______ _______ _____ _____    ______ ____
ROOT
ATOM      1  C   LIG    1       61.067  47.190  29.427  0.00  0.00    +0.015 C 
ATOM      2  C   LIG    1       61.420  48.258  30.501  0.00  0.00    +0.021 C 
ATOM      3  C   LIG    1       60.933  48.001  28.108  0.00  0.00    +0.021 C 
ENDROOT
BRANCH   1   7
ATOM      4  C   LIG    1       57.256  45.239  30.275  0.00  0.00    +0.117 A 
ATOM      5  C   LIG    1       57.489  45.747  29.006  0.00  0.00    +0.046 A 
ATOM      6  C   LIG    1       58.713  46.358  28.709  0.00  0.00    +0.008 A 
ATOM      7  C   LIG    1       59.720  46.469  29.683  0.00  0.00    -0.037 A 
ATOM      8  C   LIG    1       59.451  45.931  30.960  0.00  0.00    +0.008 A 
ATOM      9  C   LIG    1       58.231  45.320  31.259  0.00  0.00    +0.046 A 
BRANCH   4  10
ATOM     10  O   LIG    1       56.043  44.670  30.524  0.00  0.00    -0.507 OA
ATOM     11  H   LIG    1       56.180  43.891  31.087  0.00  0.00    +0.292 HD
ENDBRANCH   4  10
ENDBRANCH   1   7
BRANCH   1  12
ATOM     12  C   LIG    1       62.200  46.133  29.387  0.00  0.00    -0.037 A 
ATOM     13  C   LIG    1       63.181  46.115  30.402  0.00  0.00    +0.008 A 
ATOM     14  C   LIG    1       64.169  45.128  30.443  0.00  0.00    +0.046 A 
ATOM     15  C   LIG    1       64.180  44.128  29.484  0.00  0.00    +0.117 A 
ATOM     16  C   LIG    1       63.231  44.111  28.471  0.00  0.00    +0.046 A 
ATOM     17  C   LIG    1       62.252  45.110  28.421  0.00  0.00    +0.008 A 
BRANCH  15  18
ATOM     18  O   LIG    1       65.136  43.162  29.581  0.00  0.00    -0.507 OA
ATOM     19  H   LIG    1       64.959  42.632  30.374  0.00  0.00    +0.292 HD
ENDBRANCH  15  18
ENDBRANCH   1  12
TORSDOF 4
ENDMDL
MODEL 7
REMARK VINA RESULT:      -7.3      2.393      3.721
REMARK  Name = 
REMARK                            x       y       z     vdW  Elec       q    Type
REMARK                         _______ _______ _______ _____ _____    ______ ____
ROOT
ATOM      1  C   LIG    1       63.961  44.783  30.208  0.00  0.00    +0.015 C 
ATOM      2  C   LIG    1       63.444  43.390  29.751  0.00  0.00    +0.021 C 
ATOM      3  C   LIG    1       65.433  44.829  29.711  0.00  0.00    +0.021 C 
ENDROOT
BRANCH   1   7
ATOM      4  C   LIG    1       64.127  45.255  34.544  0.00  0.00    +0.117 A 
ATOM      5  C   LIG    1       63.692  46.314  33.764  0.00  0.00    +0.046 A 
ATOM      6  C   LIG    1       63.612  46.175  32.373  0.00  0.00    +0.008 A 
ATOM      7  C   LIG    1       63.971  44.970  31.746  0.00  0.00    -0.037 A 
ATOM      8  C   LIG    1       64.400  43.910  32.573  0.00  0.00    +0.008 A 
ATOM      9  C   LIG    1       64.478  44.045  33.961  0.00  0.00    +0.046 A 
BRANCH   4  10
ATOM     10  O   LIG    1       64.207  45.442  35.892  0.00  0.00    -0.507 OA
ATOM     11  H   LIG    1       65.008  45.958  36.082  0.00  0.00    +0.292 HD
ENDBRANCH   4  10
ENDBRANCH   1   7
BRANCH   1  12
ATOM     12  C   LIG    1       63.063  45.877  29.577  0.00  0.00    -0.037 A 
ATOM     13  C   LIG    1       63.633  46.853  28.730  0.00  0.00    +0.008 A 
ATOM     14  C   LIG    1       62.843  47.804  28.081  0.00  0.00    +0.046 A 
ATOM     15  C   LIG    1       61.468  47.783  28.246  0.00  0.00    +0.117 A 
ATOM     16  C   LIG    1       60.871  46.838  29.069  0.00  0.00    +0.046 A 
ATOM     17  C   LIG    1       61.664  45.896  29.733  0.00  0.00    +0.008 A 
BRANCH  15  18
ATOM     18  O   LIG    1       60.730  48.703  27.564  0.00  0.00    -0.507 OA
ATOM     19  H   LIG    1       60.248  48.248  26.856  0.00  0.00    +0.292 HD
ENDBRANCH  15  18
ENDBRANCH   1  12
TORSDOF 4
ENDMDL
MODEL 8
REMARK VINA RESULT:      -7.3      2.357      5.404
REMARK  Name = 
REMARK                            x       y       z     vdW  Elec       q    Type
REMARK                         _______ _______ _______ _____ _____    ______ ____
ROOT
ATOM      1  C   LIG    1       63.991  44.715  30.219  0.00  0.00    +0.015 C 
ATOM      2  C   LIG    1       65.474  44.739  29.750  0.00  0.00    +0.021 C 
ATOM      3  C   LIG    1       63.469  43.321  29.773  0.00  0.00    +0.021 C 
ENDROOT
BRANCH   1   7
ATOM      4  C   LIG    1       61.572  47.730  28.192  0.00  0.00    +0.117 A 
ATOM      5  C   LIG    1       60.945  46.775  28.979  0.00  0.00    +0.046 A 
ATOM      6  C   LIG    1       61.706  45.813  29.653  0.00  0.00    +0.008 A 
ATOM      7  C   LIG    1       63.107  45.794  29.546  0.00  0.00    -0.037 A 
ATOM      8  C   LIG    1       63.710  46.787  28.744  0.00  0.00    +0.008 A 
ATOM      9  C   LIG    1       62.954  47.750  28.072  0.00  0.00    +0.046 A 
BRANCH   4  10
ATOM     10  O   LIG    1       60.789  48.635  27.539  0.00  0.00    -0.507 OA
ATOM     11  H   LIG    1       60.666  49.405  28.115  0.00  0.00    +0.292 HD
ENDBRANCH   4  10
ENDBRANCH   1   7
BRANCH   1  12
ATOM     12  C   LIG    1       63.953  44.925  31.755  0.00  0.00    -0.037 A 
ATOM     13  C   LIG    1       64.423  43.909  32.615  0.00  0.00    +0.008 A 
ATOM     14  C   LIG    1       64.478  44.095  33.998  0.00  0.00    +0.046 A 
ATOM     15  C   LIG    1       64.089  45.307  34.544  0.00  0.00    +0.117 A 
ATOM     16  C   LIG    1       63.623  46.330  33.730  0.00  0.00    +0.046 A 
ATOM     17  C   LIG    1       63.551  46.137  32.346  0.00  0.00    +0.008 A 
BRANCH  15  18
ATOM     18  O   LIG    1       64.195  45.461  35.894  0.00  0.00    -0.507 OA
ATOM     19  H   LIG    1       64.496  44.622  36.277  0.00  0.00    +0.292 HD
ENDBRANCH  15  18
ENDBRANCH   1  12
TORSDOF 4
ENDMDL
MODEL 9
REMARK VINA RESULT:      -7.3      3.300      5.533
REMARK  Name = 
REMARK                            x       y       z     vdW  Elec       q    Type
REMARK                         _______ _______ _______ _____ _____    ______ ____
ROOT
ATOM      1  C   LIG    1       63.224  45.300  28.707  0.00  0.00    +0.015 C 
ATOM      2  C   LIG    1       64.207  46.226  27.936  0.00  0.00    +0.021 C 
ATOM      3  C   LIG    1       63.110  44.032  27.815  0.00  0.00    +0.021 C 
ENDROOT
BRANCH   1   7
ATOM      4  C   LIG    1       59.219  47.006  29.023  0.00  0.00    +0.117 A 
ATOM      5  C   LIG    1       59.491  45.798  29.646  0.00  0.00    +0.046 A 
ATOM      6  C   LIG    1       60.775  45.245  29.573  0.00  0.00    +0.008 A 
ATOM      7  C   LIG    1       61.804  45.897  28.872  0.00  0.00    -0.037 A 
ATOM      8  C   LIG    1       61.492  47.130  28.259  0.00  0.00    +0.008 A 
ATOM      9  C   LIG    1       60.213  47.685  28.332  0.00  0.00    +0.046 A 
BRANCH   4  10
ATOM     10  O   LIG    1       57.950  47.497  29.104  0.00  0.00    -0.507 OA
ATOM     11  H   LIG    1       57.329  46.766  28.953  0.00  0.00    +0.292 HD
ENDBRANCH   4  10
ENDBRANCH   1   7
BRANCH   1  12
ATOM     12  C   LIG    1       63.811  45.012  30.112  0.00  0.00    -0.037 A 
ATOM     13  C   LIG    1       64.030  46.076  31.014  0.00  0.00    +0.008 A 
ATOM     14  C   LIG    1       64.482  45.846  32.316  0.00  0.00    +0.046 A 
ATOM     15  C   LIG    1       64.700  44.548  32.747  0.00  0.00    +0.117 A 
ATOM     16  C   LIG    1       64.494  43.476  31.890  0.00  0.00    +0.046 A 
ATOM     17  C   LIG    1       64.058  43.708  30.581  0.00  0.00    +0.008 A 
BRANCH  15  18
ATOM     18  O   LIG    1       65.103  44.363  34.036  0.00  0.00    -0.507 OA
ATOM     19  H   LIG    1       65.835  43.727  34.041  0.00  0.00    +0.292 HD
ENDBRANCH  15  18
ENDBRANCH   1  12
TORSDOF 4
ENDMDL
