MODEL 1
REMARK VINA RESULT:      -7.9      0.000      0.000
REMARK  Name = 
REMARK                            x       y       z     vdW  Elec       q    Type
REMARK                         _______ _______ _______ _____ _____    ______ ____
ROOT
ATOM      1  C   LIG    1       39.919  -1.401  16.321  0.00  0.00    +0.015 C 
ATOM      2  C   LIG    1       39.813  -2.125  14.949  0.00  0.00    +0.021 C 
ATOM      3  C   LIG    1       38.790  -2.037  17.180  0.00  0.00    +0.021 C 
ENDROOT
BRANCH   1   7
ATOM      4  C   LIG    1       39.146   2.879  15.957  0.00  0.00    +0.117 A 
ATOM      5  C   LIG    1       38.601   2.181  17.022  0.00  0.00    +0.046 A 
ATOM      6  C   LIG    1       38.854   0.812  17.167  0.00  0.00    +0.008 A 
ATOM      7  C   LIG    1       39.658   0.124  16.243  0.00  0.00    -0.037 A 
ATOM      8  C   LIG    1       40.204   0.869  15.176  0.00  0.00    +0.008 A 
ATOM      9  C   LIG    1       39.955   2.236  15.030  0.00  0.00    +0.046 A 
BRANCH   4  10
ATOM     10  O   LIG    1       38.856   4.206  15.845  0.00  0.00    -0.507 OA
ATOM     11  H   LIG    1       38.122   4.411  16.446  0.00  0.00    +0.292 HD
ENDBRANCH   4  10
ENDBRANCH   1   7
BRANCH   1  12
ATOM     12  C   LIG    1       41.338  -1.636  16.897  0.00  0.00    -0.037 A 
ATOM     13  C   LIG    1       41.789  -0.869  17.993  0.00  0.00    +0.008 A 
ATOM     14  C   LIG    1       43.029  -1.108  18.589  0.00  0.00    +0.046 A 
ATOM     15  C   LIG    1       43.831  -2.134  18.117  0.00  0.00    +0.117 A 
ATOM     16  C   LIG    1       43.421  -2.912  17.043  0.00  0.00    +0.046 A 
ATOM     17  C   LIG    1       42.187  -2.661  16.435  0.00  0.00    +0.008 A 
BRANCH  15  18
ATOM     18  O   LIG    1       45.016  -2.360  18.751  0.00  0.00    -0.507 OA
ATOM     19  H   LIG    1       44.830  -2.627  19.665  0.00  0.00    +0.292 HD
ENDBRANCH  15  18
ENDBRANCH   1  12
TORSDOF 4
ENDMDL
MODEL 2
REMARK VINA RESULT:      -7.9      0.046      5.674
REMARK  Name = 
REMARK                            x       y       z     vdW  Elec       q    Type
REMARK                         _______ _______ _______ _____ _____    ______ ____
ROOT
ATOM      1  C   LIG    1       39.921  -1.417  16.359  0.00  0.00    +0.015 C 
ATOM      2  C   LIG    1       38.779  -2.059  17.197  0.00  0.00    +0.021 C 
ATOM      3  C   LIG    1       39.834  -2.131  14.981  0.00  0.00    +0.021 C 
ENDROOT
BRANCH   1   7
ATOM      4  C   LIG    1       43.849  -2.115  18.128  0.00  0.00    +0.117 A 
ATOM      5  C   LIG    1       43.425  -2.919  17.081  0.00  0.00    +0.046 A 
ATOM      6  C   LIG    1       42.177  -2.697  16.487  0.00  0.00    +0.008 A 
ATOM      7  C   LIG    1       41.336  -1.666  16.937  0.00  0.00    -0.037 A 
ATOM      8  C   LIG    1       41.805  -0.862  17.998  0.00  0.00    +0.008 A 
ATOM      9  C   LIG    1       43.050  -1.079  18.592  0.00  0.00    +0.046 A 
BRANCH   4  10
ATOM     10  O   LIG    1       45.063  -2.380  18.688  0.00  0.00    -0.507 OA
ATOM     11  H   LIG    1       45.550  -2.975  18.095  0.00  0.00    +0.292 HD
ENDBRANCH   4  10
ENDBRANCH   1   7
BRANCH   1  12
ATOM     12  C   LIG    1       39.676   0.112  16.277  0.00  0.00    -0.037 A 
ATOM     13  C   LIG    1       40.198   0.851  15.193  0.00  0.00    +0.008 A 
ATOM     14  C   LIG    1       39.930   2.213  15.044  0.00  0.00    +0.046 A 
ATOM     15  C   LIG    1       39.116   2.857  15.962  0.00  0.00    +0.117 A 
ATOM     16  C   LIG    1       38.583   2.163  17.040  0.00  0.00    +0.046 A 
ATOM     17  C   LIG    1       38.866   0.802  17.198  0.00  0.00    +0.008 A 
BRANCH  15  18
ATOM     18  O   LIG    1       38.847   4.177  15.760  0.00  0.00    -0.507 OA
ATOM     19  H   LIG    1       38.971   4.649  16.598  0.00  0.00    +0.292 HD
ENDBRANCH  15  18
ENDBRANCH   1  12
TORSDOF 4
ENDMDL
MODEL 3
REMARK VINA RESULT:      -7.9      0.147      5.454
REMARK  Name = 
REMARK                            x       y       z     vdW  Elec       q    Type
REMARK                         _______ _______ _______ _____ _____    ______ ____
ROOT
ATOM      1  C   LIG    1       39.846  -1.439  16.337  0.00  0.00    +0.015 C 
ATOM      2  C   LIG    1       38.669  -2.063  17.140  0.00  0.00    +0.021 C 
ATOM      3  C   LIG    1       39.860  -2.228  14.998  0.00  0.00    +0.021 C 
ENDROOT
BRANCH   1   7
ATOM      4  C   LIG    1       43.803  -1.952  18.106  0.00  0.00    +0.117 A 
ATOM      5  C   LIG    1       42.963  -0.967  18.600  0.00  0.00    +0.046 A 
ATOM      6  C   LIG    1       41.682  -0.800  18.060  0.00  0.00    +0.008 A 
ATOM      7  C   LIG    1       41.228  -1.620  17.013  0.00  0.00    -0.037 A 
ATOM      8  C   LIG    1       42.107  -2.619  16.542  0.00  0.00    +0.008 A 
ATOM      9  C   LIG    1       43.384  -2.788  17.080  0.00  0.00    +0.046 A 
BRANCH   4  10
ATOM     10  O   LIG    1       45.048  -2.064  18.649  0.00  0.00    -0.507 OA
ATOM     11  H   LIG    1       44.967  -2.505  19.510  0.00  0.00    +0.292 HD
ENDBRANCH   4  10
ENDBRANCH   1   7
BRANCH   1  12
ATOM     12  C   LIG    1       39.573   0.076  16.155  0.00  0.00    -0.037 A 
ATOM     13  C   LIG    1       38.752   0.759  17.079  0.00  0.00    +0.008 A 
ATOM     14  C   LIG    1       38.551   2.139  16.993  0.00  0.00    +0.046 A 
ATOM     15  C   LIG    1       39.184   2.864  15.997  0.00  0.00    +0.117 A 
ATOM     16  C   LIG    1       40.000   2.228  15.071  0.00  0.00    +0.046 A 
ATOM     17  C   LIG    1       40.188   0.844  15.148  0.00  0.00    +0.008 A 
BRANCH  15  18
ATOM     18  O   LIG    1       38.992   4.213  15.971  0.00  0.00    -0.507 OA
ATOM     19  H   LIG    1       38.193   4.420  16.480  0.00  0.00    +0.292 HD
ENDBRANCH  15  18
ENDBRANCH   1  12
TORSDOF 4
ENDMDL
MODEL 4
REMARK VINA RESULT:      -7.7      2.240      6.091
REMARK  Name = 
REMARK                            x       y       z     vdW  Elec       q    Type
REMARK                         _______ _______ _______ _____ _____    ______ ____
ROOT
ATOM      1  C   LIG    1       38.439  -0.766  13.746  0.00  0.00    +0.015 C 
ATOM      2  C   LIG    1       37.184  -1.661  13.536  0.00  0.00    +0.021 C 
ATOM      3  C   LIG    1       38.909  -0.418  12.306  0.00  0.00    +0.021 C 
ENDROOT
BRANCH   1   7
ATOM      4  C   LIG    1       41.748  -2.670  15.861  0.00  0.00    +0.117 A 
ATOM      5  C   LIG    1       40.546  -3.348  15.735  0.00  0.00    +0.046 A 
ATOM      6  C   LIG    1       39.480  -2.763  15.042  0.00  0.00    +0.008 A 
ATOM      7  C   LIG    1       39.605  -1.486  14.468  0.00  0.00    -0.037 A 
ATOM      8  C   LIG    1       40.847  -0.830  14.608  0.00  0.00    +0.008 A 
ATOM      9  C   LIG    1       41.913  -1.413  15.297  0.00  0.00    +0.046 A 
BRANCH   4  10
ATOM     10  O   LIG    1       42.752  -3.271  16.560  0.00  0.00    -0.507 OA
ATOM     11  H   LIG    1       43.349  -2.581  16.893  0.00  0.00    +0.292 HD
ENDBRANCH   4  10
ENDBRANCH   1   7
BRANCH   1  12
ATOM     12  C   LIG    1       38.028   0.476  14.577  0.00  0.00    -0.037 A 
ATOM     13  C   LIG    1       37.967   1.745  13.962  0.00  0.00    +0.008 A 
ATOM     14  C   LIG    1       37.524   2.872  14.658  0.00  0.00    +0.046 A 
ATOM     15  C   LIG    1       37.110   2.746  15.974  0.00  0.00    +0.117 A 
ATOM     16  C   LIG    1       37.153   1.515  16.613  0.00  0.00    +0.046 A 
ATOM     17  C   LIG    1       37.614   0.390  15.920  0.00  0.00    +0.008 A 
BRANCH  15  18
ATOM     18  O   LIG    1       36.648   3.862  16.606  0.00  0.00    -0.507 OA
ATOM     19  H   LIG    1       36.605   3.681  17.559  0.00  0.00    +0.292 HD
ENDBRANCH  15  18
ENDBRANCH   1  12
TORSDOF 4
ENDMDL
MODEL 5
REMARK VINA RESULT:      -7.7      1.830      6.086
REMARK  Name = 
REMARK                            x       y       z     vdW  Elec       q    Type
REMARK                         _______ _______ _______ _____ _____    ______ ____
ROOT
ATOM      1  C   LIG    1       38.683   0.160  15.783  0.00  0.00    +0.015 C 
ATOM      2  C   LIG    1       37.620  -0.913  16.149  0.00  0.00    +0.021 C 
ATOM      3  C   LIG    1       38.941  -0.054  14.266  0.00  0.00    +0.021 C 
ENDROOT
BRANCH   1   7
ATOM      4  C   LIG    1       42.425  -0.467  17.941  0.00  0.00    +0.117 A 
ATOM      5  C   LIG    1       42.464  -0.199  16.581  0.00  0.00    +0.046 A 
ATOM      6  C   LIG    1       41.276   0.025  15.876  0.00  0.00    +0.008 A 
ATOM      7  C   LIG    1       40.031  -0.018  16.526  0.00  0.00    -0.037 A 
ATOM      8  C   LIG    1       40.031  -0.283  17.913  0.00  0.00    +0.008 A 
ATOM      9  C   LIG    1       41.215  -0.506  18.619  0.00  0.00    +0.046 A 
BRANCH   4  10
ATOM     10  O   LIG    1       43.606  -0.698  18.582  0.00  0.00    -0.507 OA
ATOM     11  H   LIG    1       44.230   0.003  18.336  0.00  0.00    +0.292 HD
ENDBRANCH   4  10
ENDBRANCH   1   7
BRANCH   1  12
ATOM     12  C   LIG    1       38.109   1.561  16.118  0.00  0.00    -0.037 A 
ATOM     13  C   LIG    1       38.567   2.696  15.415  0.00  0.00    +0.008 A 
ATOM     14  C   LIG    1       38.016   3.960  15.633  0.00  0.00    +0.046 A 
ATOM     15  C   LIG    1       36.980   4.109  16.542  0.00  0.00    +0.117 A 
ATOM     16  C   LIG    1       36.502   3.017  17.252  0.00  0.00    +0.046 A 
ATOM     17  C   LIG    1       37.067   1.753  17.045  0.00  0.00    +0.008 A 
BRANCH  15  18
ATOM     18  O   LIG    1       36.444   5.352  16.698  0.00  0.00    -0.507 OA
ATOM     19  H   LIG    1       36.284   5.502  17.643  0.00  0.00    +0.292 HD
ENDBRANCH  15  18
ENDBRANCH   1  12
TORSDOF 4
ENDMDL
MODEL 6
REMARK VINA RESULT:      -7.7      2.243      3.187
REMARK  Name = 
REMARK                            x       y       z     vdW  Elec       q    Type
REMARK                         _______ _______ _______ _____ _____    ______ ____
ROOT
ATOM      1  C   LIG    1       38.415  -0.706  13.759  0.00  0.00    +0.015 C 
ATOM      2  C   LIG    1       38.904  -0.405  12.314  0.00  0.00    +0.021 C 
ATOM      3  C   LIG    1       37.195  -1.649  13.565  0.00  0.00    +0.021 C 
ENDROOT
BRANCH   1   7
ATOM      4  C   LIG    1       37.140   2.792  16.038  0.00  0.00    +0.117 A 
ATOM      5  C   LIG    1       37.516   2.947  14.713  0.00  0.00    +0.046 A 
ATOM      6  C   LIG    1       37.908   1.835  13.960  0.00  0.00    +0.008 A 
ATOM      7  C   LIG    1       37.930   0.549  14.528  0.00  0.00    -0.037 A 
ATOM      8  C   LIG    1       37.531   0.428  15.877  0.00  0.00    +0.008 A 
ATOM      9  C   LIG    1       37.138   1.537  16.630  0.00  0.00    +0.046 A 
BRANCH   4  10
ATOM     10  O   LIG    1       36.784   3.906  16.738  0.00  0.00    -0.507 OA
ATOM     11  H   LIG    1       36.680   4.641  16.112  0.00  0.00    +0.292 HD
ENDBRANCH   4  10
ENDBRANCH   1   7
BRANCH   1  12
ATOM     12  C   LIG    1       39.577  -1.358  14.551  0.00  0.00    -0.037 A 
ATOM     13  C   LIG    1       39.440  -2.672  15.048  0.00  0.00    +0.008 A 
ATOM     14  C   LIG    1       40.494  -3.320  15.694  0.00  0.00    +0.046 A 
ATOM     15  C   LIG    1       41.713  -2.676  15.835  0.00  0.00    +0.117 A 
ATOM     16  C   LIG    1       41.887  -1.385  15.357  0.00  0.00    +0.046 A 
ATOM     17  C   LIG    1       40.825  -0.730  14.725  0.00  0.00    +0.008 A 
BRANCH  15  18
ATOM     18  O   LIG    1       42.728  -3.358  16.437  0.00  0.00    -0.507 OA
ATOM     19  H   LIG    1       43.571  -2.996  16.122  0.00  0.00    +0.292 HD
ENDBRANCH  15  18
ENDBRANCH   1  12
TORSDOF 4
ENDMDL
MODEL 7
REMARK VINA RESULT:      -7.6      3.224      4.331
REMARK  Name = 
REMARK                            x       y       z     vdW  Elec       q    Type
REMARK                         _______ _______ _______ _____ _____    ______ ____
ROOT
ATOM      1  C   LIG    1       42.846  -1.316  17.225  0.00  0.00    +0.015 C 
ATOM      2  C   LIG    1       42.183  -1.032  18.603  0.00  0.00    +0.021 C 
ATOM      3  C   LIG    1       43.521   0.030  16.838  0.00  0.00    +0.021 C 
ENDROOT
BRANCH   1   7
ATOM      4  C   LIG    1       39.887  -2.309  14.175  0.00  0.00    +0.117 A 
ATOM      5  C   LIG    1       40.972  -1.516  13.833  0.00  0.00    +0.046 A 
ATOM      6  C   LIG    1       41.942  -1.204  14.793  0.00  0.00    +0.008 A 
ATOM      7  C   LIG    1       41.836  -1.682  16.110  0.00  0.00    -0.037 A 
ATOM      8  C   LIG    1       40.723  -2.494  16.418  0.00  0.00    +0.008 A 
ATOM      9  C   LIG    1       39.754  -2.809  15.463  0.00  0.00    +0.046 A 
BRANCH   4  10
ATOM     10  O   LIG    1       38.957  -2.571  13.213  0.00  0.00    -0.507 OA
ATOM     11  H   LIG    1       38.125  -2.813  13.651  0.00  0.00    +0.292 HD
ENDBRANCH   4  10
ENDBRANCH   1   7
BRANCH   1  12
ATOM     12  C   LIG    1       43.853  -2.483  17.391  0.00  0.00    -0.037 A 
ATOM     13  C   LIG    1       43.740  -3.630  16.576  0.00  0.00    +0.008 A 
ATOM     14  C   LIG    1       44.676  -4.665  16.641  0.00  0.00    +0.046 A 
ATOM     15  C   LIG    1       45.754  -4.562  17.505  0.00  0.00    +0.117 A 
ATOM     16  C   LIG    1       45.899  -3.449  18.322  0.00  0.00    +0.046 A 
ATOM     17  C   LIG    1       44.952  -2.420  18.268  0.00  0.00    +0.008 A 
BRANCH  15  18
ATOM     18  O   LIG    1       46.665  -5.575  17.511  0.00  0.00    -0.507 OA
ATOM     19  H   LIG    1       46.516  -6.119  18.300  0.00  0.00    +0.292 HD
ENDBRANCH  15  18
ENDBRANCH   1  12
TORSDOF 4
ENDMDL
MODEL 8
REMARK VINA RESULT:      -7.6      2.453      6.571
REMARK  Name = 
REMARK                            x       y       z     vdW  Elec       q    Type
REMARK                         _______ _______ _______ _____ _____    ______ ____
ROOT
ATOM      1  C   LIG    1       44.178  -1.612  18.392  0.00  0.00    +0.015 C 
ATOM      2  C   LIG    1       45.377  -0.656  18.136  0.00  0.00    +0.021 C 
ATOM      3  C   LIG    1       44.255  -1.927  19.912  0.00  0.00    +0.021 C 
ENDROOT
BRANCH   1   7
ATOM      4  C   LIG    1       44.406  -5.316  16.094  0.00  0.00    +0.117 A 
ATOM      5  C   LIG    1       45.447  -4.982  16.946  0.00  0.00    +0.046 A 
ATOM      6  C   LIG    1       45.383  -3.808  17.706  0.00  0.00    +0.008 A 
ATOM      7  C   LIG    1       44.272  -2.952  17.621  0.00  0.00    -0.037 A 
ATOM      8  C   LIG    1       43.226  -3.330  16.751  0.00  0.00    +0.008 A 
ATOM      9  C   LIG    1       43.287  -4.501  15.993  0.00  0.00    +0.046 A 
BRANCH   4  10
ATOM     10  O   LIG    1       44.520  -6.458  15.359  0.00  0.00    -0.507 OA
ATOM     11  H   LIG    1       45.317  -6.388  14.809  0.00  0.00    +0.292 HD
ENDBRANCH   4  10
ENDBRANCH   1   7
BRANCH   1  12
ATOM     12  C   LIG    1       42.870  -0.888  17.978  0.00  0.00    -0.037 A 
ATOM     13  C   LIG    1       42.746  -0.347  16.681  0.00  0.00    +0.008 A 
ATOM     14  C   LIG    1       41.555   0.239  16.247  0.00  0.00    +0.046 A 
ATOM     15  C   LIG    1       40.459   0.274  17.094  0.00  0.00    +0.117 A 
ATOM     16  C   LIG    1       40.542  -0.250  18.377  0.00  0.00    +0.046 A 
ATOM     17  C   LIG    1       41.741  -0.822  18.816  0.00  0.00    +0.008 A 
BRANCH  15  18
ATOM     18  O   LIG    1       39.304   0.820  16.619  0.00  0.00    -0.507 OA
ATOM     19  H   LIG    1       39.500   1.279  15.787  0.00  0.00    +0.292 HD
ENDBRANCH  15  18
ENDBRANCH   1  12
TORSDOF 4
ENDMDL
MODEL 9
REMARK VINA RESULT:      -7.6      1.654      1.976
REMARK  Name = 
REMARK                            x       y       z     vdW  Elec       q    Type
REMARK                         _______ _______ _______ _____ _____    ______ ____
ROOT
ATOM      1  C   LIG    1       40.284  -1.677  15.852  0.00  0.00    +0.015 C 
ATOM      2  C   LIG    1       39.803  -2.981  15.155  0.00  0.00    +0.021 C 
ATOM      3  C   LIG    1       39.537  -1.671  17.215  0.00  0.00    +0.021 C 
ENDROOT
BRANCH   1   7
ATOM      4  C   LIG    1       39.056   1.918  13.703  0.00  0.00    +0.117 A 
ATOM      5  C   LIG    1       39.854   2.042  14.830  0.00  0.00    +0.046 A 
ATOM      6  C   LIG    1       40.274   0.899  15.521  0.00  0.00    +0.008 A 
ATOM      7  C   LIG    1       39.899  -0.385  15.090  0.00  0.00    -0.037 A 
ATOM      8  C   LIG    1       39.095  -0.472  13.933  0.00  0.00    +0.008 A 
ATOM      9  C   LIG    1       38.675   0.666  13.242  0.00  0.00    +0.046 A 
BRANCH   4  10
ATOM     10  O   LIG    1       38.654   3.058  13.075  0.00  0.00    -0.507 OA
ATOM     11  H   LIG    1       37.991   3.498  13.632  0.00  0.00    +0.292 HD
ENDBRANCH   4  10
ENDBRANCH   1   7
BRANCH   1  12
ATOM     12  C   LIG    1       41.827  -1.732  15.996  0.00  0.00    -0.037 A 
ATOM     13  C   LIG    1       42.409  -1.910  17.269  0.00  0.00    +0.008 A 
ATOM     14  C   LIG    1       43.790  -2.045  17.426  0.00  0.00    +0.046 A 
ATOM     15  C   LIG    1       44.613  -2.028  16.312  0.00  0.00    +0.117 A 
ATOM     16  C   LIG    1       44.077  -1.856  15.043  0.00  0.00    +0.046 A 
ATOM     17  C   LIG    1       42.695  -1.704  14.888  0.00  0.00    +0.008 A 
BRANCH  15  18
ATOM     18  O   LIG    1       45.951  -2.201  16.504  0.00  0.00    -0.507 OA
ATOM     19  H   LIG    1       46.324  -1.370  16.838  0.00  0.00    +0.292 HD
ENDBRANCH  15  18
ENDBRANCH   1  12
TORSDOF 4
ENDMDL
