MODEL 1
REMARK VINA RESULT:      -7.6      0.000      0.000
REMARK  Name = 
REMARK                            x       y       z     vdW  Elec       q    Type
REMARK                         _______ _______ _______ _____ _____    ______ ____
ROOT
ATOM      1  C   LIG    1       38.790  30.432   8.300  0.00  0.00    +0.015 C 
ATOM      2  C   LIG    1       39.587  29.884   7.082  0.00  0.00    +0.021 C 
ATOM      3  C   LIG    1       37.462  29.624   8.286  0.00  0.00    +0.021 C 
ENDROOT
BRANCH   1   7
ATOM      4  C   LIG    1       37.761  34.648   7.839  0.00  0.00    +0.117 A 
ATOM      5  C   LIG    1       37.225  33.932   8.898  0.00  0.00    +0.046 A 
ATOM      6  C   LIG    1       37.559  32.584   9.074  0.00  0.00    +0.008 A 
ATOM      7  C   LIG    1       38.436  31.936   8.188  0.00  0.00    -0.037 A 
ATOM      8  C   LIG    1       38.970  32.699   7.127  0.00  0.00    +0.008 A 
ATOM      9  C   LIG    1       38.639  34.045   6.950  0.00  0.00    +0.046 A 
BRANCH   4  10
ATOM     10  O   LIG    1       37.391  35.952   7.695  0.00  0.00    -0.507 OA
ATOM     11  H   LIG    1       36.627  35.990   7.098  0.00  0.00    +0.292 HD
ENDBRANCH   4  10
ENDBRANCH   1   7
BRANCH   1  12
ATOM     12  C   LIG    1       39.632  30.211   9.583  0.00  0.00    -0.037 A 
ATOM     13  C   LIG    1       39.051  29.584  10.706  0.00  0.00    +0.008 A 
ATOM     14  C   LIG    1       39.801  29.296  11.848  0.00  0.00    +0.046 A 
ATOM     15  C   LIG    1       41.150  29.607  11.880  0.00  0.00    +0.117 A 
ATOM     16  C   LIG    1       41.758  30.223  10.794  0.00  0.00    +0.046 A 
ATOM     17  C   LIG    1       41.002  30.526   9.656  0.00  0.00    +0.008 A 
BRANCH  15  18
ATOM     18  O   LIG    1       41.855  29.275  12.998  0.00  0.00    -0.507 OA
ATOM     19  H   LIG    1       41.500  28.444  13.350  0.00  0.00    +0.292 HD
ENDBRANCH  15  18
ENDBRANCH   1  12
TORSDOF 4
ENDMDL
MODEL 2
REMARK VINA RESULT:      -7.5      0.045      5.769
REMARK  Name = 
REMARK                            x       y       z     vdW  Elec       q    Type
REMARK                         _______ _______ _______ _____ _____    ______ ____
ROOT
ATOM      1  C   LIG    1       38.812  30.423   8.295  0.00  0.00    +0.015 C 
ATOM      2  C   LIG    1       37.486  29.611   8.265  0.00  0.00    +0.021 C 
ATOM      3  C   LIG    1       39.613  29.898   7.070  0.00  0.00    +0.021 C 
ENDROOT
BRANCH   1   7
ATOM      4  C   LIG    1       41.168  29.587  11.873  0.00  0.00    +0.117 A 
ATOM      5  C   LIG    1       41.770  30.225  10.800  0.00  0.00    +0.046 A 
ATOM      6  C   LIG    1       41.026  30.520   9.652  0.00  0.00    +0.008 A 
ATOM      7  C   LIG    1       39.666  30.177   9.564  0.00  0.00    -0.037 A 
ATOM      8  C   LIG    1       39.084  29.537  10.680  0.00  0.00    +0.008 A 
ATOM      9  C   LIG    1       39.824  29.244  11.828  0.00  0.00    +0.046 A 
BRANCH   4  10
ATOM     10  O   LIG    1       41.937  29.302  12.962  0.00  0.00    -0.507 OA
ATOM     11  H   LIG    1       42.700  29.902  12.963  0.00  0.00    +0.292 HD
ENDBRANCH   4  10
ENDBRANCH   1   7
BRANCH   1  12
ATOM     12  C   LIG    1       38.472  31.933   8.207  0.00  0.00    -0.037 A 
ATOM     13  C   LIG    1       38.974  32.706   7.138  0.00  0.00    +0.008 A 
ATOM     14  C   LIG    1       38.623  34.049   6.982  0.00  0.00    +0.046 A 
ATOM     15  C   LIG    1       37.744  34.636   7.878  0.00  0.00    +0.117 A 
ATOM     16  C   LIG    1       37.228  33.908   8.940  0.00  0.00    +0.046 A 
ATOM     17  C   LIG    1       37.594  32.567   9.106  0.00  0.00    +0.008 A 
BRANCH  15  18
ATOM     18  O   LIG    1       37.396  35.937   7.669  0.00  0.00    -0.507 OA
ATOM     19  H   LIG    1       36.516  36.086   8.049  0.00  0.00    +0.292 HD
ENDBRANCH  15  18
ENDBRANCH   1  12
TORSDOF 4
ENDMDL
MODEL 3
REMARK VINA RESULT:      -7.3      2.677      6.811
REMARK  Name = 
REMARK                            x       y       z     vdW  Elec       q    Type
REMARK                         _______ _______ _______ _____ _____    ______ ____
ROOT
ATOM      1  C   LIG    1       37.792  33.505   7.743  0.00  0.00    +0.015 C 
ATOM      2  C   LIG    1       37.841  34.230   9.118  0.00  0.00    +0.021 C 
ATOM      3  C   LIG    1       36.459  32.705   7.777  0.00  0.00    +0.021 C 
ENDROOT
BRANCH   1   7
ATOM      4  C   LIG    1       40.958  30.554   7.179  0.00  0.00    +0.117 A 
ATOM      5  C   LIG    1       40.707  31.478   6.176  0.00  0.00    +0.046 A 
ATOM      6  C   LIG    1       39.709  32.445   6.347  0.00  0.00    +0.008 A 
ATOM      7  C   LIG    1       38.948  32.497   7.527  0.00  0.00    -0.037 A 
ATOM      8  C   LIG    1       39.239  31.547   8.530  0.00  0.00    +0.008 A 
ATOM      9  C   LIG    1       40.235  30.582   8.363  0.00  0.00    +0.046 A 
BRANCH   4  10
ATOM     10  O   LIG    1       41.925  29.619   6.960  0.00  0.00    -0.507 OA
ATOM     11  H   LIG    1       42.319  29.785   6.089  0.00  0.00    +0.292 HD
ENDBRANCH   4  10
ENDBRANCH   1   7
BRANCH   1  12
ATOM     12  C   LIG    1       37.841  34.571   6.618  0.00  0.00    -0.037 A 
ATOM     13  C   LIG    1       37.337  34.264   5.336  0.00  0.00    +0.008 A 
ATOM     14  C   LIG    1       37.292  35.224   4.322  0.00  0.00    +0.046 A 
ATOM     15  C   LIG    1       37.727  36.514   4.579  0.00  0.00    +0.117 A 
ATOM     16  C   LIG    1       38.227  36.854   5.829  0.00  0.00    +0.046 A 
ATOM     17  C   LIG    1       38.288  35.888   6.838  0.00  0.00    +0.008 A 
BRANCH  15  18
ATOM     18  O   LIG    1       37.630  37.431   3.576  0.00  0.00    -0.507 OA
ATOM     19  H   LIG    1       37.117  38.189   3.900  0.00  0.00    +0.292 HD
ENDBRANCH  15  18
ENDBRANCH   1  12
TORSDOF 4
ENDMDL
MODEL 4
REMARK VINA RESULT:      -7.3      2.702      4.077
REMARK  Name = 
REMARK                            x       y       z     vdW  Elec       q    Type
REMARK                         _______ _______ _______ _____ _____    ______ ____
ROOT
ATOM      1  C   LIG    1       37.784  33.491   7.738  0.00  0.00    +0.015 C 
ATOM      2  C   LIG    1       36.463  32.672   7.785  0.00  0.00    +0.021 C 
ATOM      3  C   LIG    1       37.834  34.220   9.110  0.00  0.00    +0.021 C 
ENDROOT
BRANCH   1   7
ATOM      4  C   LIG    1       37.719  36.489   4.567  0.00  0.00    +0.117 A 
ATOM      5  C   LIG    1       38.215  36.834   5.815  0.00  0.00    +0.046 A 
ATOM      6  C   LIG    1       38.263  35.880   6.839  0.00  0.00    +0.008 A 
ATOM      7  C   LIG    1       37.812  34.567   6.624  0.00  0.00    -0.037 A 
ATOM      8  C   LIG    1       37.323  34.250   5.338  0.00  0.00    +0.008 A 
ATOM      9  C   LIG    1       37.276  35.199   4.315  0.00  0.00    +0.046 A 
BRANCH   4  10
ATOM     10  O   LIG    1       37.673  37.456   3.607  0.00  0.00    -0.507 OA
ATOM     11  H   LIG    1       37.054  37.171   2.916  0.00  0.00    +0.292 HD
ENDBRANCH   4  10
ENDBRANCH   1   7
BRANCH   1  12
ATOM     12  C   LIG    1       38.966  32.512   7.517  0.00  0.00    -0.037 A 
ATOM     13  C   LIG    1       39.285  31.559   8.508  0.00  0.00    +0.008 A 
ATOM     14  C   LIG    1       40.290  30.610   8.309  0.00  0.00    +0.046 A 
ATOM     15  C   LIG    1       40.978  30.581   7.107  0.00  0.00    +0.117 A 
ATOM     16  C   LIG    1       40.692  31.501   6.108  0.00  0.00    +0.046 A 
ATOM     17  C   LIG    1       39.697  32.462   6.315  0.00  0.00    +0.008 A 
BRANCH  15  18
ATOM     18  O   LIG    1       41.925  29.615   6.937  0.00  0.00    -0.507 OA
ATOM     19  H   LIG    1       41.704  28.864   7.510  0.00  0.00    +0.292 HD
ENDBRANCH  15  18
ENDBRANCH   1  12
TORSDOF 4
ENDMDL
MODEL 5
REMARK VINA RESULT:      -6.8      1.559      1.814
REMARK  Name = 
REMARK                            x       y       z     vdW  Elec       q    Type
REMARK                         _______ _______ _______ _____ _____    ______ ____
ROOT
ATOM      1  C   LIG    1       38.732  29.480   9.018  0.00  0.00    +0.015 C 
ATOM      2  C   LIG    1       38.437  28.353   7.988  0.00  0.00    +0.021 C 
ATOM      3  C   LIG    1       37.543  29.409  10.017  0.00  0.00    +0.021 C 
ENDROOT
BRANCH   1   7
ATOM      4  C   LIG    1       38.791  33.420   7.141  0.00  0.00    +0.117 A 
ATOM      5  C   LIG    1       37.884  33.168   8.159  0.00  0.00    +0.046 A 
ATOM      6  C   LIG    1       37.864  31.917   8.787  0.00  0.00    +0.008 A 
ATOM      7  C   LIG    1       38.753  30.900   8.401  0.00  0.00    -0.037 A 
ATOM      8  C   LIG    1       39.669  31.196   7.368  0.00  0.00    +0.008 A 
ATOM      9  C   LIG    1       39.692  32.444   6.741  0.00  0.00    +0.046 A 
BRANCH   4  10
ATOM     10  O   LIG    1       38.760  34.645   6.545  0.00  0.00    -0.507 OA
ATOM     11  H   LIG    1       38.332  34.554   5.679  0.00  0.00    +0.292 HD
ENDBRANCH   4  10
ENDBRANCH   1   7
BRANCH   1  12
ATOM     12  C   LIG    1       40.107  29.201   9.677  0.00  0.00    -0.037 A 
ATOM     13  C   LIG    1       40.531  29.977  10.777  0.00  0.00    +0.008 A 
ATOM     14  C   LIG    1       41.726  29.703  11.446  0.00  0.00    +0.046 A 
ATOM     15  C   LIG    1       42.507  28.632  11.043  0.00  0.00    +0.117 A 
ATOM     16  C   LIG    1       42.123  27.844   9.967  0.00  0.00    +0.046 A 
ATOM     17  C   LIG    1       40.934  28.130   9.286  0.00  0.00    +0.008 A 
BRANCH  15  18
ATOM     18  O   LIG    1       43.646  28.374  11.746  0.00  0.00    -0.507 OA
ATOM     19  H   LIG    1       43.787  29.095  12.379  0.00  0.00    +0.292 HD
ENDBRANCH  15  18
ENDBRANCH   1  12
TORSDOF 4
ENDMDL
MODEL 6
REMARK VINA RESULT:      -6.7      1.630      5.832
REMARK  Name = 
REMARK                            x       y       z     vdW  Elec       q    Type
REMARK                         _______ _______ _______ _____ _____    ______ ____
ROOT
ATOM      1  C   LIG    1       38.772  29.231   9.249  0.00  0.00    +0.015 C 
ATOM      2  C   LIG    1       37.608  29.279  10.279  0.00  0.00    +0.021 C 
ATOM      3  C   LIG    1       38.454  27.992   8.366  0.00  0.00    +0.021 C 
ENDROOT
BRANCH   1   7
ATOM      4  C   LIG    1       42.635  28.646  11.196  0.00  0.00    +0.117 A 
ATOM      5  C   LIG    1       42.197  27.716  10.265  0.00  0.00    +0.046 A 
ATOM      6  C   LIG    1       40.971  27.897   9.616  0.00  0.00    +0.008 A 
ATOM      7  C   LIG    1       40.165  29.014   9.892  0.00  0.00    -0.037 A 
ATOM      8  C   LIG    1       40.647  29.945  10.838  0.00  0.00    +0.008 A 
ATOM      9  C   LIG    1       41.871  29.767  11.487  0.00  0.00    +0.046 A 
BRANCH   4  10
ATOM     10  O   LIG    1       43.826  28.418  11.818  0.00  0.00    -0.507 OA
ATOM     11  H   LIG    1       43.830  28.906  12.658  0.00  0.00    +0.292 HD
ENDBRANCH   4  10
ENDBRANCH   1   7
BRANCH   1  12
ATOM     12  C   LIG    1       38.789  30.564   8.458  0.00  0.00    -0.037 A 
ATOM     13  C   LIG    1       37.888  31.596   8.797  0.00  0.00    +0.008 A 
ATOM     14  C   LIG    1       37.929  32.838   8.160  0.00  0.00    +0.046 A 
ATOM     15  C   LIG    1       38.887  33.079   7.189  0.00  0.00    +0.117 A 
ATOM     16  C   LIG    1       39.791  32.090   6.829  0.00  0.00    +0.046 A 
ATOM     17  C   LIG    1       39.739  30.840   7.456  0.00  0.00    +0.008 A 
BRANCH  15  18
ATOM     18  O   LIG    1       38.918  34.317   6.619  0.00  0.00    -0.507 OA
ATOM     19  H   LIG    1       39.844  34.596   6.539  0.00  0.00    +0.292 HD
ENDBRANCH  15  18
ENDBRANCH   1  12
TORSDOF 4
ENDMDL
MODEL 7
REMARK VINA RESULT:      -6.6      3.555      6.883
REMARK  Name = 
REMARK                            x       y       z     vdW  Elec       q    Type
REMARK                         _______ _______ _______ _____ _____    ______ ____
ROOT
ATOM      1  C   LIG    1       41.037  28.838  10.231  0.00  0.00    +0.015 C 
ATOM      2  C   LIG    1       41.903  28.212   9.101  0.00  0.00    +0.021 C 
ATOM      3  C   LIG    1       41.688  30.225  10.491  0.00  0.00    +0.021 C 
ENDROOT
BRANCH   1   7
ATOM      4  C   LIG    1       41.233  26.497  13.909  0.00  0.00    +0.117 A 
ATOM      5  C   LIG    1       41.298  27.879  13.982  0.00  0.00    +0.046 A 
ATOM      6  C   LIG    1       41.216  28.648  12.815  0.00  0.00    +0.008 A 
ATOM      7  C   LIG    1       41.069  28.039  11.558  0.00  0.00    -0.037 A 
ATOM      8  C   LIG    1       40.997  26.630  11.523  0.00  0.00    +0.008 A 
ATOM      9  C   LIG    1       41.076  25.860  12.686  0.00  0.00    +0.046 A 
BRANCH   4  10
ATOM     10  O   LIG    1       41.337  25.788  15.069  0.00  0.00    -0.507 OA
ATOM     11  H   LIG    1       41.128  24.859  14.880  0.00  0.00    +0.292 HD
ENDBRANCH   4  10
ENDBRANCH   1   7
BRANCH   1  12
ATOM     12  C   LIG    1       39.570  28.929   9.738  0.00  0.00    -0.037 A 
ATOM     13  C   LIG    1       39.282  28.823   8.361  0.00  0.00    +0.008 A 
ATOM     14  C   LIG    1       37.967  28.820   7.889  0.00  0.00    +0.046 A 
ATOM     15  C   LIG    1       36.916  28.898   8.788  0.00  0.00    +0.117 A 
ATOM     16  C   LIG    1       37.159  29.002  10.150  0.00  0.00    +0.046 A 
ATOM     17  C   LIG    1       38.476  29.023  10.620  0.00  0.00    +0.008 A 
BRANCH  15  18
ATOM     18  O   LIG    1       35.648  28.853   8.290  0.00  0.00    -0.507 OA
ATOM     19  H   LIG    1       35.037  29.168   8.975  0.00  0.00    +0.292 HD
ENDBRANCH  15  18
ENDBRANCH   1  12
TORSDOF 4
ENDMDL
MODEL 8
REMARK VINA RESULT:      -6.6      3.646      4.555
REMARK  Name = 
REMARK                            x       y       z     vdW  Elec       q    Type
REMARK                         _______ _______ _______ _____ _____    ______ ____
ROOT
ATOM      1  C   LIG    1       41.060  28.814  10.249  0.00  0.00    +0.015 C 
ATOM      2  C   LIG    1       41.658  30.218  10.543  0.00  0.00    +0.021 C 
ATOM      3  C   LIG    1       41.905  28.276   9.060  0.00  0.00    +0.021 C 
ENDROOT
BRANCH   1   7
ATOM      4  C   LIG    1       36.906  28.788   8.909  0.00  0.00    +0.117 A 
ATOM      5  C   LIG    1       37.181  28.940  10.259  0.00  0.00    +0.046 A 
ATOM      6  C   LIG    1       38.507  28.971  10.705  0.00  0.00    +0.008 A 
ATOM      7  C   LIG    1       39.577  28.848   9.802  0.00  0.00    -0.037 A 
ATOM      8  C   LIG    1       39.259  28.705   8.434  0.00  0.00    +0.008 A 
ATOM      9  C   LIG    1       37.936  28.675   7.986  0.00  0.00    +0.046 A 
BRANCH   4  10
ATOM     10  O   LIG    1       35.600  28.743   8.523  0.00  0.00    -0.507 OA
ATOM     11  H   LIG    1       35.203  27.931   8.879  0.00  0.00    +0.292 HD
ENDBRANCH   4  10
ENDBRANCH   1   7
BRANCH   1  12
ATOM     12  C   LIG    1       41.177  27.947  11.528  0.00  0.00    -0.037 A 
ATOM     13  C   LIG    1       41.379  28.565  12.781  0.00  0.00    +0.008 A 
ATOM     14  C   LIG    1       41.408  27.823  13.964  0.00  0.00    +0.046 A 
ATOM     15  C   LIG    1       41.212  26.452  13.918  0.00  0.00    +0.117 A 
ATOM     16  C   LIG    1       41.008  25.808  12.706  0.00  0.00    +0.046 A 
ATOM     17  C   LIG    1       40.996  26.550  11.520  0.00  0.00    +0.008 A 
BRANCH  15  18
ATOM     18  O   LIG    1       41.209  25.769  15.098  0.00  0.00    -0.507 OA
ATOM     19  H   LIG    1       41.994  26.029  15.606  0.00  0.00    +0.292 HD
ENDBRANCH  15  18
ENDBRANCH   1  12
TORSDOF 4
ENDMDL
MODEL 9
REMARK VINA RESULT:      -6.5      2.231      3.332
REMARK  Name = 
REMARK                            x       y       z     vdW  Elec       q    Type
REMARK                         _______ _______ _______ _____ _____    ______ ____
ROOT
ATOM      1  C   LIG    1       39.093  28.567  10.062  0.00  0.00    +0.015 C 
ATOM      2  C   LIG    1       38.880  27.080   9.661  0.00  0.00    +0.021 C 
ATOM      3  C   LIG    1       37.741  28.992  10.701  0.00  0.00    +0.021 C 
ENDROOT
BRANCH   1   7
ATOM      4  C   LIG    1       39.953  31.295   6.765  0.00  0.00    +0.117 A 
ATOM      5  C   LIG    1       40.097  29.930   6.570  0.00  0.00    +0.046 A 
ATOM      6  C   LIG    1       39.807  29.038   7.609  0.00  0.00    +0.008 A 
ATOM      7  C   LIG    1       39.368  29.505   8.860  0.00  0.00    -0.037 A 
ATOM      8  C   LIG    1       39.224  30.900   9.019  0.00  0.00    +0.008 A 
ATOM      9  C   LIG    1       39.512  31.792   7.983  0.00  0.00    +0.046 A 
BRANCH   4  10
ATOM     10  O   LIG    1       40.267  32.126   5.731  0.00  0.00    -0.507 OA
ATOM     11  H   LIG    1       41.178  32.437   5.855  0.00  0.00    +0.292 HD
ENDBRANCH   4  10
ENDBRANCH   1   7
BRANCH   1  12
ATOM     12  C   LIG    1       40.290  28.649  11.044  0.00  0.00    -0.037 A 
ATOM     13  C   LIG    1       41.604  28.450  10.570  0.00  0.00    +0.008 A 
ATOM     14  C   LIG    1       42.712  28.595  11.408  0.00  0.00    +0.046 A 
ATOM     15  C   LIG    1       42.527  28.966  12.730  0.00  0.00    +0.117 A 
ATOM     16  C   LIG    1       41.250  29.172  13.233  0.00  0.00    +0.046 A 
ATOM     17  C   LIG    1       40.140  29.010  12.397  0.00  0.00    +0.008 A 
BRANCH  15  18
ATOM     18  O   LIG    1       43.635  29.135  13.505  0.00  0.00    -0.507 OA
ATOM     19  H   LIG    1       44.414  28.871  12.991  0.00  0.00    +0.292 HD
ENDBRANCH  15  18
ENDBRANCH   1  12
TORSDOF 4
ENDMDL
