MODEL 1
REMARK VINA RESULT:      -7.1      0.000      0.000
REMARK  Name = 
REMARK                            x       y       z     vdW  Elec       q    Type
REMARK                         _______ _______ _______ _____ _____    ______ ____
ROOT
ATOM      1  C   LIG    1        8.462  -4.764  21.740  0.00  0.00    +0.015 C 
ATOM      2  C   LIG    1        9.612  -5.336  20.864  0.00  0.00    +0.021 C 
ATOM      3  C   LIG    1        7.466  -5.948  21.889  0.00  0.00    +0.021 C 
ENDROOT
BRANCH   1   7
ATOM      4  C   LIG    1        6.251  -1.421  20.011  0.00  0.00    +0.117 A 
ATOM      5  C   LIG    1        7.632  -1.455  19.889  0.00  0.00    +0.046 A 
ATOM      6  C   LIG    1        8.356  -2.529  20.419  0.00  0.00    +0.008 A 
ATOM      7  C   LIG    1        7.705  -3.584  21.081  0.00  0.00    -0.037 A 
ATOM      8  C   LIG    1        6.298  -3.520  21.176  0.00  0.00    +0.008 A 
ATOM      9  C   LIG    1        5.572  -2.450  20.647  0.00  0.00    +0.046 A 
BRANCH   4  10
ATOM     10  O   LIG    1        5.589  -0.346  19.497  0.00  0.00    -0.507 OA
ATOM     11  H   LIG    1        6.231   0.214  19.031  0.00  0.00    +0.292 HD
ENDBRANCH   4  10
ENDBRANCH   1   7
BRANCH   1  12
ATOM     12  C   LIG    1        9.056  -4.285  23.089  0.00  0.00    -0.037 A 
ATOM     13  C   LIG    1        8.197  -3.970  24.164  0.00  0.00    +0.008 A 
ATOM     14  C   LIG    1        8.700  -3.613  25.417  0.00  0.00    +0.046 A 
ATOM     15  C   LIG    1       10.069  -3.589  25.626  0.00  0.00    +0.117 A 
ATOM     16  C   LIG    1       10.945  -3.894  24.594  0.00  0.00    +0.046 A 
ATOM     17  C   LIG    1       10.442  -4.234  23.334  0.00  0.00    +0.008 A 
BRANCH  15  18
ATOM     18  O   LIG    1       10.518  -3.274  26.874  0.00  0.00    -0.507 OA
ATOM     19  H   LIG    1       10.375  -4.038  27.454  0.00  0.00    +0.292 HD
ENDBRANCH  15  18
ENDBRANCH   1  12
TORSDOF 4
ENDMDL
MODEL 2
REMARK VINA RESULT:      -7.0      0.100      5.415
REMARK  Name = 
REMARK                            x       y       z     vdW  Elec       q    Type
REMARK                         _______ _______ _______ _____ _____    ______ ____
ROOT
ATOM      1  C   LIG    1        8.434  -4.781  21.760  0.00  0.00    +0.015 C 
ATOM      2  C   LIG    1        7.462  -5.987  21.895  0.00  0.00    +0.021 C 
ATOM      3  C   LIG    1        9.591  -5.317  20.871  0.00  0.00    +0.021 C 
ENDROOT
BRANCH   1   7
ATOM      4  C   LIG    1       10.060  -3.570  25.625  0.00  0.00    +0.117 A 
ATOM      5  C   LIG    1       10.930  -3.877  24.591  0.00  0.00    +0.046 A 
ATOM      6  C   LIG    1       10.427  -4.248  23.339  0.00  0.00    +0.008 A 
ATOM      7  C   LIG    1        9.043  -4.317  23.107  0.00  0.00    -0.037 A 
ATOM      8  C   LIG    1        8.188  -3.987  24.180  0.00  0.00    +0.008 A 
ATOM      9  C   LIG    1        8.687  -3.616  25.431  0.00  0.00    +0.046 A 
BRANCH   4  10
ATOM     10  O   LIG    1       10.594  -3.234  26.834  0.00  0.00    -0.507 OA
ATOM     11  H   LIG    1        9.879  -2.912  27.406  0.00  0.00    +0.292 HD
ENDBRANCH   4  10
ENDBRANCH   1   7
BRANCH   1  12
ATOM     12  C   LIG    1        7.666  -3.594  21.124  0.00  0.00    -0.037 A 
ATOM     13  C   LIG    1        6.258  -3.546  21.199  0.00  0.00    +0.008 A 
ATOM     14  C   LIG    1        5.539  -2.453  20.708  0.00  0.00    +0.046 A 
ATOM     15  C   LIG    1        6.216  -1.379  20.155  0.00  0.00    +0.117 A 
ATOM     16  C   LIG    1        7.601  -1.389  20.065  0.00  0.00    +0.046 A 
ATOM     17  C   LIG    1        8.320  -2.491  20.541  0.00  0.00    +0.008 A 
BRANCH  15  18
ATOM     18  O   LIG    1        5.481  -0.316  19.723  0.00  0.00    -0.507 OA
ATOM     19  H   LIG    1        5.142   0.159  20.498  0.00  0.00    +0.292 HD
ENDBRANCH  15  18
ENDBRANCH   1  12
TORSDOF 4
ENDMDL
MODEL 3
REMARK VINA RESULT:      -7.0      6.379      7.987
REMARK  Name = 
REMARK                            x       y       z     vdW  Elec       q    Type
REMARK                         _______ _______ _______ _____ _____    ______ ____
ROOT
ATOM      1  C   LIG    1        2.017  -1.347  21.830  0.00  0.00    +0.015 C 
ATOM      2  C   LIG    1        3.327  -2.097  21.460  0.00  0.00    +0.021 C 
ATOM      3  C   LIG    1        1.127  -1.480  20.562  0.00  0.00    +0.021 C 
ENDROOT
BRANCH   1   7
ATOM      4  C   LIG    1        2.675   2.914  22.506  0.00  0.00    +0.117 A 
ATOM      5  C   LIG    1        1.387   2.407  22.585  0.00  0.00    +0.046 A 
ATOM      6  C   LIG    1        1.159   1.040  22.391  0.00  0.00    +0.008 A 
ATOM      7  C   LIG    1        2.220   0.162  22.114  0.00  0.00    -0.037 A 
ATOM      8  C   LIG    1        3.519   0.713  22.051  0.00  0.00    +0.008 A 
ATOM      9  C   LIG    1        3.750   2.076  22.245  0.00  0.00    +0.046 A 
BRANCH   4  10
ATOM     10  O   LIG    1        2.847   4.255  22.681  0.00  0.00    -0.507 OA
ATOM     11  H   LIG    1        3.744   4.407  23.019  0.00  0.00    +0.292 HD
ENDBRANCH   4  10
ENDBRANCH   1   7
BRANCH   1  12
ATOM     12  C   LIG    1        1.401  -2.014  23.087  0.00  0.00    -0.037 A 
ATOM     13  C   LIG    1        0.869  -1.212  24.119  0.00  0.00    +0.008 A 
ATOM     14  C   LIG    1        0.235  -1.777  25.228  0.00  0.00    +0.046 A 
ATOM     15  C   LIG    1        0.100  -3.153  25.313  0.00  0.00    +0.117 A 
ATOM     16  C   LIG    1        0.609  -3.975  24.317  0.00  0.00    +0.046 A 
ATOM     17  C   LIG    1        1.259  -3.409  23.215  0.00  0.00    +0.008 A 
BRANCH  15  18
ATOM     18  O   LIG    1       -0.559  -3.663  26.391  0.00  0.00    -0.507 OA
ATOM     19  H   LIG    1       -1.427  -3.234  26.453  0.00  0.00    +0.292 HD
ENDBRANCH  15  18
ENDBRANCH   1  12
TORSDOF 4
ENDMDL
MODEL 4
REMARK VINA RESULT:      -6.9      6.367      8.574
REMARK  Name = 
REMARK                            x       y       z     vdW  Elec       q    Type
REMARK                         _______ _______ _______ _____ _____    ______ ____
ROOT
ATOM      1  C   LIG    1        2.040  -1.343  21.768  0.00  0.00    +0.015 C 
ATOM      2  C   LIG    1        1.178  -1.496  20.484  0.00  0.00    +0.021 C 
ATOM      3  C   LIG    1        3.346  -2.123  21.450  0.00  0.00    +0.021 C 
ENDROOT
BRANCH   1   7
ATOM      4  C   LIG    1        0.121  -3.035  25.304  0.00  0.00    +0.117 A 
ATOM      5  C   LIG    1        0.622  -3.887  24.332  0.00  0.00    +0.046 A 
ATOM      6  C   LIG    1        1.259  -3.364  23.201  0.00  0.00    +0.008 A 
ATOM      7  C   LIG    1        1.400  -1.976  23.029  0.00  0.00    -0.037 A 
ATOM      8  C   LIG    1        0.887  -1.140  24.043  0.00  0.00    +0.008 A 
ATOM      9  C   LIG    1        0.252  -1.660  25.174  0.00  0.00    +0.046 A 
BRANCH   4  10
ATOM     10  O   LIG    1       -0.510  -3.589  26.378  0.00  0.00    -0.507 OA
ATOM     11  H   LIG    1        0.118  -4.172  26.834  0.00  0.00    +0.292 HD
ENDBRANCH   4  10
ENDBRANCH   1   7
BRANCH   1  12
ATOM     12  C   LIG    1        2.273   0.167  22.032  0.00  0.00    -0.037 A 
ATOM     13  C   LIG    1        1.178   1.008  22.322  0.00  0.00    +0.008 A 
ATOM     14  C   LIG    1        1.359   2.355  22.644  0.00  0.00    +0.046 A 
ATOM     15  C   LIG    1        2.639   2.880  22.704  0.00  0.00    +0.117 A 
ATOM     16  C   LIG    1        3.742   2.084  22.427  0.00  0.00    +0.046 A 
ATOM     17  C   LIG    1        3.559   0.739  22.088  0.00  0.00    +0.008 A 
BRANCH  15  18
ATOM     18  O   LIG    1        2.775   4.189  23.059  0.00  0.00    -0.507 OA
ATOM     19  H   LIG    1        3.389   4.242  23.809  0.00  0.00    +0.292 HD
ENDBRANCH  15  18
ENDBRANCH   1  12
TORSDOF 4
ENDMDL
MODEL 5
REMARK VINA RESULT:      -6.7      1.778      5.651
REMARK  Name = 
REMARK                            x       y       z     vdW  Elec       q    Type
REMARK                         _______ _______ _______ _____ _____    ______ ____
ROOT
ATOM      1  C   LIG    1        8.343  -4.591  21.782  0.00  0.00    +0.015 C 
ATOM      2  C   LIG    1        6.803  -4.386  21.841  0.00  0.00    +0.021 C 
ATOM      3  C   LIG    1        8.520  -6.118  21.553  0.00  0.00    +0.021 C 
ENDROOT
BRANCH   1   7
ATOM      4  C   LIG    1       10.306  -3.628  25.559  0.00  0.00    +0.117 A 
ATOM      5  C   LIG    1       11.080  -3.968  24.461  0.00  0.00    +0.046 A 
ATOM      6  C   LIG    1       10.470  -4.260  23.236  0.00  0.00    +0.008 A 
ATOM      7  C   LIG    1        9.073  -4.216  23.096  0.00  0.00    -0.037 A 
ATOM      8  C   LIG    1        8.317  -3.857  24.233  0.00  0.00    +0.008 A 
ATOM      9  C   LIG    1        8.924  -3.563  25.456  0.00  0.00    +0.046 A 
BRANCH   4  10
ATOM     10  O   LIG    1       10.942  -3.371  26.737  0.00  0.00    -0.507 OA
ATOM     11  H   LIG    1       11.135  -4.218  27.171  0.00  0.00    +0.292 HD
ENDBRANCH   4  10
ENDBRANCH   1   7
BRANCH   1  12
ATOM     12  C   LIG    1        8.914  -3.725  20.629  0.00  0.00    -0.037 A 
ATOM     13  C   LIG    1       10.057  -4.159  19.923  0.00  0.00    +0.008 A 
ATOM     14  C   LIG    1       10.551  -3.447  18.828  0.00  0.00    +0.046 A 
ATOM     15  C   LIG    1        9.898  -2.301  18.404  0.00  0.00    +0.117 A 
ATOM     16  C   LIG    1        8.770  -1.844  19.071  0.00  0.00    +0.046 A 
ATOM     17  C   LIG    1        8.286  -2.549  20.179  0.00  0.00    +0.008 A 
BRANCH  15  18
ATOM     18  O   LIG    1       10.389  -1.657  17.308  0.00  0.00    -0.507 OA
ATOM     19  H   LIG    1       10.644  -2.321  16.649  0.00  0.00    +0.292 HD
ENDBRANCH  15  18
ENDBRANCH   1  12
TORSDOF 4
ENDMDL
MODEL 6
REMARK VINA RESULT:      -6.6      1.783      2.439
REMARK  Name = 
REMARK                            x       y       z     vdW  Elec       q    Type
REMARK                         _______ _______ _______ _____ _____    ______ ____
ROOT
ATOM      1  C   LIG    1        8.370  -4.604  21.715  0.00  0.00    +0.015 C 
ATOM      2  C   LIG    1        8.583  -6.128  21.495  0.00  0.00    +0.021 C 
ATOM      3  C   LIG    1        6.825  -4.432  21.746  0.00  0.00    +0.021 C 
ENDROOT
BRANCH   1   7
ATOM      4  C   LIG    1        9.943  -2.249  18.394  0.00  0.00    +0.117 A 
ATOM      5  C   LIG    1        8.812  -1.806  19.062  0.00  0.00    +0.046 A 
ATOM      6  C   LIG    1        8.304  -2.537  20.142  0.00  0.00    +0.008 A 
ATOM      7  C   LIG    1        8.925  -3.724  20.567  0.00  0.00    -0.037 A 
ATOM      8  C   LIG    1       10.080  -4.138  19.869  0.00  0.00    +0.008 A 
ATOM      9  C   LIG    1       10.590  -3.410  18.792  0.00  0.00    +0.046 A 
BRANCH   4  10
ATOM     10  O   LIG    1       10.390  -1.515  17.335  0.00  0.00    -0.507 OA
ATOM     11  H   LIG    1        9.866  -0.699  17.285  0.00  0.00    +0.292 HD
ENDBRANCH   4  10
ENDBRANCH   1   7
BRANCH   1  12
ATOM     12  C   LIG    1        9.061  -4.192  23.039  0.00  0.00    -0.037 A 
ATOM     13  C   LIG    1        8.281  -3.811  24.152  0.00  0.00    +0.008 A 
ATOM     14  C   LIG    1        8.866  -3.511  25.384  0.00  0.00    +0.046 A 
ATOM     15  C   LIG    1       10.240  -3.611  25.533  0.00  0.00    +0.117 A 
ATOM     16  C   LIG    1       11.041  -3.984  24.463  0.00  0.00    +0.046 A 
ATOM     17  C   LIG    1       10.455  -4.267  23.224  0.00  0.00    +0.008 A 
BRANCH  15  18
ATOM     18  O   LIG    1       10.768  -3.348  26.762  0.00  0.00    -0.507 OA
ATOM     19  H   LIG    1       10.064  -3.000  27.332  0.00  0.00    +0.292 HD
ENDBRANCH  15  18
ENDBRANCH   1  12
TORSDOF 4
ENDMDL
MODEL 7
REMARK VINA RESULT:      -6.6      1.675      2.314
REMARK  Name = 
REMARK                            x       y       z     vdW  Elec       q    Type
REMARK                         _______ _______ _______ _____ _____    ______ ____
ROOT
ATOM      1  C   LIG    1        7.855  -4.702  22.368  0.00  0.00    +0.015 C 
ATOM      2  C   LIG    1        7.479  -6.100  21.801  0.00  0.00    +0.021 C 
ATOM      3  C   LIG    1        7.207  -4.673  23.780  0.00  0.00    +0.021 C 
ENDROOT
BRANCH   1   7
ATOM      4  C   LIG    1        6.082  -1.411  20.115  0.00  0.00    +0.117 A 
ATOM      5  C   LIG    1        7.187  -1.166  20.916  0.00  0.00    +0.046 A 
ATOM      6  C   LIG    1        7.782  -2.212  21.629  0.00  0.00    +0.008 A 
ATOM      7  C   LIG    1        7.275  -3.520  21.552  0.00  0.00    -0.037 A 
ATOM      8  C   LIG    1        6.155  -3.734  20.719  0.00  0.00    +0.008 A 
ATOM      9  C   LIG    1        5.560  -2.692  20.004  0.00  0.00    +0.046 A 
BRANCH   4  10
ATOM     10  O   LIG    1        5.524  -0.357  19.454  0.00  0.00    -0.507 OA
ATOM     11  H   LIG    1        6.169  -0.024  18.810  0.00  0.00    +0.292 HD
ENDBRANCH   4  10
ENDBRANCH   1   7
BRANCH   1  12
ATOM     12  C   LIG    1        9.400  -4.578  22.398  0.00  0.00    -0.037 A 
ATOM     13  C   LIG    1       10.053  -4.188  23.587  0.00  0.00    +0.008 A 
ATOM     14  C   LIG    1       11.446  -4.143  23.673  0.00  0.00    +0.046 A 
ATOM     15  C   LIG    1       12.213  -4.511  22.580  0.00  0.00    +0.117 A 
ATOM     16  C   LIG    1       11.608  -4.902  21.393  0.00  0.00    +0.046 A 
ATOM     17  C   LIG    1       10.212  -4.930  21.302  0.00  0.00    +0.008 A 
BRANCH  15  18
ATOM     18  O   LIG    1       13.569  -4.491  22.717  0.00  0.00    -0.507 OA
ATOM     19  H   LIG    1       13.882  -3.589  22.548  0.00  0.00    +0.292 HD
ENDBRANCH  15  18
ENDBRANCH   1  12
TORSDOF 4
ENDMDL
MODEL 8
REMARK VINA RESULT:      -6.6      6.351      8.538
REMARK  Name = 
REMARK                            x       y       z     vdW  Elec       q    Type
REMARK                         _______ _______ _______ _____ _____    ______ ____
ROOT
ATOM      1  C   LIG    1        1.760   0.060  22.944  0.00  0.00    +0.015 C 
ATOM      2  C   LIG    1        2.684   0.973  23.799  0.00  0.00    +0.021 C 
ATOM      3  C   LIG    1        0.542   0.961  22.598  0.00  0.00    +0.021 C 
ENDROOT
BRANCH   1   7
ATOM      4  C   LIG    1        0.138  -3.387  25.074  0.00  0.00    +0.117 A 
ATOM      5  C   LIG    1        1.037  -3.592  24.039  0.00  0.00    +0.046 A 
ATOM      6  C   LIG    1        1.584  -2.499  23.358  0.00  0.00    +0.008 A 
ATOM      7  C   LIG    1        1.234  -1.183  23.705  0.00  0.00    -0.037 A 
ATOM      8  C   LIG    1        0.324  -1.012  24.770  0.00  0.00    +0.008 A 
ATOM      9  C   LIG    1       -0.222  -2.102  25.453  0.00  0.00    +0.046 A 
BRANCH   4  10
ATOM     10  O   LIG    1       -0.384  -4.482  25.696  0.00  0.00    -0.507 OA
ATOM     11  H   LIG    1       -1.290  -4.274  25.973  0.00  0.00    +0.292 HD
ENDBRANCH   4  10
ENDBRANCH   1   7
BRANCH   1  12
ATOM     12  C   LIG    1        2.549  -0.415  21.696  0.00  0.00    -0.037 A 
ATOM     13  C   LIG    1        1.960  -1.330  20.798  0.00  0.00    +0.008 A 
ATOM     14  C   LIG    1        2.608  -1.717  19.623  0.00  0.00    +0.046 A 
ATOM     15  C   LIG    1        3.846  -1.178  19.313  0.00  0.00    +0.117 A 
ATOM     16  C   LIG    1        4.456  -0.273  20.170  0.00  0.00    +0.046 A 
ATOM     17  C   LIG    1        3.814   0.101  21.356  0.00  0.00    +0.008 A 
BRANCH  15  18
ATOM     18  O   LIG    1        4.427  -1.552  18.138  0.00  0.00    -0.507 OA
ATOM     19  H   LIG    1        4.688  -2.484  18.206  0.00  0.00    +0.292 HD
ENDBRANCH  15  18
ENDBRANCH   1  12
TORSDOF 4
ENDMDL
MODEL 9
REMARK VINA RESULT:      -6.6      6.291      7.796
REMARK  Name = 
REMARK                            x       y       z     vdW  Elec       q    Type
REMARK                         _______ _______ _______ _____ _____    ______ ____
ROOT
ATOM      1  C   LIG    1        1.747   0.087  22.894  0.00  0.00    +0.015 C 
ATOM      2  C   LIG    1        0.529   1.019  22.637  0.00  0.00    +0.021 C 
ATOM      3  C   LIG    1        2.741   0.966  23.703  0.00  0.00    +0.021 C 
ENDROOT
BRANCH   1   7
ATOM      4  C   LIG    1        3.885  -1.248  19.331  0.00  0.00    +0.117 A 
ATOM      5  C   LIG    1        2.599  -1.711  19.562  0.00  0.00    +0.046 A 
ATOM      6  C   LIG    1        1.890  -1.278  20.688  0.00  0.00    +0.008 A 
ATOM      7  C   LIG    1        2.463  -0.376  21.600  0.00  0.00    -0.037 A 
ATOM      8  C   LIG    1        3.770   0.082  21.327  0.00  0.00    +0.008 A 
ATOM      9  C   LIG    1        4.479  -0.347  20.203  0.00  0.00    +0.046 A 
BRANCH   4  10
ATOM     10  O   LIG    1        4.545  -1.712  18.232  0.00  0.00    -0.507 OA
ATOM     11  H   LIG    1        5.496  -1.568  18.363  0.00  0.00    +0.292 HD
ENDBRANCH   4  10
ENDBRANCH   1   7
BRANCH   1  12
ATOM     12  C   LIG    1        1.259  -1.164  23.669  0.00  0.00    -0.037 A 
ATOM     13  C   LIG    1        0.349  -1.019  24.738  0.00  0.00    +0.008 A 
ATOM     14  C   LIG    1       -0.174  -2.128  25.406  0.00  0.00    +0.046 A 
ATOM     15  C   LIG    1        0.185  -3.404  25.003  0.00  0.00    +0.117 A 
ATOM     16  C   LIG    1        1.076  -3.587  23.954  0.00  0.00    +0.046 A 
ATOM     17  C   LIG    1        1.613  -2.475  23.297  0.00  0.00    +0.008 A 
BRANCH  15  18
ATOM     18  O   LIG    1       -0.376  -4.460  25.655  0.00  0.00    -0.507 OA
ATOM     19  H   LIG    1       -0.089  -4.438  26.581  0.00  0.00    +0.292 HD
ENDBRANCH  15  18
ENDBRANCH   1  12
TORSDOF 4
ENDMDL
