MODEL 1
REMARK VINA RESULT:      -7.4      0.000      0.000
REMARK  Name = 
REMARK                            x       y       z     vdW  Elec       q    Type
REMARK                         _______ _______ _______ _____ _____    ______ ____
ROOT
ATOM      1  C   LIG    1       17.755   4.053  23.058  0.00  0.00    +0.015 C 
ATOM      2  C   LIG    1       16.210   3.924  23.172  0.00  0.00    +0.021 C 
ATOM      3  C   LIG    1       17.971   5.283  22.132  0.00  0.00    +0.021 C 
ENDROOT
BRANCH   1   7
ATOM      4  C   LIG    1       19.548   0.526  21.216  0.00  0.00    +0.117 A 
ATOM      5  C   LIG    1       19.592   1.737  20.544  0.00  0.00    +0.046 A 
ATOM      6  C   LIG    1       19.041   2.884  21.127  0.00  0.00    +0.008 A 
ATOM      7  C   LIG    1       18.435   2.830  22.394  0.00  0.00    -0.037 A 
ATOM      8  C   LIG    1       18.418   1.581  23.053  0.00  0.00    +0.008 A 
ATOM      9  C   LIG    1       18.969   0.436  22.474  0.00  0.00    +0.046 A 
BRANCH   4  10
ATOM     10  O   LIG    1       20.080  -0.568  20.601  0.00  0.00    -0.507 OA
ATOM     11  H   LIG    1       19.427  -0.912  19.970  0.00  0.00    +0.292 HD
ENDBRANCH   4  10
ENDBRANCH   1   7
BRANCH   1  12
ATOM     12  C   LIG    1       18.343   4.242  24.479  0.00  0.00    -0.037 A 
ATOM     13  C   LIG    1       19.647   4.759  24.638  0.00  0.00    +0.008 A 
ATOM     14  C   LIG    1       20.179   5.018  25.903  0.00  0.00    +0.046 A 
ATOM     15  C   LIG    1       19.409   4.787  27.032  0.00  0.00    +0.117 A 
ATOM     16  C   LIG    1       18.122   4.281  26.916  0.00  0.00    +0.046 A 
ATOM     17  C   LIG    1       17.596   4.005  25.649  0.00  0.00    +0.008 A 
BRANCH  15  18
ATOM     18  O   LIG    1       19.951   5.089  28.245  0.00  0.00    -0.507 OA
ATOM     19  H   LIG    1       20.332   4.280  28.622  0.00  0.00    +0.292 HD
ENDBRANCH  15  18
ENDBRANCH   1  12
TORSDOF 4
ENDMDL
MODEL 2
REMARK VINA RESULT:      -7.4      0.058      5.699
REMARK  Name = 
REMARK                            x       y       z     vdW  Elec       q    Type
REMARK                         _______ _______ _______ _____ _____    ______ ____
ROOT
ATOM      1  C   LIG    1       17.806   4.085  23.023  0.00  0.00    +0.015 C 
ATOM      2  C   LIG    1       18.007   5.307  22.084  0.00  0.00    +0.021 C 
ATOM      3  C   LIG    1       16.263   3.938  23.140  0.00  0.00    +0.021 C 
ENDROOT
BRANCH   1   7
ATOM      4  C   LIG    1       19.453   4.809  27.000  0.00  0.00    +0.117 A 
ATOM      5  C   LIG    1       18.168   4.303  26.881  0.00  0.00    +0.046 A 
ATOM      6  C   LIG    1       17.630   4.045  25.615  0.00  0.00    +0.008 A 
ATOM      7  C   LIG    1       18.374   4.293  24.449  0.00  0.00    -0.037 A 
ATOM      8  C   LIG    1       19.683   4.798  24.609  0.00  0.00    +0.008 A 
ATOM      9  C   LIG    1       20.223   5.055  25.872  0.00  0.00    +0.046 A 
BRANCH   4  10
ATOM     10  O   LIG    1       19.928   5.064  28.252  0.00  0.00    -0.507 OA
ATOM     11  H   LIG    1       19.223   4.874  28.891  0.00  0.00    +0.292 HD
ENDBRANCH   4  10
ENDBRANCH   1   7
BRANCH   1  12
ATOM     12  C   LIG    1       18.495   2.851  22.386  0.00  0.00    -0.037 A 
ATOM     13  C   LIG    1       18.449   1.602  23.041  0.00  0.00    +0.008 A 
ATOM     14  C   LIG    1       18.988   0.453  22.458  0.00  0.00    +0.046 A 
ATOM     15  C   LIG    1       19.563   0.527  21.200  0.00  0.00    +0.117 A 
ATOM     16  C   LIG    1       19.626   1.737  20.524  0.00  0.00    +0.046 A 
ATOM     17  C   LIG    1       19.101   2.891  21.115  0.00  0.00    +0.008 A 
BRANCH  15  18
ATOM     18  O   LIG    1       20.043  -0.624  20.650  0.00  0.00    -0.507 OA
ATOM     19  H   LIG    1       19.445  -0.897  19.937  0.00  0.00    +0.292 HD
ENDBRANCH  15  18
ENDBRANCH   1  12
TORSDOF 4
ENDMDL
MODEL 3
REMARK VINA RESULT:      -7.0      1.418      5.603
REMARK  Name = 
REMARK                            x       y       z     vdW  Elec       q    Type
REMARK                         _______ _______ _______ _____ _____    ______ ____
ROOT
ATOM      1  C   LIG    1       18.969   4.220  23.153  0.00  0.00    +0.015 C 
ATOM      2  C   LIG    1       20.383   4.813  23.415  0.00  0.00    +0.021 C 
ATOM      3  C   LIG    1       18.220   5.339  22.376  0.00  0.00    +0.021 C 
ENDROOT
BRANCH   1   7
ATOM      4  C   LIG    1       16.792   3.484  26.864  0.00  0.00    +0.117 A 
ATOM      5  C   LIG    1       16.088   3.583  25.674  0.00  0.00    +0.046 A 
ATOM      6  C   LIG    1       16.771   3.798  24.471  0.00  0.00    +0.008 A 
ATOM      7  C   LIG    1       18.170   3.920  24.446  0.00  0.00    -0.037 A 
ATOM      8  C   LIG    1       18.854   3.804  25.675  0.00  0.00    +0.008 A 
ATOM      9  C   LIG    1       18.176   3.587  26.877  0.00  0.00    +0.046 A 
BRANCH   4  10
ATOM     10  O   LIG    1       16.084   3.294  28.013  0.00  0.00    -0.507 OA
ATOM     11  H   LIG    1       15.738   2.388  28.013  0.00  0.00    +0.292 HD
ENDBRANCH   4  10
ENDBRANCH   1   7
BRANCH   1  12
ATOM     12  C   LIG    1       19.124   2.907  22.345  0.00  0.00    -0.037 A 
ATOM     13  C   LIG    1       19.487   2.958  20.982  0.00  0.00    +0.008 A 
ATOM     14  C   LIG    1       19.715   1.794  20.244  0.00  0.00    +0.046 A 
ATOM     15  C   LIG    1       19.607   0.559  20.861  0.00  0.00    +0.117 A 
ATOM     16  C   LIG    1       19.253   0.468  22.200  0.00  0.00    +0.046 A 
ATOM     17  C   LIG    1       19.009   1.633  22.934  0.00  0.00    +0.008 A 
BRANCH  15  18
ATOM     18  O   LIG    1       19.874  -0.551  20.116  0.00  0.00    -0.507 OA
ATOM     19  H   LIG    1       20.129  -0.269  19.224  0.00  0.00    +0.292 HD
ENDBRANCH  15  18
ENDBRANCH   1  12
TORSDOF 4
ENDMDL
MODEL 4
REMARK VINA RESULT:      -6.9     10.445     12.897
REMARK  Name = 
REMARK                            x       y       z     vdW  Elec       q    Type
REMARK                         _______ _______ _______ _____ _____    ______ ____
ROOT
ATOM      1  C   LIG    1        9.223   0.716  28.215  0.00  0.00    +0.015 C 
ATOM      2  C   LIG    1        8.873  -0.757  27.862  0.00  0.00    +0.021 C 
ATOM      3  C   LIG    1       10.566   0.980  27.479  0.00  0.00    +0.021 C 
ENDROOT
BRANCH   1   7
ATOM      4  C   LIG    1        9.942   1.522  32.444  0.00  0.00    +0.117 A 
ATOM      5  C   LIG    1        8.668   1.168  32.029  0.00  0.00    +0.046 A 
ATOM      6  C   LIG    1        8.422   0.886  30.680  0.00  0.00    +0.008 A 
ATOM      7  C   LIG    1        9.453   0.957  29.728  0.00  0.00    -0.037 A 
ATOM      8  C   LIG    1       10.739   1.311  30.188  0.00  0.00    +0.008 A 
ATOM      9  C   LIG    1       10.987   1.592  31.534  0.00  0.00    +0.046 A 
BRANCH   4  10
ATOM     10  O   LIG    1       10.130   1.808  33.763  0.00  0.00    -0.507 OA
ATOM     11  H   LIG    1        9.519   1.262  34.284  0.00  0.00    +0.292 HD
ENDBRANCH   4  10
ENDBRANCH   1   7
BRANCH   1  12
ATOM     12  C   LIG    1        8.067   1.630  27.733  0.00  0.00    -0.037 A 
ATOM     13  C   LIG    1        6.906   1.058  27.169  0.00  0.00    +0.008 A 
ATOM     14  C   LIG    1        5.813   1.844  26.799  0.00  0.00    +0.046 A 
ATOM     15  C   LIG    1        5.850   3.213  27.008  0.00  0.00    +0.117 A 
ATOM     16  C   LIG    1        6.973   3.812  27.562  0.00  0.00    +0.046 A 
ATOM     17  C   LIG    1        8.075   3.026  27.916  0.00  0.00    +0.008 A 
BRANCH  15  18
ATOM     18  O   LIG    1        4.748   3.940  26.669  0.00  0.00    -0.507 OA
ATOM     19  H   LIG    1        4.521   3.743  25.746  0.00  0.00    +0.292 HD
ENDBRANCH  15  18
ENDBRANCH   1  12
TORSDOF 4
ENDMDL
MODEL 5
REMARK VINA RESULT:      -6.9      3.119      4.660
REMARK  Name = 
REMARK                            x       y       z     vdW  Elec       q    Type
REMARK                         _______ _______ _______ _____ _____    ______ ____
ROOT
ATOM      1  C   LIG    1       18.598   4.555  26.270  0.00  0.00    +0.015 C 
ATOM      2  C   LIG    1       19.809   5.401  25.783  0.00  0.00    +0.021 C 
ATOM      3  C   LIG    1       19.202   3.154  26.566  0.00  0.00    +0.021 C 
ENDROOT
BRANCH   1   7
ATOM      4  C   LIG    1       15.559   3.961  23.194  0.00  0.00    +0.117 A 
ATOM      5  C   LIG    1       15.180   3.974  24.527  0.00  0.00    +0.046 A 
ATOM      6  C   LIG    1       16.137   4.183  25.527  0.00  0.00    +0.008 A 
ATOM      7  C   LIG    1       17.490   4.381  25.202  0.00  0.00    -0.037 A 
ATOM      8  C   LIG    1       17.837   4.372  23.834  0.00  0.00    +0.008 A 
ATOM      9  C   LIG    1       16.884   4.165  22.834  0.00  0.00    +0.046 A 
BRANCH   4  10
ATOM     10  O   LIG    1       14.596   3.734  22.256  0.00  0.00    -0.507 OA
ATOM     11  H   LIG    1       14.135   4.570  22.083  0.00  0.00    +0.292 HD
ENDBRANCH   4  10
ENDBRANCH   1   7
BRANCH   1  12
ATOM     12  C   LIG    1       17.986   5.238  27.520  0.00  0.00    -0.037 A 
ATOM     13  C   LIG    1       17.462   4.450  28.566  0.00  0.00    +0.008 A 
ATOM     14  C   LIG    1       16.976   5.029  29.741  0.00  0.00    +0.046 A 
ATOM     15  C   LIG    1       17.028   6.404  29.901  0.00  0.00    +0.117 A 
ATOM     16  C   LIG    1       17.538   7.212  28.895  0.00  0.00    +0.046 A 
ATOM     17  C   LIG    1       18.009   6.633  27.711  0.00  0.00    +0.008 A 
BRANCH  15  18
ATOM     18  O   LIG    1       16.580   6.926  31.078  0.00  0.00    -0.507 OA
ATOM     19  H   LIG    1       16.784   7.874  31.091  0.00  0.00    +0.292 HD
ENDBRANCH  15  18
ENDBRANCH   1  12
TORSDOF 4
ENDMDL
MODEL 6
REMARK VINA RESULT:      -6.8      1.411      2.228
REMARK  Name = 
REMARK                            x       y       z     vdW  Elec       q    Type
REMARK                         _______ _______ _______ _____ _____    ______ ____
ROOT
ATOM      1  C   LIG    1       18.840   4.215  23.234  0.00  0.00    +0.015 C 
ATOM      2  C   LIG    1       18.032   5.304  22.473  0.00  0.00    +0.021 C 
ATOM      3  C   LIG    1       20.229   4.867  23.480  0.00  0.00    +0.021 C 
ENDROOT
BRANCH   1   7
ATOM      4  C   LIG    1       19.590   0.613  20.885  0.00  0.00    +0.117 A 
ATOM      5  C   LIG    1       19.181   0.489  22.204  0.00  0.00    +0.046 A 
ATOM      6  C   LIG    1       18.916   1.632  22.967  0.00  0.00    +0.008 A 
ATOM      7  C   LIG    1       19.059   2.917  22.417  0.00  0.00    -0.037 A 
ATOM      8  C   LIG    1       19.468   3.004  21.069  0.00  0.00    +0.008 A 
ATOM      9  C   LIG    1       19.731   1.865  20.304  0.00  0.00    +0.046 A 
BRANCH   4  10
ATOM     10  O   LIG    1       19.856  -0.527  20.187  0.00  0.00    -0.507 OA
ATOM     11  H   LIG    1       20.528  -1.033  20.671  0.00  0.00    +0.292 HD
ENDBRANCH   4  10
ENDBRANCH   1   7
BRANCH   1  12
ATOM     12  C   LIG    1       18.086   3.861  24.541  0.00  0.00    -0.037 A 
ATOM     13  C   LIG    1       18.803   3.705  25.747  0.00  0.00    +0.008 A 
ATOM     14  C   LIG    1       18.149   3.466  26.958  0.00  0.00    +0.046 A 
ATOM     15  C   LIG    1       16.766   3.402  26.990  0.00  0.00    +0.117 A 
ATOM     16  C   LIG    1       16.026   3.553  25.825  0.00  0.00    +0.046 A 
ATOM     17  C   LIG    1       16.682   3.775  24.610  0.00  0.00    +0.008 A 
BRANCH  15  18
ATOM     18  O   LIG    1       16.164   3.207  28.197  0.00  0.00    -0.507 OA
ATOM     19  H   LIG    1       16.697   3.643  28.881  0.00  0.00    +0.292 HD
ENDBRANCH  15  18
ENDBRANCH   1  12
TORSDOF 4
ENDMDL
MODEL 7
REMARK VINA RESULT:      -6.8     10.524     11.746
REMARK  Name = 
REMARK                            x       y       z     vdW  Elec       q    Type
REMARK                         _______ _______ _______ _____ _____    ______ ____
ROOT
ATOM      1  C   LIG    1        8.627   1.177  27.567  0.00  0.00    +0.015 C 
ATOM      2  C   LIG    1        9.607   0.351  26.688  0.00  0.00    +0.021 C 
ATOM      3  C   LIG    1        7.270   0.430  27.436  0.00  0.00    +0.021 C 
ENDROOT
BRANCH   1   7
ATOM      4  C   LIG    1        7.901   5.264  26.218  0.00  0.00    +0.117 A 
ATOM      5  C   LIG    1        8.996   5.002  27.028  0.00  0.00    +0.046 A 
ATOM      6  C   LIG    1        9.256   3.695  27.454  0.00  0.00    +0.008 A 
ATOM      7  C   LIG    1        8.420   2.631  27.074  0.00  0.00    -0.037 A 
ATOM      8  C   LIG    1        7.322   2.933  26.241  0.00  0.00    +0.008 A 
ATOM      9  C   LIG    1        7.060   4.237  25.813  0.00  0.00    +0.046 A 
BRANCH   4  10
ATOM     10  O   LIG    1        7.675   6.555  25.844  0.00  0.00    -0.507 OA
ATOM     11  H   LIG    1        7.475   7.073  26.640  0.00  0.00    +0.292 HD
ENDBRANCH   4  10
ENDBRANCH   1   7
BRANCH   1  12
ATOM     12  C   LIG    1        9.172   1.214  29.018  0.00  0.00    -0.037 A 
ATOM     13  C   LIG    1        8.286   1.067  30.107  0.00  0.00    +0.008 A 
ATOM     14  C   LIG    1        8.750   1.014  31.422  0.00  0.00    +0.046 A 
ATOM     15  C   LIG    1       10.111   1.083  31.673  0.00  0.00    +0.117 A 
ATOM     16  C   LIG    1       11.014   1.226  30.628  0.00  0.00    +0.046 A 
ATOM     17  C   LIG    1       10.546   1.296  29.311  0.00  0.00    +0.008 A 
BRANCH  15  18
ATOM     18  O   LIG    1       10.527   0.989  32.967  0.00  0.00    -0.507 OA
ATOM     19  H   LIG    1       10.441   1.862  33.382  0.00  0.00    +0.292 HD
ENDBRANCH  15  18
ENDBRANCH   1  12
TORSDOF 4
ENDMDL
MODEL 8
REMARK VINA RESULT:      -6.8     10.529     11.994
REMARK  Name = 
REMARK                            x       y       z     vdW  Elec       q    Type
REMARK                         _______ _______ _______ _____ _____    ______ ____
ROOT
ATOM      1  C   LIG    1        8.617   1.191  27.558  0.00  0.00    +0.015 C 
ATOM      2  C   LIG    1        7.251   0.461  27.420  0.00  0.00    +0.021 C 
ATOM      3  C   LIG    1        9.588   0.363  26.671  0.00  0.00    +0.021 C 
ENDROOT
BRANCH   1   7
ATOM      4  C   LIG    1       10.114   1.088  31.657  0.00  0.00    +0.117 A 
ATOM      5  C   LIG    1       11.013   1.227  30.611  0.00  0.00    +0.046 A 
ATOM      6  C   LIG    1       10.550   1.282  29.291  0.00  0.00    +0.008 A 
ATOM      7  C   LIG    1        9.177   1.198  29.002  0.00  0.00    -0.037 A 
ATOM      8  C   LIG    1        8.291   1.067  30.093  0.00  0.00    +0.008 A 
ATOM      9  C   LIG    1        8.750   1.013  31.411  0.00  0.00    +0.046 A 
BRANCH   4  10
ATOM     10  O   LIG    1       10.611   1.018  32.924  0.00  0.00    -0.507 OA
ATOM     11  H   LIG    1       10.171   1.696  33.463  0.00  0.00    +0.292 HD
ENDBRANCH   4  10
ENDBRANCH   1   7
BRANCH   1  12
ATOM     12  C   LIG    1        8.446   2.656  27.082  0.00  0.00    -0.037 A 
ATOM     13  C   LIG    1        7.370   3.000  26.236  0.00  0.00    +0.008 A 
ATOM     14  C   LIG    1        7.139   4.323  25.852  0.00  0.00    +0.046 A 
ATOM     15  C   LIG    1        7.964   5.329  26.327  0.00  0.00    +0.117 A 
ATOM     16  C   LIG    1        9.032   5.031  27.162  0.00  0.00    +0.046 A 
ATOM     17  C   LIG    1        9.273   3.703  27.532  0.00  0.00    +0.008 A 
BRANCH  15  18
ATOM     18  O   LIG    1        7.682   6.612  25.961  0.00  0.00    -0.507 OA
ATOM     19  H   LIG    1        7.629   6.651  24.993  0.00  0.00    +0.292 HD
ENDBRANCH  15  18
ENDBRANCH   1  12
TORSDOF 4
ENDMDL
MODEL 9
REMARK VINA RESULT:      -6.8      3.098      6.858
REMARK  Name = 
REMARK                            x       y       z     vdW  Elec       q    Type
REMARK                         _______ _______ _______ _____ _____    ______ ____
ROOT
ATOM      1  C   LIG    1       18.708   4.385  26.250  0.00  0.00    +0.015 C 
ATOM      2  C   LIG    1       19.318   3.004  26.621  0.00  0.00    +0.021 C 
ATOM      3  C   LIG    1       19.917   5.214  25.735  0.00  0.00    +0.021 C 
ENDROOT
BRANCH   1   7
ATOM      4  C   LIG    1       17.049   6.419  29.738  0.00  0.00    +0.117 A 
ATOM      5  C   LIG    1       17.547   7.173  28.687  0.00  0.00    +0.046 A 
ATOM      6  C   LIG    1       18.064   6.539  27.551  0.00  0.00    +0.008 A 
ATOM      7  C   LIG    1       18.091   5.138  27.455  0.00  0.00    -0.037 A 
ATOM      8  C   LIG    1       17.566   4.402  28.540  0.00  0.00    +0.008 A 
ATOM      9  C   LIG    1       17.048   5.033  29.674  0.00  0.00    +0.046 A 
BRANCH   4  10
ATOM     10  O   LIG    1       16.574   7.079  30.832  0.00  0.00    -0.507 OA
ATOM     11  H   LIG    1       16.574   8.030  30.639  0.00  0.00    +0.292 HD
ENDBRANCH   4  10
ENDBRANCH   1   7
BRANCH   1  12
ATOM     12  C   LIG    1       17.608   4.170  25.179  0.00  0.00    -0.037 A 
ATOM     13  C   LIG    1       16.255   4.072  25.569  0.00  0.00    +0.008 A 
ATOM     14  C   LIG    1       15.231   3.959  24.626  0.00  0.00    +0.046 A 
ATOM     15  C   LIG    1       15.538   3.966  23.275  0.00  0.00    +0.117 A 
ATOM     16  C   LIG    1       16.857   4.063  22.852  0.00  0.00    +0.046 A 
ATOM     17  C   LIG    1       17.883   4.159  23.798  0.00  0.00    +0.008 A 
BRANCH  15  18
ATOM     18  O   LIG    1       14.507   3.893  22.387  0.00  0.00    -0.507 OA
ATOM     19  H   LIG    1       13.902   4.632  22.557  0.00  0.00    +0.292 HD
ENDBRANCH  15  18
ENDBRANCH   1  12
TORSDOF 4
ENDMDL
