MODEL 1
REMARK VINA RESULT:      -2.6      0.000      0.000
REMARK  Name = 
REMARK                            x       y       z     vdW  Elec       q    Type
REMARK                         _______ _______ _______ _____ _____    ______ ____
ROOT
ATOM      1  C   LIG    1       15.954   2.799  53.716  0.00  0.00    +0.015 C 
ATOM      2  C   LIG    1       17.164   2.245  54.520  0.00  0.00    +0.021 C 
ATOM      3  C   LIG    1       14.940   3.246  54.806  0.00  0.00    +0.021 C 
ENDROOT
BRANCH   1   7
ATOM      4  C   LIG    1       14.003  -0.090  51.089  0.00  0.00    +0.117 A 
ATOM      5  C   LIG    1       15.080  -0.496  51.861  0.00  0.00    +0.046 A 
ATOM      6  C   LIG    1       15.706   0.410  52.725  0.00  0.00    +0.008 A 
ATOM      7  C   LIG    1       15.260   1.739  52.824  0.00  0.00    -0.037 A 
ATOM      8  C   LIG    1       14.154   2.114  52.031  0.00  0.00    +0.008 A 
ATOM      9  C   LIG    1       13.527   1.211  51.170  0.00  0.00    +0.046 A 
BRANCH   4  10
ATOM     10  O   LIG    1       13.438  -1.002  50.248  0.00  0.00    -0.507 OA
ATOM     11  H   LIG    1       13.978  -1.051  49.443  0.00  0.00    +0.292 HD
ENDBRANCH   4  10
ENDBRANCH   1   7
BRANCH   1  12
ATOM     12  C   LIG    1       16.446   3.963  52.818  0.00  0.00    -0.037 A 
ATOM     13  C   LIG    1       15.978   5.274  53.046  0.00  0.00    +0.008 A 
ATOM     14  C   LIG    1       16.460   6.359  52.310  0.00  0.00    +0.046 A 
ATOM     15  C   LIG    1       17.436   6.155  51.349  0.00  0.00    +0.117 A 
ATOM     16  C   LIG    1       17.923   4.880  51.097  0.00  0.00    +0.046 A 
ATOM     17  C   LIG    1       17.427   3.792  51.823  0.00  0.00    +0.008 A 
BRANCH  15  18
ATOM     18  O   LIG    1       17.908   7.245  50.679  0.00  0.00    -0.507 OA
ATOM     19  H   LIG    1       17.975   7.984  51.304  0.00  0.00    +0.292 HD
ENDBRANCH  15  18
ENDBRANCH   1  12
TORSDOF 4
ENDMDL
MODEL 2
REMARK VINA RESULT:      -2.5      1.160      5.437
REMARK  Name = 
REMARK                            x       y       z     vdW  Elec       q    Type
REMARK                         _______ _______ _______ _____ _____    ______ ____
ROOT
ATOM      1  C   LIG    1       16.219   2.710  53.594  0.00  0.00    +0.015 C 
ATOM      2  C   LIG    1       15.213   3.748  54.168  0.00  0.00    +0.021 C 
ATOM      3  C   LIG    1       16.896   2.094  54.850  0.00  0.00    +0.021 C 
ENDROOT
BRANCH   1   7
ATOM      4  C   LIG    1       19.305   4.615  51.165  0.00  0.00    +0.117 A 
ATOM      5  C   LIG    1       19.634   3.509  51.933  0.00  0.00    +0.046 A 
ATOM      6  C   LIG    1       18.654   2.872  52.703  0.00  0.00    +0.008 A 
ATOM      7  C   LIG    1       17.328   3.338  52.714  0.00  0.00    -0.037 A 
ATOM      8  C   LIG    1       17.028   4.460  51.911  0.00  0.00    +0.008 A 
ATOM      9  C   LIG    1       18.004   5.097  51.141  0.00  0.00    +0.046 A 
BRANCH   4  10
ATOM     10  O   LIG    1       20.297   5.214  50.447  0.00  0.00    -0.507 OA
ATOM     11  H   LIG    1       20.917   5.628  51.069  0.00  0.00    +0.292 HD
ENDBRANCH   4  10
ENDBRANCH   1   7
BRANCH   1  12
ATOM     12  C   LIG    1       15.435   1.675  52.747  0.00  0.00    -0.037 A 
ATOM     13  C   LIG    1       14.400   2.107  51.890  0.00  0.00    +0.008 A 
ATOM     14  C   LIG    1       13.727   1.213  51.053  0.00  0.00    +0.046 A 
ATOM     15  C   LIG    1       14.092  -0.123  51.041  0.00  0.00    +0.117 A 
ATOM     16  C   LIG    1       15.107  -0.585  51.868  0.00  0.00    +0.046 A 
ATOM     17  C   LIG    1       15.769   0.308  52.719  0.00  0.00    +0.008 A 
BRANCH  15  18
ATOM     18  O   LIG    1       13.438  -0.954  50.182  0.00  0.00    -0.507 OA
ATOM     19  H   LIG    1       13.590  -0.643  49.276  0.00  0.00    +0.292 HD
ENDBRANCH  15  18
ENDBRANCH   1  12
TORSDOF 4
ENDMDL
MODEL 3
REMARK VINA RESULT:      -2.5      1.459      2.231
REMARK  Name = 
REMARK                            x       y       z     vdW  Elec       q    Type
REMARK                         _______ _______ _______ _____ _____    ______ ____
ROOT
ATOM      1  C   LIG    1       15.626   2.991  53.518  0.00  0.00    +0.015 C 
ATOM      2  C   LIG    1       15.782   2.477  54.977  0.00  0.00    +0.021 C 
ATOM      3  C   LIG    1       14.584   4.140  53.624  0.00  0.00    +0.021 C 
ENDROOT
BRANCH   1   7
ATOM      4  C   LIG    1       14.051  -0.102  50.871  0.00  0.00    +0.117 A 
ATOM      5  C   LIG    1       13.438   1.140  50.901  0.00  0.00    +0.046 A 
ATOM      6  C   LIG    1       13.940   2.151  51.728  0.00  0.00    +0.008 A 
ATOM      7  C   LIG    1       15.066   1.929  52.539  0.00  0.00    -0.037 A 
ATOM      8  C   LIG    1       15.671   0.655  52.475  0.00  0.00    +0.008 A 
ATOM      9  C   LIG    1       15.172  -0.355  51.649  0.00  0.00    +0.046 A 
BRANCH   4  10
ATOM     10  O   LIG    1       13.515  -1.062  50.066  0.00  0.00    -0.507 OA
ATOM     11  H   LIG    1       13.353  -1.855  50.602  0.00  0.00    +0.292 HD
ENDBRANCH   4  10
ENDBRANCH   1   7
BRANCH   1  12
ATOM     12  C   LIG    1       17.011   3.461  53.007  0.00  0.00    -0.037 A 
ATOM     13  C   LIG    1       18.180   3.111  53.717  0.00  0.00    +0.008 A 
ATOM     14  C   LIG    1       19.449   3.448  53.243  0.00  0.00    +0.046 A 
ATOM     15  C   LIG    1       19.576   4.120  52.038  0.00  0.00    +0.117 A 
ATOM     16  C   LIG    1       18.450   4.480  51.310  0.00  0.00    +0.046 A 
ATOM     17  C   LIG    1       17.178   4.157  51.794  0.00  0.00    +0.008 A 
BRANCH  15  18
ATOM     18  O   LIG    1       20.833   4.396  51.591  0.00  0.00    -0.507 OA
ATOM     19  H   LIG    1       21.367   4.701  52.342  0.00  0.00    +0.292 HD
ENDBRANCH  15  18
ENDBRANCH   1  12
TORSDOF 4
ENDMDL
MODEL 4
REMARK VINA RESULT:      -2.4      2.072      5.529
REMARK  Name = 
REMARK                            x       y       z     vdW  Elec       q    Type
REMARK                         _______ _______ _______ _____ _____    ______ ____
ROOT
ATOM      1  C   LIG    1       16.565   3.443  53.462  0.00  0.00    +0.015 C 
ATOM      2  C   LIG    1       15.805   4.767  53.167  0.00  0.00    +0.021 C 
ATOM      3  C   LIG    1       16.773   3.453  55.002  0.00  0.00    +0.021 C 
ENDROOT
BRANCH   1   7
ATOM      4  C   LIG    1       20.518   3.086  51.647  0.00  0.00    +0.117 A 
ATOM      5  C   LIG    1       19.433   3.408  50.847  0.00  0.00    +0.046 A 
ATOM      6  C   LIG    1       18.161   3.547  51.414  0.00  0.00    +0.008 A 
ATOM      7  C   LIG    1       17.960   3.363  52.793  0.00  0.00    -0.037 A 
ATOM      8  C   LIG    1       19.090   3.046  53.577  0.00  0.00    +0.008 A 
ATOM      9  C   LIG    1       20.361   2.908  53.014  0.00  0.00    +0.046 A 
BRANCH   4  10
ATOM     10  O   LIG    1       21.735   2.941  51.048  0.00  0.00    -0.507 OA
ATOM     11  H   LIG    1       22.321   2.464  51.658  0.00  0.00    +0.292 HD
ENDBRANCH   4  10
ENDBRANCH   1   7
BRANCH   1  12
ATOM     12  C   LIG    1       15.703   2.255  52.964  0.00  0.00    -0.037 A 
ATOM     13  C   LIG    1       14.522   2.500  52.231  0.00  0.00    +0.008 A 
ATOM     14  C   LIG    1       13.765   1.455  51.698  0.00  0.00    +0.046 A 
ATOM     15  C   LIG    1       14.187   0.146  51.868  0.00  0.00    +0.117 A 
ATOM     16  C   LIG    1       15.343  -0.135  52.581  0.00  0.00    +0.046 A 
ATOM     17  C   LIG    1       16.093   0.912  53.129  0.00  0.00    +0.008 A 
BRANCH  15  18
ATOM     18  O   LIG    1       13.440  -0.842  51.299  0.00  0.00    -0.507 OA
ATOM     19  H   LIG    1       12.755  -0.433  50.749  0.00  0.00    +0.292 HD
ENDBRANCH  15  18
ENDBRANCH   1  12
TORSDOF 4
ENDMDL
MODEL 5
REMARK VINA RESULT:      -2.2      1.916      5.862
REMARK  Name = 
REMARK                            x       y       z     vdW  Elec       q    Type
REMARK                         _______ _______ _______ _____ _____    ______ ____
ROOT
ATOM      1  C   LIG    1       18.456   3.514  51.518  0.00  0.00    +0.015 C 
ATOM      2  C   LIG    1       19.758   3.594  52.364  0.00  0.00    +0.021 C 
ATOM      3  C   LIG    1       18.943   3.109  50.099  0.00  0.00    +0.021 C 
ENDROOT
BRANCH   1   7
ATOM      4  C   LIG    1       16.391   7.354  51.318  0.00  0.00    +0.117 A 
ATOM      5  C   LIG    1       17.173   6.949  50.247  0.00  0.00    +0.046 A 
ATOM      6  C   LIG    1       17.826   5.712  50.284  0.00  0.00    +0.008 A 
ATOM      7  C   LIG    1       17.705   4.864  51.398  0.00  0.00    -0.037 A 
ATOM      8  C   LIG    1       16.893   5.305  52.465  0.00  0.00    +0.008 A 
ATOM      9  C   LIG    1       16.238   6.538  52.430  0.00  0.00    +0.046 A 
BRANCH   4  10
ATOM     10  O   LIG    1       15.789   8.575  51.246  0.00  0.00    -0.507 OA
ATOM     11  H   LIG    1       16.481   9.257  51.243  0.00  0.00    +0.292 HD
ENDBRANCH   4  10
ENDBRANCH   1   7
BRANCH   1  12
ATOM     12  C   LIG    1       17.508   2.471  52.164  0.00  0.00    -0.037 A 
ATOM     13  C   LIG    1       17.822   1.922  53.426  0.00  0.00    +0.008 A 
ATOM     14  C   LIG    1       16.952   1.042  54.074  0.00  0.00    +0.046 A 
ATOM     15  C   LIG    1       15.743   0.713  53.484  0.00  0.00    +0.117 A 
ATOM     16  C   LIG    1       15.399   1.234  52.244  0.00  0.00    +0.046 A 
ATOM     17  C   LIG    1       16.278   2.102  51.588  0.00  0.00    +0.008 A 
BRANCH  15  18
ATOM     18  O   LIG    1       14.906  -0.118  54.166  0.00  0.00    -0.507 OA
ATOM     19  H   LIG    1       14.980  -1.008  53.788  0.00  0.00    +0.292 HD
ENDBRANCH  15  18
ENDBRANCH   1  12
TORSDOF 4
ENDMDL
MODEL 6
REMARK VINA RESULT:      -2.1      3.850      6.286
REMARK  Name = 
REMARK                            x       y       z     vdW  Elec       q    Type
REMARK                         _______ _______ _______ _____ _____    ______ ____
ROOT
ATOM      1  C   LIG    1       18.769   3.881  51.254  0.00  0.00    +0.015 C 
ATOM      2  C   LIG    1       18.096   2.886  52.241  0.00  0.00    +0.021 C 
ATOM      3  C   LIG    1       18.929   3.069  49.938  0.00  0.00    +0.021 C 
ENDROOT
BRANCH   1   7
ATOM      4  C   LIG    1       22.753   5.262  52.381  0.00  0.00    +0.117 A 
ATOM      5  C   LIG    1       21.698   5.446  53.262  0.00  0.00    +0.046 A 
ATOM      6  C   LIG    1       20.418   4.992  52.927  0.00  0.00    +0.008 A 
ATOM      7  C   LIG    1       20.177   4.347  51.701  0.00  0.00    -0.037 A 
ATOM      8  C   LIG    1       21.277   4.169  50.835  0.00  0.00    +0.008 A 
ATOM      9  C   LIG    1       22.556   4.620  51.167  0.00  0.00    +0.046 A 
BRANCH   4  10
ATOM     10  O   LIG    1       23.979   5.739  52.741  0.00  0.00    -0.507 OA
ATOM     11  H   LIG    1       23.980   5.885  53.701  0.00  0.00    +0.292 HD
ENDBRANCH   4  10
ENDBRANCH   1   7
BRANCH   1  12
ATOM     12  C   LIG    1       17.855   5.125  51.103  0.00  0.00    -0.037 A 
ATOM     13  C   LIG    1       16.913   5.431  52.107  0.00  0.00    +0.008 A 
ATOM     14  C   LIG    1       16.130   6.587  52.044  0.00  0.00    +0.046 A 
ATOM     15  C   LIG    1       16.293   7.468  50.988  0.00  0.00    +0.117 A 
ATOM     16  C   LIG    1       17.211   7.202  49.982  0.00  0.00    +0.046 A 
ATOM     17  C   LIG    1       17.982   6.036  50.037  0.00  0.00    +0.008 A 
BRANCH  15  18
ATOM     18  O   LIG    1       15.538   8.603  50.983  0.00  0.00    -0.507 OA
ATOM     19  H   LIG    1       14.749   8.450  51.527  0.00  0.00    +0.292 HD
ENDBRANCH  15  18
ENDBRANCH   1  12
TORSDOF 4
ENDMDL
MODEL 7
REMARK VINA RESULT:      -2.1      1.256      5.589
REMARK  Name = 
REMARK                            x       y       z     vdW  Elec       q    Type
REMARK                         _______ _______ _______ _____ _____    ______ ____
ROOT
ATOM      1  C   LIG    1       15.156   4.378  53.951  0.00  0.00    +0.015 C 
ATOM      2  C   LIG    1       13.703   4.677  54.418  0.00  0.00    +0.021 C 
ATOM      3  C   LIG    1       16.007   4.487  55.246  0.00  0.00    +0.021 C 
ENDROOT
BRANCH   1   7
ATOM      4  C   LIG    1       16.721   7.159  50.973  0.00  0.00    +0.117 A 
ATOM      5  C   LIG    1       15.576   7.496  51.679  0.00  0.00    +0.046 A 
ATOM      6  C   LIG    1       15.071   6.626  52.652  0.00  0.00    +0.008 A 
ATOM      7  C   LIG    1       15.707   5.404  52.930  0.00  0.00    -0.037 A 
ATOM      8  C   LIG    1       16.875   5.099  52.198  0.00  0.00    +0.008 A 
ATOM      9  C   LIG    1       17.382   5.966  51.227  0.00  0.00    +0.046 A 
BRANCH   4  10
ATOM     10  O   LIG    1       17.165   8.027  50.021  0.00  0.00    -0.507 OA
ATOM     11  H   LIG    1       16.899   7.689  49.151  0.00  0.00    +0.292 HD
ENDBRANCH   4  10
ENDBRANCH   1   7
BRANCH   1  12
ATOM     12  C   LIG    1       15.189   2.967  53.309  0.00  0.00    -0.037 A 
ATOM     13  C   LIG    1       14.310   2.655  52.250  0.00  0.00    +0.008 A 
ATOM     14  C   LIG    1       14.367   1.423  51.595  0.00  0.00    +0.046 A 
ATOM     15  C   LIG    1       15.320   0.489  51.970  0.00  0.00    +0.117 A 
ATOM     16  C   LIG    1       16.203   0.761  53.006  0.00  0.00    +0.046 A 
ATOM     17  C   LIG    1       16.134   1.989  53.673  0.00  0.00    +0.008 A 
BRANCH  15  18
ATOM     18  O   LIG    1       15.368  -0.685  51.281  0.00  0.00    -0.507 OA
ATOM     19  H   LIG    1       15.370  -1.416  51.918  0.00  0.00    +0.292 HD
ENDBRANCH  15  18
ENDBRANCH   1  12
TORSDOF 4
ENDMDL
MODEL 8
REMARK VINA RESULT:      -2.1      2.327      3.258
REMARK  Name = 
REMARK                            x       y       z     vdW  Elec       q    Type
REMARK                         _______ _______ _______ _____ _____    ______ ____
ROOT
ATOM      1  C   LIG    1       16.559   2.095  54.240  0.00  0.00    +0.015 C 
ATOM      2  C   LIG    1       16.562   1.315  55.585  0.00  0.00    +0.021 C 
ATOM      3  C   LIG    1       15.864   3.444  54.578  0.00  0.00    +0.021 C 
ENDROOT
BRANCH   1   7
ATOM      4  C   LIG    1       14.212   0.044  51.185  0.00  0.00    +0.117 A 
ATOM      5  C   LIG    1       14.071   1.414  51.340  0.00  0.00    +0.046 A 
ATOM      6  C   LIG    1       14.831   2.093  52.300  0.00  0.00    +0.008 A 
ATOM      7  C   LIG    1       15.741   1.404  53.120  0.00  0.00    -0.037 A 
ATOM      8  C   LIG    1       15.864   0.011  52.927  0.00  0.00    +0.008 A 
ATOM      9  C   LIG    1       15.109  -0.668  51.968  0.00  0.00    +0.046 A 
BRANCH   4  10
ATOM     10  O   LIG    1       13.438  -0.577  50.250  0.00  0.00    -0.507 OA
ATOM     11  H   LIG    1       12.649  -0.931  50.693  0.00  0.00    +0.292 HD
ENDBRANCH   4  10
ENDBRANCH   1   7
BRANCH   1  12
ATOM     12  C   LIG    1       18.023   2.260  53.759  0.00  0.00    -0.037 A 
ATOM     13  C   LIG    1       19.069   1.612  54.452  0.00  0.00    +0.008 A 
ATOM     14  C   LIG    1       20.389   1.673  54.001  0.00  0.00    +0.046 A 
ATOM     15  C   LIG    1       20.685   2.361  52.836  0.00  0.00    +0.117 A 
ATOM     16  C   LIG    1       19.684   3.009  52.126  0.00  0.00    +0.046 A 
ATOM     17  C   LIG    1       18.364   2.963  52.588  0.00  0.00    +0.008 A 
BRANCH  15  18
ATOM     18  O   LIG    1       21.979   2.364  52.409  0.00  0.00    -0.507 OA
ATOM     19  H   LIG    1       22.521   2.820  53.071  0.00  0.00    +0.292 HD
ENDBRANCH  15  18
ENDBRANCH   1  12
TORSDOF 4
ENDMDL
MODEL 9
REMARK VINA RESULT:      -2.1      2.985      4.409
REMARK  Name = 
REMARK                            x       y       z     vdW  Elec       q    Type
REMARK                         _______ _______ _______ _____ _____    ______ ____
ROOT
ATOM      1  C   LIG    1       18.585   4.442  50.904  0.00  0.00    +0.015 C 
ATOM      2  C   LIG    1       18.231   5.608  49.938  0.00  0.00    +0.021 C 
ATOM      3  C   LIG    1       19.044   3.291  49.966  0.00  0.00    +0.021 C 
ENDROOT
BRANCH   1   7
ATOM      4  C   LIG    1       15.102   3.108  53.171  0.00  0.00    +0.117 A 
ATOM      5  C   LIG    1       15.891   2.168  52.526  0.00  0.00    +0.046 A 
ATOM      6  C   LIG    1       17.023   2.575  51.811  0.00  0.00    +0.008 A 
ATOM      7  C   LIG    1       17.379   3.932  51.732  0.00  0.00    -0.037 A 
ATOM      8  C   LIG    1       16.558   4.859  52.410  0.00  0.00    +0.008 A 
ATOM      9  C   LIG    1       15.428   4.455  53.125  0.00  0.00    +0.046 A 
BRANCH   4  10
ATOM     10  O   LIG    1       13.998   2.667  53.839  0.00  0.00    -0.507 OA
ATOM     11  H   LIG    1       13.921   1.709  53.704  0.00  0.00    +0.292 HD
ENDBRANCH   4  10
ENDBRANCH   1   7
BRANCH   1  12
ATOM     12  C   LIG    1       19.692   4.923  51.877  0.00  0.00    -0.037 A 
ATOM     13  C   LIG    1       20.049   6.288  51.918  0.00  0.00    +0.008 A 
ATOM     14  C   LIG    1       20.983   6.769  52.837  0.00  0.00    +0.046 A 
ATOM     15  C   LIG    1       21.560   5.899  53.748  0.00  0.00    +0.117 A 
ATOM     16  C   LIG    1       21.234   4.550  53.740  0.00  0.00    +0.046 A 
ATOM     17  C   LIG    1       20.310   4.066  52.807  0.00  0.00    +0.008 A 
BRANCH  15  18
ATOM     18  O   LIG    1       22.439   6.415  54.654  0.00  0.00    -0.507 OA
ATOM     19  H   LIG    1       22.861   5.681  55.126  0.00  0.00    +0.292 HD
ENDBRANCH  15  18
ENDBRANCH   1  12
TORSDOF 4
ENDMDL
