MODEL 1
REMARK VINA RESULT:      -8.1      0.000      0.000
REMARK  Name = 
REMARK                            x       y       z     vdW  Elec       q    Type
REMARK                         _______ _______ _______ _____ _____    ______ ____
ROOT
ATOM      1  C   LIG    1       27.331   0.200  20.356  0.00  0.00    +0.015 C 
ATOM      2  C   LIG    1       26.320  -0.590  21.235  0.00  0.00    +0.021 C 
ATOM      3  C   LIG    1       27.496  -0.672  19.080  0.00  0.00    +0.021 C 
ENDROOT
BRANCH   1   7
ATOM      4  C   LIG    1       31.302   0.528  22.137  0.00  0.00    +0.117 A 
ATOM      5  C   LIG    1       30.812   1.578  21.377  0.00  0.00    +0.046 A 
ATOM      6  C   LIG    1       29.533   1.500  20.814  0.00  0.00    +0.008 A 
ATOM      7  C   LIG    1       28.727   0.365  21.006  0.00  0.00    -0.037 A 
ATOM      8  C   LIG    1       29.255  -0.681  21.794  0.00  0.00    +0.008 A 
ATOM      9  C   LIG    1       30.531  -0.605  22.358  0.00  0.00    +0.046 A 
BRANCH   4  10
ATOM     10  O   LIG    1       32.561   0.639  22.648  0.00  0.00    -0.507 OA
ATOM     11  H   LIG    1       32.490   0.854  23.592  0.00  0.00    +0.292 HD
ENDBRANCH   4  10
ENDBRANCH   1   7
BRANCH   1  12
ATOM     12  C   LIG    1       26.744   1.606  20.068  0.00  0.00    -0.037 A 
ATOM     13  C   LIG    1       26.221   2.380  21.126  0.00  0.00    +0.008 A 
ATOM     14  C   LIG    1       25.759   3.681  20.918  0.00  0.00    +0.046 A 
ATOM     15  C   LIG    1       25.834   4.241  19.653  0.00  0.00    +0.117 A 
ATOM     16  C   LIG    1       26.344   3.512  18.588  0.00  0.00    +0.046 A 
ATOM     17  C   LIG    1       26.791   2.203  18.794  0.00  0.00    +0.008 A 
BRANCH  15  18
ATOM     18  O   LIG    1       25.408   5.527  19.499  0.00  0.00    -0.507 OA
ATOM     19  H   LIG    1       26.175   6.116  19.578  0.00  0.00    +0.292 HD
ENDBRANCH  15  18
ENDBRANCH   1  12
TORSDOF 4
ENDMDL
MODEL 2
REMARK VINA RESULT:      -8.0      0.095      5.476
REMARK  Name = 
REMARK                            x       y       z     vdW  Elec       q    Type
REMARK                         _______ _______ _______ _____ _____    ______ ____
ROOT
ATOM      1  C   LIG    1       27.356   0.225  20.369  0.00  0.00    +0.015 C 
ATOM      2  C   LIG    1       27.531  -0.624  19.079  0.00  0.00    +0.021 C 
ATOM      3  C   LIG    1       26.349  -0.587  21.231  0.00  0.00    +0.021 C 
ENDROOT
BRANCH   1   7
ATOM      4  C   LIG    1       25.712   4.224  19.774  0.00  0.00    +0.117 A 
ATOM      5  C   LIG    1       26.246   3.544  18.691  0.00  0.00    +0.046 A 
ATOM      6  C   LIG    1       26.759   2.252  18.858  0.00  0.00    +0.008 A 
ATOM      7  C   LIG    1       26.745   1.626  20.116  0.00  0.00    -0.037 A 
ATOM      8  C   LIG    1       26.185   2.346  21.194  0.00  0.00    +0.008 A 
ATOM      9  C   LIG    1       25.670   3.634  21.030  0.00  0.00    +0.046 A 
BRANCH   4  10
ATOM     10  O   LIG    1       25.242   5.487  19.569  0.00  0.00    -0.507 OA
ATOM     11  H   LIG    1       25.147   5.627  18.613  0.00  0.00    +0.292 HD
ENDBRANCH   4  10
ENDBRANCH   1   7
BRANCH   1  12
ATOM     12  C   LIG    1       28.742   0.398  21.041  0.00  0.00    -0.037 A 
ATOM     13  C   LIG    1       29.270  -0.637  21.842  0.00  0.00    +0.008 A 
ATOM     14  C   LIG    1       30.549  -0.549  22.396  0.00  0.00    +0.046 A 
ATOM     15  C   LIG    1       31.333   0.564  22.140  0.00  0.00    +0.117 A 
ATOM     16  C   LIG    1       30.849   1.602  21.355  0.00  0.00    +0.046 A 
ATOM     17  C   LIG    1       29.561   1.521  20.815  0.00  0.00    +0.008 A 
BRANCH  15  18
ATOM     18  O   LIG    1       32.590   0.594  22.667  0.00  0.00    -0.507 OA
ATOM     19  H   LIG    1       33.163   0.027  22.128  0.00  0.00    +0.292 HD
ENDBRANCH  15  18
ENDBRANCH   1  12
TORSDOF 4
ENDMDL
MODEL 3
REMARK VINA RESULT:      -7.9      1.496      2.062
REMARK  Name = 
REMARK                            x       y       z     vdW  Elec       q    Type
REMARK                         _______ _______ _______ _____ _____    ______ ____
ROOT
ATOM      1  C   LIG    1       27.417  -0.268  20.714  0.00  0.00    +0.015 C 
ATOM      2  C   LIG    1       26.007  -0.838  21.037  0.00  0.00    +0.021 C 
ATOM      3  C   LIG    1       27.842  -1.005  19.413  0.00  0.00    +0.021 C 
ENDROOT
BRANCH   1   7
ATOM      4  C   LIG    1       30.315  -1.229  23.831  0.00  0.00    +0.117 A 
ATOM      5  C   LIG    1       30.753  -1.074  22.525  0.00  0.00    +0.046 A 
ATOM      6  C   LIG    1       29.841  -0.745  21.515  0.00  0.00    +0.008 A 
ATOM      7  C   LIG    1       28.477  -0.570  21.802  0.00  0.00    -0.037 A 
ATOM      8  C   LIG    1       28.070  -0.726  23.145  0.00  0.00    +0.008 A 
ATOM      9  C   LIG    1       28.978  -1.052  24.155  0.00  0.00    +0.046 A 
BRANCH   4  10
ATOM     10  O   LIG    1       31.235  -1.569  24.779  0.00  0.00    -0.507 OA
ATOM     11  H   LIG    1       31.011  -1.107  25.602  0.00  0.00    +0.292 HD
ENDBRANCH   4  10
ENDBRANCH   1   7
BRANCH   1  12
ATOM     12  C   LIG    1       27.302   1.269  20.540  0.00  0.00    -0.037 A 
ATOM     13  C   LIG    1       28.305   1.975  19.841  0.00  0.00    +0.008 A 
ATOM     14  C   LIG    1       28.194   3.345  19.595  0.00  0.00    +0.046 A 
ATOM     15  C   LIG    1       27.070   4.031  20.024  0.00  0.00    +0.117 A 
ATOM     16  C   LIG    1       26.062   3.371  20.714  0.00  0.00    +0.046 A 
ATOM     17  C   LIG    1       26.181   2.001  20.974  0.00  0.00    +0.008 A 
BRANCH  15  18
ATOM     18  O   LIG    1       26.982   5.359  19.731  0.00  0.00    -0.507 OA
ATOM     19  H   LIG    1       27.758   5.807  20.103  0.00  0.00    +0.292 HD
ENDBRANCH  15  18
ENDBRANCH   1  12
TORSDOF 4
ENDMDL
MODEL 4
REMARK VINA RESULT:      -7.9      1.488      5.544
REMARK  Name = 
REMARK                            x       y       z     vdW  Elec       q    Type
REMARK                         _______ _______ _______ _____ _____    ______ ____
ROOT
ATOM      1  C   LIG    1       27.421  -0.260  20.708  0.00  0.00    +0.015 C 
ATOM      2  C   LIG    1       27.827  -1.020  19.414  0.00  0.00    +0.021 C 
ATOM      3  C   LIG    1       26.016  -0.823  21.060  0.00  0.00    +0.021 C 
ENDROOT
BRANCH   1   7
ATOM      4  C   LIG    1       27.076   4.036  20.020  0.00  0.00    +0.117 A 
ATOM      5  C   LIG    1       26.074   3.380  20.718  0.00  0.00    +0.046 A 
ATOM      6  C   LIG    1       26.177   2.006  20.966  0.00  0.00    +0.008 A 
ATOM      7  C   LIG    1       27.287   1.271  20.515  0.00  0.00    -0.037 A 
ATOM      8  C   LIG    1       28.292   1.976  19.817  0.00  0.00    +0.008 A 
ATOM      9  C   LIG    1       28.192   3.347  19.570  0.00  0.00    +0.046 A 
BRANCH   4  10
ATOM     10  O   LIG    1       26.923   5.371  19.785  0.00  0.00    -0.507 OA
ATOM     11  H   LIG    1       26.019   5.524  19.467  0.00  0.00    +0.292 HD
ENDBRANCH   4  10
ENDBRANCH   1   7
BRANCH   1  12
ATOM     12  C   LIG    1       28.487  -0.535  21.800  0.00  0.00    -0.037 A 
ATOM     13  C   LIG    1       28.088  -0.718  23.141  0.00  0.00    +0.008 A 
ATOM     14  C   LIG    1       29.011  -1.047  24.137  0.00  0.00    +0.046 A 
ATOM     15  C   LIG    1       30.345  -1.222  23.805  0.00  0.00    +0.117 A 
ATOM     16  C   LIG    1       30.774  -1.053  22.496  0.00  0.00    +0.046 A 
ATOM     17  C   LIG    1       29.852  -0.706  21.503  0.00  0.00    +0.008 A 
BRANCH  15  18
ATOM     18  O   LIG    1       31.206  -1.581  24.799  0.00  0.00    -0.507 OA
ATOM     19  H   LIG    1       31.420  -2.522  24.696  0.00  0.00    +0.292 HD
ENDBRANCH  15  18
ENDBRANCH   1  12
TORSDOF 4
ENDMDL
MODEL 5
REMARK VINA RESULT:      -7.9      1.232      1.819
REMARK  Name = 
REMARK                            x       y       z     vdW  Elec       q    Type
REMARK                         _______ _______ _______ _____ _____    ______ ____
ROOT
ATOM      1  C   LIG    1       27.138  -0.199  20.011  0.00  0.00    +0.015 C 
ATOM      2  C   LIG    1       26.009  -0.494  21.039  0.00  0.00    +0.021 C 
ATOM      3  C   LIG    1       27.315  -1.537  19.240  0.00  0.00    +0.021 C 
ENDROOT
BRANCH   1   7
ATOM      4  C   LIG    1       31.026   0.688  21.786  0.00  0.00    +0.117 A 
ATOM      5  C   LIG    1       30.346   1.689  21.109  0.00  0.00    +0.046 A 
ATOM      6  C   LIG    1       29.089   1.429  20.551  0.00  0.00    +0.008 A 
ATOM      7  C   LIG    1       28.497   0.160  20.663  0.00  0.00    -0.037 A 
ATOM      8  C   LIG    1       29.214  -0.832  21.368  0.00  0.00    +0.008 A 
ATOM      9  C   LIG    1       30.468  -0.574  21.927  0.00  0.00    +0.046 A 
BRANCH   4  10
ATOM     10  O   LIG    1       32.256   0.981  22.296  0.00  0.00    -0.507 OA
ATOM     11  H   LIG    1       32.359   1.946  22.308  0.00  0.00    +0.292 HD
ENDBRANCH   4  10
ENDBRANCH   1   7
BRANCH   1  12
ATOM     12  C   LIG    1       26.691   0.978  19.107  0.00  0.00    -0.037 A 
ATOM     13  C   LIG    1       26.407   0.749  17.743  0.00  0.00    +0.008 A 
ATOM     14  C   LIG    1       25.925   1.768  16.919  0.00  0.00    +0.046 A 
ATOM     15  C   LIG    1       25.695   3.027  17.448  0.00  0.00    +0.117 A 
ATOM     16  C   LIG    1       25.960   3.290  18.784  0.00  0.00    +0.046 A 
ATOM     17  C   LIG    1       26.459   2.274  19.606  0.00  0.00    +0.008 A 
BRANCH  15  18
ATOM     18  O   LIG    1       25.187   3.983  16.619  0.00  0.00    -0.507 OA
ATOM     19  H   LIG    1       24.525   3.571  16.043  0.00  0.00    +0.292 HD
ENDBRANCH  15  18
ENDBRANCH   1  12
TORSDOF 4
ENDMDL
MODEL 6
REMARK VINA RESULT:      -7.8      1.241      5.567
REMARK  Name = 
REMARK                            x       y       z     vdW  Elec       q    Type
REMARK                         _______ _______ _______ _____ _____    ______ ____
ROOT
ATOM      1  C   LIG    1       27.131  -0.232  20.018  0.00  0.00    +0.015 C 
ATOM      2  C   LIG    1       27.327  -1.572  19.254  0.00  0.00    +0.021 C 
ATOM      3  C   LIG    1       26.000  -0.533  21.041  0.00  0.00    +0.021 C 
ENDROOT
BRANCH   1   7
ATOM      4  C   LIG    1       25.698   2.973  17.425  0.00  0.00    +0.117 A 
ATOM      5  C   LIG    1       25.940   3.241  18.763  0.00  0.00    +0.046 A 
ATOM      6  C   LIG    1       26.419   2.232  19.606  0.00  0.00    +0.008 A 
ATOM      7  C   LIG    1       26.661   0.937  19.117  0.00  0.00    -0.037 A 
ATOM      8  C   LIG    1       26.413   0.703  17.747  0.00  0.00    +0.008 A 
ATOM      9  C   LIG    1       25.937   1.709  16.904  0.00  0.00    +0.046 A 
BRANCH   4  10
ATOM     10  O   LIG    1       25.213   3.981  16.647  0.00  0.00    -0.507 OA
ATOM     11  H   LIG    1       24.420   4.343  17.074  0.00  0.00    +0.292 HD
ENDBRANCH   4  10
ENDBRANCH   1   7
BRANCH   1  12
ATOM     12  C   LIG    1       28.475   0.159  20.684  0.00  0.00    -0.037 A 
ATOM     13  C   LIG    1       29.209  -0.805  21.408  0.00  0.00    +0.008 A 
ATOM     14  C   LIG    1       30.461  -0.510  21.952  0.00  0.00    +0.046 A 
ATOM     15  C   LIG    1       31.013   0.747  21.763  0.00  0.00    +0.117 A 
ATOM     16  C   LIG    1       30.322   1.721  21.055  0.00  0.00    +0.046 A 
ATOM     17  C   LIG    1       29.061   1.430  20.525  0.00  0.00    +0.008 A 
BRANCH  15  18
ATOM     18  O   LIG    1       32.253   0.982  22.277  0.00  0.00    -0.507 OA
ATOM     19  H   LIG    1       32.675   0.130  22.465  0.00  0.00    +0.292 HD
ENDBRANCH  15  18
ENDBRANCH   1  12
TORSDOF 4
ENDMDL
MODEL 7
REMARK VINA RESULT:      -7.4      2.064      3.361
REMARK  Name = 
REMARK                            x       y       z     vdW  Elec       q    Type
REMARK                         _______ _______ _______ _____ _____    ______ ____
ROOT
ATOM      1  C   LIG    1       26.651   2.787  20.400  0.00  0.00    +0.015 C 
ATOM      2  C   LIG    1       27.251   4.218  20.498  0.00  0.00    +0.021 C 
ATOM      3  C   LIG    1       25.419   2.821  21.347  0.00  0.00    +0.021 C 
ENDROOT
BRANCH   1   7
ATOM      4  C   LIG    1       29.415  -0.246  21.885  0.00  0.00    +0.117 A 
ATOM      5  C   LIG    1       28.052  -0.495  21.925  0.00  0.00    +0.046 A 
ATOM      6  C   LIG    1       27.151   0.457  21.435  0.00  0.00    +0.008 A 
ATOM      7  C   LIG    1       27.606   1.674  20.898  0.00  0.00    -0.037 A 
ATOM      8  C   LIG    1       29.001   1.887  20.864  0.00  0.00    +0.008 A 
ATOM      9  C   LIG    1       29.902   0.938  21.351  0.00  0.00    +0.046 A 
BRANCH   4  10
ATOM     10  O   LIG    1       30.254  -1.194  22.392  0.00  0.00    -0.507 OA
ATOM     11  H   LIG    1       30.129  -2.014  21.888  0.00  0.00    +0.292 HD
ENDBRANCH   4  10
ENDBRANCH   1   7
BRANCH   1  12
ATOM     12  C   LIG    1       26.283   2.505  18.920  0.00  0.00    -0.037 A 
ATOM     13  C   LIG    1       25.869   3.563  18.084  0.00  0.00    +0.008 A 
ATOM     14  C   LIG    1       25.607   3.360  16.727  0.00  0.00    +0.046 A 
ATOM     15  C   LIG    1       25.778   2.101  16.176  0.00  0.00    +0.117 A 
ATOM     16  C   LIG    1       26.186   1.035  16.967  0.00  0.00    +0.046 A 
ATOM     17  C   LIG    1       26.431   1.235  18.329  0.00  0.00    +0.008 A 
BRANCH  15  18
ATOM     18  O   LIG    1       25.550   1.953  14.841  0.00  0.00    -0.507 OA
ATOM     19  H   LIG    1       26.273   1.429  14.461  0.00  0.00    +0.292 HD
ENDBRANCH  15  18
ENDBRANCH   1  12
TORSDOF 4
ENDMDL
MODEL 8
REMARK VINA RESULT:      -7.3      1.961      5.809
REMARK  Name = 
REMARK                            x       y       z     vdW  Elec       q    Type
REMARK                         _______ _______ _______ _____ _____    ______ ____
ROOT
ATOM      1  C   LIG    1       26.681   2.701  20.494  0.00  0.00    +0.015 C 
ATOM      2  C   LIG    1       25.432   2.445  21.384  0.00  0.00    +0.021 C 
ATOM      3  C   LIG    1       27.027   4.197  20.738  0.00  0.00    +0.021 C 
ENDROOT
BRANCH   1   7
ATOM      4  C   LIG    1       25.842   2.059  16.259  0.00  0.00    +0.117 A 
ATOM      5  C   LIG    1       25.794   3.347  16.772  0.00  0.00    +0.046 A 
ATOM      6  C   LIG    1       26.080   3.575  18.123  0.00  0.00    +0.008 A 
ATOM      7  C   LIG    1       26.417   2.513  18.979  0.00  0.00    -0.037 A 
ATOM      8  C   LIG    1       26.465   1.218  18.420  0.00  0.00    +0.008 A 
ATOM      9  C   LIG    1       26.182   0.987  17.072  0.00  0.00    +0.046 A 
BRANCH   4  10
ATOM     10  O   LIG    1       25.536   1.882  14.943  0.00  0.00    -0.507 OA
ATOM     11  H   LIG    1       24.595   1.655  14.875  0.00  0.00    +0.292 HD
ENDBRANCH   4  10
ENDBRANCH   1   7
BRANCH   1  12
ATOM     12  C   LIG    1       27.808   1.729  20.929  0.00  0.00    -0.037 A 
ATOM     13  C   LIG    1       29.158   2.123  20.819  0.00  0.00    +0.008 A 
ATOM     14  C   LIG    1       30.195   1.307  21.276  0.00  0.00    +0.046 A 
ATOM     15  C   LIG    1       29.900   0.092  21.872  0.00  0.00    +0.117 A 
ATOM     16  C   LIG    1       28.583  -0.329  22.000  0.00  0.00    +0.046 A 
ATOM     17  C   LIG    1       27.546   0.482  21.527  0.00  0.00    +0.008 A 
BRANCH  15  18
ATOM     18  O   LIG    1       30.938  -0.658  22.340  0.00  0.00    -0.507 OA
ATOM     19  H   LIG    1       31.760  -0.161  22.207  0.00  0.00    +0.292 HD
ENDBRANCH  15  18
ENDBRANCH   1  12
TORSDOF 4
ENDMDL
MODEL 9
REMARK VINA RESULT:      -6.9      2.545      5.849
REMARK  Name = 
REMARK                            x       y       z     vdW  Elec       q    Type
REMARK                         _______ _______ _______ _____ _____    ______ ____
ROOT
ATOM      1  C   LIG    1       27.790   1.357  20.911  0.00  0.00    +0.015 C 
ATOM      2  C   LIG    1       26.568   1.883  21.717  0.00  0.00    +0.021 C 
ATOM      3  C   LIG    1       28.533   2.644  20.455  0.00  0.00    +0.021 C 
ENDROOT
BRANCH   1   7
ATOM      4  C   LIG    1       26.776  -0.805  17.258  0.00  0.00    +0.117 A 
ATOM      5  C   LIG    1       27.262  -1.509  18.348  0.00  0.00    +0.046 A 
ATOM      6  C   LIG    1       27.574  -0.836  19.535  0.00  0.00    +0.008 A 
ATOM      7  C   LIG    1       27.403   0.555  19.644  0.00  0.00    -0.037 A 
ATOM      8  C   LIG    1       26.896   1.237  18.517  0.00  0.00    +0.008 A 
ATOM      9  C   LIG    1       26.583   0.568  17.332  0.00  0.00    +0.046 A 
BRANCH   4  10
ATOM     10  O   LIG    1       26.505  -1.499  16.116  0.00  0.00    -0.507 OA
ATOM     11  H   LIG    1       25.853  -2.187  16.324  0.00  0.00    +0.292 HD
ENDBRANCH   4  10
ENDBRANCH   1   7
BRANCH   1  12
ATOM     12  C   LIG    1       28.641   0.450  21.837  0.00  0.00    -0.037 A 
ATOM     13  C   LIG    1       30.050   0.524  21.792  0.00  0.00    +0.008 A 
ATOM     14  C   LIG    1       30.846  -0.219  22.667  0.00  0.00    +0.046 A 
ATOM     15  C   LIG    1       30.249  -1.030  23.617  0.00  0.00    +0.117 A 
ATOM     16  C   LIG    1       28.866  -1.128  23.693  0.00  0.00    +0.046 A 
ATOM     17  C   LIG    1       28.069  -0.397  22.806  0.00  0.00    +0.008 A 
BRANCH  15  18
ATOM     18  O   LIG    1       31.060  -1.708  24.477  0.00  0.00    -0.507 OA
ATOM     19  H   LIG    1       30.506  -2.155  25.136  0.00  0.00    +0.292 HD
ENDBRANCH  15  18
ENDBRANCH   1  12
TORSDOF 4
ENDMDL
