MODEL 1
REMARK VINA RESULT:      -8.6      0.000      0.000
REMARK  Name = 
REMARK                            x       y       z     vdW  Elec       q    Type
REMARK                         _______ _______ _______ _____ _____    ______ ____
ROOT
ATOM      1  C   LIG    1        4.094  18.482  28.788  0.00  0.00    +0.015 C 
ATOM      2  C   LIG    1        4.169  17.195  27.918  0.00  0.00    +0.021 C 
ATOM      3  C   LIG    1        3.351  19.510  27.890  0.00  0.00    +0.021 C 
ENDROOT
BRANCH   1   7
ATOM      4  C   LIG    1        7.961  20.277  29.724  0.00  0.00    +0.117 A 
ATOM      5  C   LIG    1        7.244  19.650  30.731  0.00  0.00    +0.046 A 
ATOM      6  C   LIG    1        6.011  19.051  30.446  0.00  0.00    +0.008 A 
ATOM      7  C   LIG    1        5.480  19.074  29.145  0.00  0.00    -0.037 A 
ATOM      8  C   LIG    1        6.243  19.713  28.144  0.00  0.00    +0.008 A 
ATOM      9  C   LIG    1        7.474  20.310  28.425  0.00  0.00    +0.046 A 
BRANCH   4  10
ATOM     10  O   LIG    1        9.146  20.865  30.053  0.00  0.00    -0.507 OA
ATOM     11  H   LIG    1        9.081  21.197  30.962  0.00  0.00    +0.292 HD
ENDBRANCH   4  10
ENDBRANCH   1   7
BRANCH   1  12
ATOM     12  C   LIG    1        3.339  18.151  30.100  0.00  0.00    -0.037 A 
ATOM     13  C   LIG    1        2.455  19.098  30.662  0.00  0.00    +0.008 A 
ATOM     14  C   LIG    1        1.698  18.803  31.798  0.00  0.00    +0.046 A 
ATOM     15  C   LIG    1        1.791  17.549  32.378  0.00  0.00    +0.117 A 
ATOM     16  C   LIG    1        2.647  16.591  31.854  0.00  0.00    +0.046 A 
ATOM     17  C   LIG    1        3.419  16.892  30.727  0.00  0.00    +0.008 A 
BRANCH  15  18
ATOM     18  O   LIG    1        1.006  17.289  33.462  0.00  0.00    -0.507 OA
ATOM     19  H   LIG    1        1.568  16.942  34.173  0.00  0.00    +0.292 HD
ENDBRANCH  15  18
ENDBRANCH   1  12
TORSDOF 4
ENDMDL
MODEL 2
REMARK VINA RESULT:      -8.6      0.203      5.565
REMARK  Name = 
REMARK                            x       y       z     vdW  Elec       q    Type
REMARK                         _______ _______ _______ _____ _____    ______ ____
ROOT
ATOM      1  C   LIG    1        4.119  18.498  28.570  0.00  0.00    +0.015 C 
ATOM      2  C   LIG    1        3.458  19.504  27.586  0.00  0.00    +0.021 C 
ATOM      3  C   LIG    1        4.204  17.171  27.764  0.00  0.00    +0.021 C 
ENDROOT
BRANCH   1   7
ATOM      4  C   LIG    1        1.878  17.694  32.228  0.00  0.00    +0.117 A 
ATOM      5  C   LIG    1        1.709  18.910  31.584  0.00  0.00    +0.046 A 
ATOM      6  C   LIG    1        2.403  19.178  30.398  0.00  0.00    +0.008 A 
ATOM      7  C   LIG    1        3.279  18.229  29.844  0.00  0.00    -0.037 A 
ATOM      8  C   LIG    1        3.419  16.999  30.522  0.00  0.00    +0.008 A 
ATOM      9  C   LIG    1        2.726  16.729  31.704  0.00  0.00    +0.046 A 
BRANCH   4  10
ATOM     10  O   LIG    1        1.197  17.485  33.391  0.00  0.00    -0.507 OA
ATOM     11  H   LIG    1        0.250  17.430  33.184  0.00  0.00    +0.292 HD
ENDBRANCH   4  10
ENDBRANCH   1   7
BRANCH   1  12
ATOM     12  C   LIG    1        5.504  19.053  28.992  0.00  0.00    -0.037 A 
ATOM     13  C   LIG    1        6.295  19.754  28.057  0.00  0.00    +0.008 A 
ATOM     14  C   LIG    1        7.511  20.336  28.423  0.00  0.00    +0.046 A 
ATOM     15  C   LIG    1        7.945  20.250  29.735  0.00  0.00    +0.117 A 
ATOM     16  C   LIG    1        7.193  19.570  30.684  0.00  0.00    +0.046 A 
ATOM     17  C   LIG    1        5.984  18.972  30.312  0.00  0.00    +0.008 A 
BRANCH  15  18
ATOM     18  O   LIG    1        9.117  20.865  30.060  0.00  0.00    -0.507 OA
ATOM     19  H   LIG    1        9.697  20.215  30.488  0.00  0.00    +0.292 HD
ENDBRANCH  15  18
ENDBRANCH   1  12
TORSDOF 4
ENDMDL
MODEL 3
REMARK VINA RESULT:      -8.6      0.315      1.208
REMARK  Name = 
REMARK                            x       y       z     vdW  Elec       q    Type
REMARK                         _______ _______ _______ _____ _____    ______ ____
ROOT
ATOM      1  C   LIG    1        4.137  18.500  28.458  0.00  0.00    +0.015 C 
ATOM      2  C   LIG    1        4.245  17.167  27.664  0.00  0.00    +0.021 C 
ATOM      3  C   LIG    1        3.495  19.496  27.453  0.00  0.00    +0.021 C 
ENDROOT
BRANCH   1   7
ATOM      4  C   LIG    1        7.956  20.261  29.625  0.00  0.00    +0.117 A 
ATOM      5  C   LIG    1        7.216  19.565  30.567  0.00  0.00    +0.046 A 
ATOM      6  C   LIG    1        5.998  18.976  30.207  0.00  0.00    +0.008 A 
ATOM      7  C   LIG    1        5.506  19.079  28.895  0.00  0.00    -0.037 A 
ATOM      8  C   LIG    1        6.292  19.786  27.960  0.00  0.00    +0.008 A 
ATOM      9  C   LIG    1        7.508  20.374  28.316  0.00  0.00    +0.046 A 
BRANCH   4  10
ATOM     10  O   LIG    1        9.126  20.835  30.026  0.00  0.00    -0.507 OA
ATOM     11  H   LIG    1        9.786  20.133  30.144  0.00  0.00    +0.292 HD
ENDBRANCH   4  10
ENDBRANCH   1   7
BRANCH   1  12
ATOM     12  C   LIG    1        3.272  18.257  29.721  0.00  0.00    -0.037 A 
ATOM     13  C   LIG    1        3.417  17.059  30.454  0.00  0.00    +0.008 A 
ATOM     14  C   LIG    1        2.714  16.841  31.640  0.00  0.00    +0.046 A 
ATOM     15  C   LIG    1        1.870  17.825  32.129  0.00  0.00    +0.117 A 
ATOM     16  C   LIG    1        1.702  19.016  31.437  0.00  0.00    +0.046 A 
ATOM     17  C   LIG    1        2.394  19.228  30.240  0.00  0.00    +0.008 A 
BRANCH  15  18
ATOM     18  O   LIG    1        1.232  17.588  33.309  0.00  0.00    -0.507 OA
ATOM     19  H   LIG    1        0.820  18.415  33.607  0.00  0.00    +0.292 HD
ENDBRANCH  15  18
ENDBRANCH   1  12
TORSDOF 4
ENDMDL
MODEL 4
REMARK VINA RESULT:      -8.2      1.313      5.789
REMARK  Name = 
REMARK                            x       y       z     vdW  Elec       q    Type
REMARK                         _______ _______ _______ _____ _____    ______ ____
ROOT
ATOM      1  C   LIG    1        3.044  19.090  30.054  0.00  0.00    +0.015 C 
ATOM      2  C   LIG    1        2.207  20.393  30.182  0.00  0.00    +0.021 C 
ATOM      3  C   LIG    1        2.546  18.440  28.732  0.00  0.00    +0.021 C 
ENDROOT
BRANCH   1   7
ATOM      4  C   LIG    1        2.241  16.313  33.324  0.00  0.00    +0.117 A 
ATOM      5  C   LIG    1        2.602  15.812  32.083  0.00  0.00    +0.046 A 
ATOM      6  C   LIG    1        2.884  16.687  31.028  0.00  0.00    +0.008 A 
ATOM      7  C   LIG    1        2.805  18.079  31.203  0.00  0.00    -0.037 A 
ATOM      8  C   LIG    1        2.444  18.553  32.482  0.00  0.00    +0.008 A 
ATOM      9  C   LIG    1        2.164  17.682  33.538  0.00  0.00    +0.046 A 
BRANCH   4  10
ATOM     10  O   LIG    1        1.957  15.423  34.317  0.00  0.00    -0.507 OA
ATOM     11  H   LIG    1        2.633  15.510  35.008  0.00  0.00    +0.292 HD
ENDBRANCH   4  10
ENDBRANCH   1   7
BRANCH   1  12
ATOM     12  C   LIG    1        4.548  19.467  30.025  0.00  0.00    -0.037 A 
ATOM     13  C   LIG    1        5.502  18.601  30.601  0.00  0.00    +0.008 A 
ATOM     14  C   LIG    1        6.870  18.868  30.523  0.00  0.00    +0.046 A 
ATOM     15  C   LIG    1        7.311  19.994  29.847  0.00  0.00    +0.117 A 
ATOM     16  C   LIG    1        6.404  20.869  29.266  0.00  0.00    +0.046 A 
ATOM     17  C   LIG    1        5.032  20.609  29.360  0.00  0.00    +0.008 A 
BRANCH  15  18
ATOM     18  O   LIG    1        8.656  20.199  29.760  0.00  0.00    -0.507 OA
ATOM     19  H   LIG    1        8.852  20.594  28.896  0.00  0.00    +0.292 HD
ENDBRANCH  15  18
ENDBRANCH   1  12
TORSDOF 4
ENDMDL
MODEL 5
REMARK VINA RESULT:      -8.1      1.669      2.520
REMARK  Name = 
REMARK                            x       y       z     vdW  Elec       q    Type
REMARK                         _______ _______ _______ _____ _____    ______ ____
ROOT
ATOM      1  C   LIG    1        3.286  17.713  30.910  0.00  0.00    +0.015 C 
ATOM      2  C   LIG    1        3.441  16.171  30.781  0.00  0.00    +0.021 C 
ATOM      3  C   LIG    1        2.330  18.102  29.748  0.00  0.00    +0.021 C 
ENDROOT
BRANCH   1   7
ATOM      4  C   LIG    1        7.081  19.784  30.307  0.00  0.00    +0.117 A 
ATOM      5  C   LIG    1        5.902  20.405  29.925  0.00  0.00    +0.046 A 
ATOM      6  C   LIG    1        4.674  19.765  30.129  0.00  0.00    +0.008 A 
ATOM      7  C   LIG    1        4.612  18.491  30.718  0.00  0.00    -0.037 A 
ATOM      8  C   LIG    1        5.831  17.894  31.104  0.00  0.00    +0.008 A 
ATOM      9  C   LIG    1        7.058  18.531  30.904  0.00  0.00    +0.046 A 
BRANCH   4  10
ATOM     10  O   LIG    1        8.255  20.435  30.071  0.00  0.00    -0.507 OA
ATOM     11  H   LIG    1        8.847  19.834  29.591  0.00  0.00    +0.292 HD
ENDBRANCH   4  10
ENDBRANCH   1   7
BRANCH   1  12
ATOM     12  C   LIG    1        2.714  18.038  32.314  0.00  0.00    -0.037 A 
ATOM     13  C   LIG    1        1.318  18.043  32.520  0.00  0.00    +0.008 A 
ATOM     14  C   LIG    1        0.770  18.252  33.788  0.00  0.00    +0.046 A 
ATOM     15  C   LIG    1        1.607  18.436  34.876  0.00  0.00    +0.117 A 
ATOM     16  C   LIG    1        2.986  18.436  34.713  0.00  0.00    +0.046 A 
ATOM     17  C   LIG    1        3.534  18.244  33.440  0.00  0.00    +0.008 A 
BRANCH  15  18
ATOM     18  O   LIG    1        1.034  18.598  36.101  0.00  0.00    -0.507 OA
ATOM     19  H   LIG    1        1.475  19.335  36.553  0.00  0.00    +0.292 HD
ENDBRANCH  15  18
ENDBRANCH   1  12
TORSDOF 4
ENDMDL
MODEL 6
REMARK VINA RESULT:      -7.9      1.377      2.195
REMARK  Name = 
REMARK                            x       y       z     vdW  Elec       q    Type
REMARK                         _______ _______ _______ _____ _____    ______ ____
ROOT
ATOM      1  C   LIG    1        2.939  19.056  30.074  0.00  0.00    +0.015 C 
ATOM      2  C   LIG    1        2.530  18.352  28.749  0.00  0.00    +0.021 C 
ATOM      3  C   LIG    1        2.097  20.363  30.091  0.00  0.00    +0.021 C 
ENDROOT
BRANCH   1   7
ATOM      4  C   LIG    1        7.190  20.036  30.190  0.00  0.00    +0.117 A 
ATOM      5  C   LIG    1        6.303  20.937  29.623  0.00  0.00    +0.046 A 
ATOM      6  C   LIG    1        4.934  20.650  29.595  0.00  0.00    +0.008 A 
ATOM      7  C   LIG    1        4.435  19.452  30.135  0.00  0.00    -0.037 A 
ATOM      8  C   LIG    1        5.367  18.563  30.713  0.00  0.00    +0.008 A 
ATOM      9  C   LIG    1        6.734  18.848  30.744  0.00  0.00    +0.046 A 
BRANCH   4  10
ATOM     10  O   LIG    1        8.517  20.349  30.178  0.00  0.00    -0.507 OA
ATOM     11  H   LIG    1        8.985  19.720  30.750  0.00  0.00    +0.292 HD
ENDBRANCH   4  10
ENDBRANCH   1   7
BRANCH   1  12
ATOM     12  C   LIG    1        2.625  18.106  31.258  0.00  0.00    -0.037 A 
ATOM     13  C   LIG    1        2.779  16.712  31.102  0.00  0.00    +0.008 A 
ATOM     14  C   LIG    1        2.583  15.833  32.169  0.00  0.00    +0.046 A 
ATOM     15  C   LIG    1        2.253  16.334  33.418  0.00  0.00    +0.117 A 
ATOM     16  C   LIG    1        2.095  17.699  33.612  0.00  0.00    +0.046 A 
ATOM     17  C   LIG    1        2.274  18.577  32.538  0.00  0.00    +0.008 A 
BRANCH  15  18
ATOM     18  O   LIG    1        2.109  15.446  34.443  0.00  0.00    -0.507 OA
ATOM     19  H   LIG    1        1.578  14.697  34.129  0.00  0.00    +0.292 HD
ENDBRANCH  15  18
ENDBRANCH   1  12
TORSDOF 4
ENDMDL
MODEL 7
REMARK VINA RESULT:      -7.9      2.331      3.455
REMARK  Name = 
REMARK                            x       y       z     vdW  Elec       q    Type
REMARK                         _______ _______ _______ _____ _____    ______ ____
ROOT
ATOM      1  C   LIG    1        4.761  17.906  30.396  0.00  0.00    +0.015 C 
ATOM      2  C   LIG    1        5.872  18.751  31.081  0.00  0.00    +0.021 C 
ATOM      3  C   LIG    1        5.297  16.448  30.451  0.00  0.00    +0.021 C 
ENDROOT
BRANCH   1   7
ATOM      4  C   LIG    1        3.961  18.880  26.218  0.00  0.00    +0.117 A 
ATOM      5  C   LIG    1        4.484  19.855  27.052  0.00  0.00    +0.046 A 
ATOM      6  C   LIG    1        4.766  19.556  28.390  0.00  0.00    +0.008 A 
ATOM      7  C   LIG    1        4.525  18.273  28.910  0.00  0.00    -0.037 A 
ATOM      8  C   LIG    1        4.002  17.303  28.028  0.00  0.00    +0.008 A 
ATOM      9  C   LIG    1        3.721  17.598  26.692  0.00  0.00    +0.046 A 
BRANCH   4  10
ATOM     10  O   LIG    1        3.683  19.222  24.927  0.00  0.00    -0.507 OA
ATOM     11  H   LIG    1        4.278  19.943  24.667  0.00  0.00    +0.292 HD
ENDBRANCH   4  10
ENDBRANCH   1   7
BRANCH   1  12
ATOM     12  C   LIG    1        3.435  18.105  31.176  0.00  0.00    -0.037 A 
ATOM     13  C   LIG    1        2.660  19.265  30.962  0.00  0.00    +0.008 A 
ATOM     14  C   LIG    1        1.422  19.439  31.585  0.00  0.00    +0.046 A 
ATOM     15  C   LIG    1        0.926  18.446  32.415  0.00  0.00    +0.117 A 
ATOM     16  C   LIG    1        1.659  17.291  32.648  0.00  0.00    +0.046 A 
ATOM     17  C   LIG    1        2.906  17.124  32.037  0.00  0.00    +0.008 A 
BRANCH  15  18
ATOM     18  O   LIG    1       -0.302  18.638  32.973  0.00  0.00    -0.507 OA
ATOM     19  H   LIG    1       -0.724  19.394  32.537  0.00  0.00    +0.292 HD
ENDBRANCH  15  18
ENDBRANCH   1  12
TORSDOF 4
ENDMDL
MODEL 8
REMARK VINA RESULT:      -7.9      1.190      5.706
REMARK  Name = 
REMARK                            x       y       z     vdW  Elec       q    Type
REMARK                         _______ _______ _______ _____ _____    ______ ____
ROOT
ATOM      1  C   LIG    1        4.085  18.307  27.703  0.00  0.00    +0.015 C 
ATOM      2  C   LIG    1        3.131  18.975  26.674  0.00  0.00    +0.021 C 
ATOM      3  C   LIG    1        4.261  16.855  27.179  0.00  0.00    +0.021 C 
ENDROOT
BRANCH   1   7
ATOM      4  C   LIG    1        2.305  18.111  31.684  0.00  0.00    +0.117 A 
ATOM      5  C   LIG    1        3.214  17.138  31.300  0.00  0.00    +0.046 A 
ATOM      6  C   LIG    1        3.811  17.195  30.035  0.00  0.00    +0.008 A 
ATOM      7  C   LIG    1        3.502  18.230  29.136  0.00  0.00    -0.037 A 
ATOM      8  C   LIG    1        2.580  19.209  29.566  0.00  0.00    +0.008 A 
ATOM      9  C   LIG    1        1.984  19.155  30.828  0.00  0.00    +0.046 A 
BRANCH   4  10
ATOM     10  O   LIG    1        1.734  18.004  32.917  0.00  0.00    -0.507 OA
ATOM     11  H   LIG    1        2.202  17.312  33.411  0.00  0.00    +0.292 HD
ENDBRANCH   4  10
ENDBRANCH   1   7
BRANCH   1  12
ATOM     12  C   LIG    1        5.410  19.111  27.745  0.00  0.00    -0.037 A 
ATOM     13  C   LIG    1        5.968  19.611  26.549  0.00  0.00    +0.008 A 
ATOM     14  C   LIG    1        7.116  20.407  26.557  0.00  0.00    +0.046 A 
ATOM     15  C   LIG    1        7.713  20.738  27.763  0.00  0.00    +0.117 A 
ATOM     16  C   LIG    1        7.192  20.267  28.961  0.00  0.00    +0.046 A 
ATOM     17  C   LIG    1        6.052  19.455  28.950  0.00  0.00    +0.008 A 
BRANCH  15  18
ATOM     18  O   LIG    1        8.808  21.548  27.731  0.00  0.00    -0.507 OA
ATOM     19  H   LIG    1        9.588  21.004  27.537  0.00  0.00    +0.292 HD
ENDBRANCH  15  18
ENDBRANCH   1  12
TORSDOF 4
ENDMDL
MODEL 9
REMARK VINA RESULT:      -7.9      2.324      5.677
REMARK  Name = 
REMARK                            x       y       z     vdW  Elec       q    Type
REMARK                         _______ _______ _______ _____ _____    ______ ____
ROOT
ATOM      1  C   LIG    1        4.828  17.995  30.322  0.00  0.00    +0.015 C 
ATOM      2  C   LIG    1        5.438  16.570  30.443  0.00  0.00    +0.021 C 
ATOM      3  C   LIG    1        5.879  18.922  30.993  0.00  0.00    +0.021 C 
ENDROOT
BRANCH   1   7
ATOM      4  C   LIG    1        0.985  18.516  32.325  0.00  0.00    +0.117 A 
ATOM      5  C   LIG    1        1.719  17.363  32.558  0.00  0.00    +0.046 A 
ATOM      6  C   LIG    1        2.963  17.187  31.941  0.00  0.00    +0.008 A 
ATOM      7  C   LIG    1        3.487  18.166  31.079  0.00  0.00    -0.037 A 
ATOM      8  C   LIG    1        2.716  19.330  30.874  0.00  0.00    +0.008 A 
ATOM      9  C   LIG    1        1.475  19.509  31.490  0.00  0.00    +0.046 A 
BRANCH   4  10
ATOM     10  O   LIG    1       -0.230  18.635  32.932  0.00  0.00    -0.507 OA
ATOM     11  H   LIG    1       -0.231  18.077  33.727  0.00  0.00    +0.292 HD
ENDBRANCH   4  10
ENDBRANCH   1   7
BRANCH   1  12
ATOM     12  C   LIG    1        4.598  18.310  28.821  0.00  0.00    -0.037 A 
ATOM     13  C   LIG    1        3.916  17.383  28.004  0.00  0.00    +0.008 A 
ATOM     14  C   LIG    1        3.620  17.667  26.669  0.00  0.00    +0.046 A 
ATOM     15  C   LIG    1        3.980  18.893  26.134  0.00  0.00    +0.117 A 
ATOM     16  C   LIG    1        4.650  19.832  26.906  0.00  0.00    +0.046 A 
ATOM     17  C   LIG    1        4.961  19.539  28.239  0.00  0.00    +0.008 A 
BRANCH  15  18
ATOM     18  O   LIG    1        3.639  19.148  24.839  0.00  0.00    -0.507 OA
ATOM     19  H   LIG    1        3.492  18.302  24.387  0.00  0.00    +0.292 HD
ENDBRANCH  15  18
ENDBRANCH   1  12
TORSDOF 4
ENDMDL
