MODEL 1
REMARK VINA RESULT:      -8.2      0.000      0.000
REMARK  Name = 
REMARK                            x       y       z     vdW  Elec       q    Type
REMARK                         _______ _______ _______ _____ _____    ______ ____
ROOT
ATOM      1  C   LIG    1       23.740 -18.049  17.493  0.00  0.00    +0.015 C 
ATOM      2  C   LIG    1       23.396 -19.350  18.273  0.00  0.00    +0.021 C 
ATOM      3  C   LIG    1       24.037 -18.535  16.047  0.00  0.00    +0.021 C 
ENDROOT
BRANCH   1   7
ATOM      4  C   LIG    1       27.313 -16.108  19.078  0.00  0.00    +0.117 A 
ATOM      5  C   LIG    1       27.174 -16.254  17.707  0.00  0.00    +0.046 A 
ATOM      6  C   LIG    1       26.026 -16.856  17.179  0.00  0.00    +0.008 A 
ATOM      7  C   LIG    1       25.002 -17.321  18.020  0.00  0.00    -0.037 A 
ATOM      8  C   LIG    1       25.173 -17.146  19.411  0.00  0.00    +0.008 A 
ATOM      9  C   LIG    1       26.317 -16.544  19.940  0.00  0.00    +0.046 A 
BRANCH   4  10
ATOM     10  O   LIG    1       28.457 -15.534  19.548  0.00  0.00    -0.507 OA
ATOM     11  H   LIG    1       28.215 -14.871  20.215  0.00  0.00    +0.292 HD
ENDBRANCH   4  10
ENDBRANCH   1   7
BRANCH   1  12
ATOM     12  C   LIG    1       22.531 -17.083  17.582  0.00  0.00    -0.037 A 
ATOM     13  C   LIG    1       22.526 -15.891  16.825  0.00  0.00    +0.008 A 
ATOM     14  C   LIG    1       21.420 -15.038  16.818  0.00  0.00    +0.046 A 
ATOM     15  C   LIG    1       20.291 -15.372  17.548  0.00  0.00    +0.117 A 
ATOM     16  C   LIG    1       20.258 -16.537  18.302  0.00  0.00    +0.046 A 
ATOM     17  C   LIG    1       21.372 -17.382  18.323  0.00  0.00    +0.008 A 
BRANCH  15  18
ATOM     18  O   LIG    1       19.219 -14.532  17.483  0.00  0.00    -0.507 OA
ATOM     19  H   LIG    1       19.131 -14.215  16.571  0.00  0.00    +0.292 HD
ENDBRANCH  15  18
ENDBRANCH   1  12
TORSDOF 4
ENDMDL
MODEL 2
REMARK VINA RESULT:      -8.2      0.132      5.559
REMARK  Name = 
REMARK                            x       y       z     vdW  Elec       q    Type
REMARK                         _______ _______ _______ _____ _____    ______ ____
ROOT
ATOM      1  C   LIG    1       23.747 -18.122  17.478  0.00  0.00    +0.015 C 
ATOM      2  C   LIG    1       24.073 -18.617  16.040  0.00  0.00    +0.021 C 
ATOM      3  C   LIG    1       23.357 -19.414  18.250  0.00  0.00    +0.021 C 
ENDROOT
BRANCH   1   7
ATOM      4  C   LIG    1       20.366 -15.363  17.514  0.00  0.00    +0.117 A 
ATOM      5  C   LIG    1       20.306 -16.517  18.279  0.00  0.00    +0.046 A 
ATOM      6  C   LIG    1       21.389 -17.404  18.296  0.00  0.00    +0.008 A 
ATOM      7  C   LIG    1       22.547 -17.145  17.544  0.00  0.00    -0.037 A 
ATOM      8  C   LIG    1       22.577 -15.955  16.785  0.00  0.00    +0.008 A 
ATOM      9  C   LIG    1       21.498 -15.067  16.768  0.00  0.00    +0.046 A 
BRANCH   4  10
ATOM     10  O   LIG    1       19.281 -14.538  17.512  0.00  0.00    -0.507 OA
ATOM     11  H   LIG    1       19.558 -13.668  17.185  0.00  0.00    +0.292 HD
ENDBRANCH   4  10
ENDBRANCH   1   7
BRANCH   1  12
ATOM     12  C   LIG    1       25.000 -17.415  18.054  0.00  0.00    -0.037 A 
ATOM     13  C   LIG    1       26.014 -16.959  17.185  0.00  0.00    +0.008 A 
ATOM     14  C   LIG    1       27.117 -16.247  17.661  0.00  0.00    +0.046 A 
ATOM     15  C   LIG    1       27.215 -15.956  19.012  0.00  0.00    +0.117 A 
ATOM     16  C   LIG    1       26.237 -16.386  19.898  0.00  0.00    +0.046 A 
ATOM     17  C   LIG    1       25.141 -17.114  19.423  0.00  0.00    +0.008 A 
BRANCH  15  18
ATOM     18  O   LIG    1       28.286 -15.226  19.431  0.00  0.00    -0.507 OA
ATOM     19  H   LIG    1       27.967 -14.514  20.008  0.00  0.00    +0.292 HD
ENDBRANCH  15  18
ENDBRANCH   1  12
TORSDOF 4
ENDMDL
MODEL 3
REMARK VINA RESULT:      -8.1      0.346      1.681
REMARK  Name = 
REMARK                            x       y       z     vdW  Elec       q    Type
REMARK                         _______ _______ _______ _____ _____    ______ ____
ROOT
ATOM      1  C   LIG    1       23.659 -17.943  17.439  0.00  0.00    +0.015 C 
ATOM      2  C   LIG    1       23.296 -19.235  18.225  0.00  0.00    +0.021 C 
ATOM      3  C   LIG    1       24.084 -18.454  16.034  0.00  0.00    +0.021 C 
ENDROOT
BRANCH   1   7
ATOM      4  C   LIG    1       27.011 -15.641  19.024  0.00  0.00    +0.117 A 
ATOM      5  C   LIG    1       25.964 -15.980  19.867  0.00  0.00    +0.046 A 
ATOM      6  C   LIG    1       24.890 -16.735  19.382  0.00  0.00    +0.008 A 
ATOM      7  C   LIG    1       24.851 -17.160  18.043  0.00  0.00    -0.037 A 
ATOM      8  C   LIG    1       25.939 -16.804  17.217  0.00  0.00    +0.008 A 
ATOM      9  C   LIG    1       27.013 -16.052  17.699  0.00  0.00    +0.046 A 
BRANCH   4  10
ATOM     10  O   LIG    1       28.025 -14.887  19.535  0.00  0.00    -0.507 OA
ATOM     11  H   LIG    1       28.791 -15.465  19.683  0.00  0.00    +0.292 HD
ENDBRANCH   4  10
ENDBRANCH   1   7
BRANCH   1  12
ATOM     12  C   LIG    1       22.416 -17.017  17.408  0.00  0.00    -0.037 A 
ATOM     13  C   LIG    1       21.261 -17.364  18.141  0.00  0.00    +0.008 A 
ATOM     14  C   LIG    1       20.154 -16.515  18.201  0.00  0.00    +0.046 A 
ATOM     15  C   LIG    1       20.190 -15.293  17.550  0.00  0.00    +0.117 A 
ATOM     16  C   LIG    1       21.309 -14.915  16.820  0.00  0.00    +0.046 A 
ATOM     17  C   LIG    1       22.411 -15.774  16.747  0.00  0.00    +0.008 A 
BRANCH  15  18
ATOM     18  O   LIG    1       19.105 -14.477  17.665  0.00  0.00    -0.507 OA
ATOM     19  H   LIG    1       18.763 -14.292  16.776  0.00  0.00    +0.292 HD
ENDBRANCH  15  18
ENDBRANCH   1  12
TORSDOF 4
ENDMDL
MODEL 4
REMARK VINA RESULT:      -8.0      1.175      5.675
REMARK  Name = 
REMARK                            x       y       z     vdW  Elec       q    Type
REMARK                         _______ _______ _______ _____ _____    ______ ____
ROOT
ATOM      1  C   LIG    1       23.013 -17.388  17.516  0.00  0.00    +0.015 C 
ATOM      2  C   LIG    1       23.234 -17.744  16.019  0.00  0.00    +0.021 C 
ATOM      3  C   LIG    1       22.982 -18.763  18.239  0.00  0.00    +0.021 C 
ENDROOT
BRANCH   1   7
ATOM      4  C   LIG    1       19.252 -15.381  18.451  0.00  0.00    +0.117 A 
ATOM      5  C   LIG    1       20.098 -14.826  17.504  0.00  0.00    +0.046 A 
ATOM      6  C   LIG    1       21.299 -15.465  17.176  0.00  0.00    +0.008 A 
ATOM      7  C   LIG    1       21.669 -16.671  17.796  0.00  0.00    -0.037 A 
ATOM      8  C   LIG    1       20.777 -17.212  18.748  0.00  0.00    +0.008 A 
ATOM      9  C   LIG    1       19.577 -16.576  19.076  0.00  0.00    +0.046 A 
BRANCH   4  10
ATOM     10  O   LIG    1       18.103 -14.712  18.753  0.00  0.00    -0.507 OA
ATOM     11  H   LIG    1       17.618 -14.550  17.928  0.00  0.00    +0.292 HD
ENDBRANCH   4  10
ENDBRANCH   1   7
BRANCH   1  12
ATOM     12  C   LIG    1       24.174 -16.473  17.985  0.00  0.00    -0.037 A 
ATOM     13  C   LIG    1       24.366 -16.229  19.362  0.00  0.00    +0.008 A 
ATOM     14  C   LIG    1       25.448 -15.477  19.824  0.00  0.00    +0.046 A 
ATOM     15  C   LIG    1       26.370 -14.974  18.921  0.00  0.00    +0.117 A 
ATOM     16  C   LIG    1       26.216 -15.194  17.559  0.00  0.00    +0.046 A 
ATOM     17  C   LIG    1       25.123 -15.933  17.095  0.00  0.00    +0.008 A 
BRANCH  15  18
ATOM     18  O   LIG    1       27.433 -14.278  19.416  0.00  0.00    -0.507 OA
ATOM     19  H   LIG    1       27.512 -13.446  18.923  0.00  0.00    +0.292 HD
ENDBRANCH  15  18
ENDBRANCH   1  12
TORSDOF 4
ENDMDL
MODEL 5
REMARK VINA RESULT:      -8.0      2.522      3.950
REMARK  Name = 
REMARK                            x       y       z     vdW  Elec       q    Type
REMARK                         _______ _______ _______ _____ _____    ______ ____
ROOT
ATOM      1  C   LIG    1       21.666 -15.240  17.588  0.00  0.00    +0.015 C 
ATOM      2  C   LIG    1       21.567 -14.409  16.278  0.00  0.00    +0.021 C 
ATOM      3  C   LIG    1       22.331 -14.273  18.608  0.00  0.00    +0.021 C 
ENDROOT
BRANCH   1   7
ATOM      4  C   LIG    1       24.264 -18.715  17.118  0.00  0.00    +0.117 A 
ATOM      5  C   LIG    1       24.132 -18.133  18.369  0.00  0.00    +0.046 A 
ATOM      6  C   LIG    1       23.287 -17.030  18.544  0.00  0.00    +0.008 A 
ATOM      7  C   LIG    1       22.565 -16.495  17.464  0.00  0.00    -0.037 A 
ATOM      8  C   LIG    1       22.717 -17.120  16.208  0.00  0.00    +0.008 A 
ATOM      9  C   LIG    1       23.557 -18.222  16.031  0.00  0.00    +0.046 A 
BRANCH   4  10
ATOM     10  O   LIG    1       25.113 -19.774  16.991  0.00  0.00    -0.507 OA
ATOM     11  H   LIG    1       25.637 -19.651  16.184  0.00  0.00    +0.292 HD
ENDBRANCH   4  10
ENDBRANCH   1   7
BRANCH   1  12
ATOM     12  C   LIG    1       20.240 -15.685  18.003  0.00  0.00    -0.037 A 
ATOM     13  C   LIG    1       19.162 -14.780  17.897  0.00  0.00    +0.008 A 
ATOM     14  C   LIG    1       17.852 -15.171  18.184  0.00  0.00    +0.046 A 
ATOM     15  C   LIG    1       17.593 -16.479  18.559  0.00  0.00    +0.117 A 
ATOM     16  C   LIG    1       18.626 -17.398  18.672  0.00  0.00    +0.046 A 
ATOM     17  C   LIG    1       19.940 -17.002  18.401  0.00  0.00    +0.008 A 
BRANCH  15  18
ATOM     18  O   LIG    1       16.297 -16.830  18.792  0.00  0.00    -0.507 OA
ATOM     19  H   LIG    1       16.286 -17.557  19.435  0.00  0.00    +0.292 HD
ENDBRANCH  15  18
ENDBRANCH   1  12
TORSDOF 4
ENDMDL
MODEL 6
REMARK VINA RESULT:      -8.0      2.660      6.406
REMARK  Name = 
REMARK                            x       y       z     vdW  Elec       q    Type
REMARK                         _______ _______ _______ _____ _____    ______ ____
ROOT
ATOM      1  C   LIG    1       21.559 -15.252  17.564  0.00  0.00    +0.015 C 
ATOM      2  C   LIG    1       22.226 -14.327  18.621  0.00  0.00    +0.021 C 
ATOM      3  C   LIG    1       21.528 -14.395  16.268  0.00  0.00    +0.021 C 
ENDROOT
BRANCH   1   7
ATOM      4  C   LIG    1       17.504 -16.430  18.667  0.00  0.00    +0.117 A 
ATOM      5  C   LIG    1       17.747 -15.121  18.280  0.00  0.00    +0.046 A 
ATOM      6  C   LIG    1       19.037 -14.730  17.903  0.00  0.00    +0.008 A 
ATOM      7  C   LIG    1       20.102 -15.647  17.911  0.00  0.00    -0.037 A 
ATOM      8  C   LIG    1       19.814 -16.973  18.301  0.00  0.00    +0.008 A 
ATOM      9  C   LIG    1       18.528 -17.367  18.675  0.00  0.00    +0.046 A 
BRANCH   4  10
ATOM     10  O   LIG    1       16.236 -16.761  19.044  0.00  0.00    -0.507 OA
ATOM     11  H   LIG    1       15.771 -15.949  19.299  0.00  0.00    +0.292 HD
ENDBRANCH   4  10
ENDBRANCH   1   7
BRANCH   1  12
ATOM     12  C   LIG    1       22.407 -16.542  17.428  0.00  0.00    -0.037 A 
ATOM     13  C   LIG    1       22.685 -17.071  16.149  0.00  0.00    +0.008 A 
ATOM     14  C   LIG    1       23.512 -18.184  15.984  0.00  0.00    +0.046 A 
ATOM     15  C   LIG    1       24.096 -18.775  17.093  0.00  0.00    +0.117 A 
ATOM     16  C   LIG    1       23.848 -18.283  18.367  0.00  0.00    +0.046 A 
ATOM     17  C   LIG    1       23.006 -17.178  18.533  0.00  0.00    +0.008 A 
BRANCH  15  18
ATOM     18  O   LIG    1       24.927 -19.835  16.886  0.00  0.00    -0.507 OA
ATOM     19  H   LIG    1       25.390 -20.030  17.716  0.00  0.00    +0.292 HD
ENDBRANCH  15  18
ENDBRANCH   1  12
TORSDOF 4
ENDMDL
MODEL 7
REMARK VINA RESULT:      -7.9      1.800      5.906
REMARK  Name = 
REMARK                            x       y       z     vdW  Elec       q    Type
REMARK                         _______ _______ _______ _____ _____    ______ ____
ROOT
ATOM      1  C   LIG    1       24.399 -16.293  17.786  0.00  0.00    +0.015 C 
ATOM      2  C   LIG    1       24.972 -16.346  16.342  0.00  0.00    +0.021 C 
ATOM      3  C   LIG    1       24.465 -17.765  18.281  0.00  0.00    +0.021 C 
ENDROOT
BRANCH   1   7
ATOM      4  C   LIG    1       20.215 -15.051  17.840  0.00  0.00    +0.117 A 
ATOM      5  C   LIG    1       20.730 -15.740  18.926  0.00  0.00    +0.046 A 
ATOM      6  C   LIG    1       22.075 -16.129  18.936  0.00  0.00    +0.008 A 
ATOM      7  C   LIG    1       22.921 -15.833  17.854  0.00  0.00    -0.037 A 
ATOM      8  C   LIG    1       22.363 -15.121  16.770  0.00  0.00    +0.008 A 
ATOM      9  C   LIG    1       21.022 -14.731  16.758  0.00  0.00    +0.046 A 
BRANCH   4  10
ATOM     10  O   LIG    1       18.895 -14.711  17.865  0.00  0.00    -0.507 OA
ATOM     11  H   LIG    1       18.809 -13.797  17.549  0.00  0.00    +0.292 HD
ENDBRANCH   4  10
ENDBRANCH   1   7
BRANCH   1  12
ATOM     12  C   LIG    1       25.264 -15.320  18.628  0.00  0.00    -0.037 A 
ATOM     13  C   LIG    1       26.329 -15.821  19.408  0.00  0.00    +0.008 A 
ATOM     14  C   LIG    1       27.179 -14.968  20.114  0.00  0.00    +0.046 A 
ATOM     15  C   LIG    1       26.995 -13.597  20.035  0.00  0.00    +0.117 A 
ATOM     16  C   LIG    1       25.961 -13.066  19.277  0.00  0.00    +0.046 A 
ATOM     17  C   LIG    1       25.099 -13.923  18.583  0.00  0.00    +0.008 A 
BRANCH  15  18
ATOM     18  O   LIG    1       27.870 -12.797  20.708  0.00  0.00    -0.507 OA
ATOM     19  H   LIG    1       28.768 -12.994  20.399  0.00  0.00    +0.292 HD
ENDBRANCH  15  18
ENDBRANCH   1  12
TORSDOF 4
ENDMDL
MODEL 8
REMARK VINA RESULT:      -7.9      1.651      2.108
REMARK  Name = 
REMARK                            x       y       z     vdW  Elec       q    Type
REMARK                         _______ _______ _______ _____ _____    ______ ____
ROOT
ATOM      1  C   LIG    1       25.165 -16.615  17.850  0.00  0.00    +0.015 C 
ATOM      2  C   LIG    1       25.138 -17.941  18.662  0.00  0.00    +0.021 C 
ATOM      3  C   LIG    1       25.718 -17.027  16.457  0.00  0.00    +0.021 C 
ENDROOT
BRANCH   1   7
ATOM      4  C   LIG    1       27.954 -13.674  19.471  0.00  0.00    +0.117 A 
ATOM      5  C   LIG    1       26.909 -13.245  18.667  0.00  0.00    +0.046 A 
ATOM      6  C   LIG    1       25.993 -14.171  18.155  0.00  0.00    +0.008 A 
ATOM      7  C   LIG    1       26.113 -15.542  18.441  0.00  0.00    -0.037 A 
ATOM      8  C   LIG    1       27.184 -15.940  19.271  0.00  0.00    +0.008 A 
ATOM      9  C   LIG    1       28.099 -15.018  19.785  0.00  0.00    +0.046 A 
BRANCH   4  10
ATOM     10  O   LIG    1       28.833 -12.739  19.930  0.00  0.00    -0.507 OA
ATOM     11  H   LIG    1       29.636 -13.196  20.228  0.00  0.00    +0.292 HD
ENDBRANCH   4  10
ENDBRANCH   1   7
BRANCH   1  12
ATOM     12  C   LIG    1       23.728 -16.037  17.796  0.00  0.00    -0.037 A 
ATOM     13  C   LIG    1       23.154 -15.693  16.553  0.00  0.00    +0.008 A 
ATOM     14  C   LIG    1       21.834 -15.246  16.459  0.00  0.00    +0.046 A 
ATOM     15  C   LIG    1       21.057 -15.157  17.602  0.00  0.00    +0.117 A 
ATOM     16  C   LIG    1       21.585 -15.488  18.842  0.00  0.00    +0.046 A 
ATOM     17  C   LIG    1       22.912 -15.920  18.938  0.00  0.00    +0.008 A 
BRANCH  15  18
ATOM     18  O   LIG    1       19.762 -14.754  17.462  0.00  0.00    -0.507 OA
ATOM     19  H   LIG    1       19.183 -15.511  17.644  0.00  0.00    +0.292 HD
ENDBRANCH  15  18
ENDBRANCH   1  12
TORSDOF 4
ENDMDL
MODEL 9
REMARK VINA RESULT:      -7.8      1.756      6.051
REMARK  Name = 
REMARK                            x       y       z     vdW  Elec       q    Type
REMARK                         _______ _______ _______ _____ _____    ______ ____
ROOT
ATOM      1  C   LIG    1       22.260 -15.473  17.147  0.00  0.00    +0.015 C 
ATOM      2  C   LIG    1       22.262 -13.931  16.941  0.00  0.00    +0.021 C 
ATOM      3  C   LIG    1       22.385 -16.054  15.711  0.00  0.00    +0.021 C 
ENDROOT
BRANCH   1   7
ATOM      4  C   LIG    1       18.650 -17.053  19.023  0.00  0.00    +0.117 A 
ATOM      5  C   LIG    1       18.634 -15.770  18.498  0.00  0.00    +0.046 A 
ATOM      6  C   LIG    1       19.776 -15.253  17.874  0.00  0.00    +0.008 A 
ATOM      7  C   LIG    1       20.951 -16.017  17.771  0.00  0.00    -0.037 A 
ATOM      8  C   LIG    1       20.926 -17.322  18.308  0.00  0.00    +0.008 A 
ATOM      9  C   LIG    1       19.788 -17.841  18.930  0.00  0.00    +0.046 A 
BRANCH   4  10
ATOM     10  O   LIG    1       17.521 -17.506  19.639  0.00  0.00    -0.507 OA
ATOM     11  H   LIG    1       17.737 -17.707  20.564  0.00  0.00    +0.292 HD
ENDBRANCH   4  10
ENDBRANCH   1   7
BRANCH   1  12
ATOM     12  C   LIG    1       23.447 -15.851  18.070  0.00  0.00    -0.037 A 
ATOM     13  C   LIG    1       24.374 -16.832  17.657  0.00  0.00    +0.008 A 
ATOM     14  C   LIG    1       25.500 -17.140  18.425  0.00  0.00    +0.046 A 
ATOM     15  C   LIG    1       25.732 -16.456  19.607  0.00  0.00    +0.117 A 
ATOM     16  C   LIG    1       24.844 -15.483  20.045  0.00  0.00    +0.046 A 
ATOM     17  C   LIG    1       23.708 -15.187  19.284  0.00  0.00    +0.008 A 
BRANCH  15  18
ATOM     18  O   LIG    1       26.861 -16.759  20.307  0.00  0.00    -0.507 OA
ATOM     19  H   LIG    1       26.623 -16.874  21.240  0.00  0.00    +0.292 HD
ENDBRANCH  15  18
ENDBRANCH   1  12
TORSDOF 4
ENDMDL
