MODEL 1
REMARK VINA RESULT:      -7.7      0.000      0.000
REMARK  Name = 
REMARK                            x       y       z     vdW  Elec       q    Type
REMARK                         _______ _______ _______ _____ _____    ______ ____
ROOT
ATOM      1  C   LIG    1        3.963   7.389  -2.357  0.00  0.00    +0.015 C 
ATOM      2  C   LIG    1        5.142   6.376  -2.394  0.00  0.00    +0.021 C 
ATOM      3  C   LIG    1        4.530   8.612  -1.584  0.00  0.00    +0.021 C 
ENDROOT
BRANCH   1   7
ATOM      4  C   LIG    1        0.448   6.071  -0.129  0.00  0.00    +0.117 A 
ATOM      5  C   LIG    1        0.542   5.779  -1.481  0.00  0.00    +0.046 A 
ATOM      6  C   LIG    1        1.670   6.175  -2.208  0.00  0.00    +0.008 A 
ATOM      7  C   LIG    1        2.721   6.872  -1.588  0.00  0.00    -0.037 A 
ATOM      8  C   LIG    1        2.596   7.143  -0.208  0.00  0.00    +0.008 A 
ATOM      9  C   LIG    1        1.471   6.747   0.520  0.00  0.00    +0.046 A 
BRANCH   4  10
ATOM     10  O   LIG    1       -0.678   5.683   0.534  0.00  0.00    -0.507 OA
ATOM     11  H   LIG    1       -1.242   5.190  -0.084  0.00  0.00    +0.292 HD
ENDBRANCH   4  10
ENDBRANCH   1   7
BRANCH   1  12
ATOM     12  C   LIG    1        3.547   7.719  -3.813  0.00  0.00    -0.037 A 
ATOM     13  C   LIG    1        3.215   9.044  -4.167  0.00  0.00    +0.008 A 
ATOM     14  C   LIG    1        2.914   9.393  -5.486  0.00  0.00    +0.046 A 
ATOM     15  C   LIG    1        2.963   8.428  -6.479  0.00  0.00    +0.117 A 
ATOM     16  C   LIG    1        3.286   7.114  -6.170  0.00  0.00    +0.046 A 
ATOM     17  C   LIG    1        3.571   6.762  -4.846  0.00  0.00    +0.008 A 
BRANCH  15  18
ATOM     18  O   LIG    1        2.700   8.816  -7.758  0.00  0.00    -0.507 OA
ATOM     19  H   LIG    1        2.859   8.062  -8.348  0.00  0.00    +0.292 HD
ENDBRANCH  15  18
ENDBRANCH   1  12
TORSDOF 4
ENDMDL
MODEL 2
REMARK VINA RESULT:      -7.7      0.076      5.524
REMARK  Name = 
REMARK                            x       y       z     vdW  Elec       q    Type
REMARK                         _______ _______ _______ _____ _____    ______ ____
ROOT
ATOM      1  C   LIG    1        3.977   7.368  -2.359  0.00  0.00    +0.015 C 
ATOM      2  C   LIG    1        4.536   8.578  -1.558  0.00  0.00    +0.021 C 
ATOM      3  C   LIG    1        5.160   6.361  -2.412  0.00  0.00    +0.021 C 
ENDROOT
BRANCH   1   7
ATOM      4  C   LIG    1        2.952   8.461  -6.459  0.00  0.00    +0.117 A 
ATOM      5  C   LIG    1        3.270   7.143  -6.169  0.00  0.00    +0.046 A 
ATOM      6  C   LIG    1        3.582   6.770  -4.856  0.00  0.00    +0.008 A 
ATOM      7  C   LIG    1        3.580   7.714  -3.816  0.00  0.00    -0.037 A 
ATOM      8  C   LIG    1        3.241   9.044  -4.147  0.00  0.00    +0.008 A 
ATOM      9  C   LIG    1        2.928   9.420  -5.456  0.00  0.00    +0.046 A 
BRANCH   4  10
ATOM     10  O   LIG    1        2.675   8.783  -7.754  0.00  0.00    -0.507 OA
ATOM     11  H   LIG    1        3.424   8.504  -8.305  0.00  0.00    +0.292 HD
ENDBRANCH   4  10
ENDBRANCH   1   7
BRANCH   1  12
ATOM     12  C   LIG    1        2.732   6.816  -1.619  0.00  0.00    -0.037 A 
ATOM     13  C   LIG    1        2.568   7.060  -0.239  0.00  0.00    +0.008 A 
ATOM     14  C   LIG    1        1.421   6.648   0.443  0.00  0.00    +0.046 A 
ATOM     15  C   LIG    1        0.406   6.006  -0.248  0.00  0.00    +0.117 A 
ATOM     16  C   LIG    1        0.529   5.750  -1.607  0.00  0.00    +0.046 A 
ATOM     17  C   LIG    1        1.686   6.148  -2.285  0.00  0.00    +0.008 A 
BRANCH  15  18
ATOM     18  O   LIG    1       -0.714   5.655   0.446  0.00  0.00    -0.507 OA
ATOM     19  H   LIG    1       -1.317   6.414   0.462  0.00  0.00    +0.292 HD
ENDBRANCH  15  18
ENDBRANCH   1  12
TORSDOF 4
ENDMDL
MODEL 3
REMARK VINA RESULT:      -7.3      2.751      3.873
REMARK  Name = 
REMARK                            x       y       z     vdW  Elec       q    Type
REMARK                         _______ _______ _______ _____ _____    ______ ____
ROOT
ATOM      1  C   LIG    1        3.949   7.591  -4.745  0.00  0.00    +0.015 C 
ATOM      2  C   LIG    1        2.635   7.573  -5.575  0.00  0.00    +0.021 C 
ATOM      3  C   LIG    1        5.043   7.124  -5.745  0.00  0.00    +0.021 C 
ENDROOT
BRANCH   1   7
ATOM      4  C   LIG    1        4.001   4.927  -1.288  0.00  0.00    +0.117 A 
ATOM      5  C   LIG    1        2.833   5.061  -2.022  0.00  0.00    +0.046 A 
ATOM      6  C   LIG    1        2.803   5.894  -3.146  0.00  0.00    +0.008 A 
ATOM      7  C   LIG    1        3.945   6.608  -3.548  0.00  0.00    -0.037 A 
ATOM      8  C   LIG    1        5.118   6.440  -2.781  0.00  0.00    +0.008 A 
ATOM      9  C   LIG    1        5.152   5.607  -1.660  0.00  0.00    +0.046 A 
BRANCH   4  10
ATOM     10  O   LIG    1        3.978   4.120  -0.189  0.00  0.00    -0.507 OA
ATOM     11  H   LIG    1        3.065   4.073   0.137  0.00  0.00    +0.292 HD
ENDBRANCH   4  10
ENDBRANCH   1   7
BRANCH   1  12
ATOM     12  C   LIG    1        4.178   9.029  -4.210  0.00  0.00    -0.037 A 
ATOM     13  C   LIG    1        3.527   9.453  -3.031  0.00  0.00    +0.008 A 
ATOM     14  C   LIG    1        3.772  10.711  -2.477  0.00  0.00    +0.046 A 
ATOM     15  C   LIG    1        4.688  11.559  -3.077  0.00  0.00    +0.117 A 
ATOM     16  C   LIG    1        5.349  11.177  -4.236  0.00  0.00    +0.046 A 
ATOM     17  C   LIG    1        5.091   9.923  -4.800  0.00  0.00    +0.008 A 
BRANCH  15  18
ATOM     18  O   LIG    1        4.927  12.762  -2.483  0.00  0.00    -0.507 OA
ATOM     19  H   LIG    1        5.842  12.770  -2.161  0.00  0.00    +0.292 HD
ENDBRANCH  15  18
ENDBRANCH   1  12
TORSDOF 4
ENDMDL
MODEL 4
REMARK VINA RESULT:      -7.2      1.913      2.845
REMARK  Name = 
REMARK                            x       y       z     vdW  Elec       q    Type
REMARK                         _______ _______ _______ _____ _____    ______ ____
ROOT
ATOM      1  C   LIG    1        3.902   7.019  -2.716  0.00  0.00    +0.015 C 
ATOM      2  C   LIG    1        3.827   6.517  -4.185  0.00  0.00    +0.021 C 
ATOM      3  C   LIG    1        5.160   6.318  -2.132  0.00  0.00    +0.021 C 
ENDROOT
BRANCH   1   7
ATOM      4  C   LIG    1        0.469   5.997  -0.222  0.00  0.00    +0.117 A 
ATOM      5  C   LIG    1        0.424   5.725  -1.581  0.00  0.00    +0.046 A 
ATOM      6  C   LIG    1        1.523   6.027  -2.393  0.00  0.00    +0.008 A 
ATOM      7  C   LIG    1        2.683   6.608  -1.853  0.00  0.00    -0.037 A 
ATOM      8  C   LIG    1        2.696   6.861  -0.464  0.00  0.00    +0.008 A 
ATOM      9  C   LIG    1        1.601   6.559   0.349  0.00  0.00    +0.046 A 
BRANCH   4  10
ATOM     10  O   LIG    1       -0.632   5.704   0.526  0.00  0.00    -0.507 OA
ATOM     11  H   LIG    1       -0.461   5.977   1.442  0.00  0.00    +0.292 HD
ENDBRANCH   4  10
ENDBRANCH   1   7
BRANCH   1  12
ATOM     12  C   LIG    1        4.008   8.566  -2.726  0.00  0.00    -0.037 A 
ATOM     13  C   LIG    1        3.413   9.306  -3.770  0.00  0.00    +0.008 A 
ATOM     14  C   LIG    1        3.419  10.702  -3.769  0.00  0.00    +0.046 A 
ATOM     15  C   LIG    1        3.999  11.385  -2.712  0.00  0.00    +0.117 A 
ATOM     16  C   LIG    1        4.592  10.693  -1.666  0.00  0.00    +0.046 A 
ATOM     17  C   LIG    1        4.601   9.294  -1.676  0.00  0.00    +0.008 A 
BRANCH  15  18
ATOM     18  O   LIG    1        3.950  12.747  -2.730  0.00  0.00    -0.507 OA
ATOM     19  H   LIG    1        4.019  13.069  -1.818  0.00  0.00    +0.292 HD
ENDBRANCH  15  18
ENDBRANCH   1  12
TORSDOF 4
ENDMDL
MODEL 5
REMARK VINA RESULT:      -7.2      1.999      5.862
REMARK  Name = 
REMARK                            x       y       z     vdW  Elec       q    Type
REMARK                         _______ _______ _______ _____ _____    ______ ____
ROOT
ATOM      1  C   LIG    1        4.223   9.254  -2.223  0.00  0.00    +0.015 C 
ATOM      2  C   LIG    1        3.173  10.148  -1.505  0.00  0.00    +0.021 C 
ATOM      3  C   LIG    1        5.585   9.937  -1.916  0.00  0.00    +0.021 C 
ENDROOT
BRANCH   1   7
ATOM      4  C   LIG    1        3.590   9.138  -6.540  0.00  0.00    +0.117 A 
ATOM      5  C   LIG    1        4.645   9.878  -6.030  0.00  0.00    +0.046 A 
ATOM      6  C   LIG    1        4.877   9.911  -4.650  0.00  0.00    +0.008 A 
ATOM      7  C   LIG    1        4.050   9.202  -3.761  0.00  0.00    -0.037 A 
ATOM      8  C   LIG    1        2.992   8.451  -4.318  0.00  0.00    +0.008 A 
ATOM      9  C   LIG    1        2.760   8.416  -5.694  0.00  0.00    +0.046 A 
BRANCH   4  10
ATOM     10  O   LIG    1        3.391   9.151  -7.888  0.00  0.00    -0.507 OA
ATOM     11  H   LIG    1        4.182   9.522  -8.310  0.00  0.00    +0.292 HD
ENDBRANCH   4  10
ENDBRANCH   1   7
BRANCH   1  12
ATOM     12  C   LIG    1        4.116   7.814  -1.659  0.00  0.00    -0.037 A 
ATOM     13  C   LIG    1        4.981   6.805  -2.136  0.00  0.00    +0.008 A 
ATOM     14  C   LIG    1        4.968   5.518  -1.594  0.00  0.00    +0.046 A 
ATOM     15  C   LIG    1        4.107   5.222  -0.550  0.00  0.00    +0.117 A 
ATOM     16  C   LIG    1        3.243   6.188  -0.053  0.00  0.00    +0.046 A 
ATOM     17  C   LIG    1        3.244   7.472  -0.607  0.00  0.00    +0.008 A 
BRANCH  15  18
ATOM     18  O   LIG    1        4.152   3.966  -0.024  0.00  0.00    -0.507 OA
ATOM     19  H   LIG    1        3.370   3.477  -0.326  0.00  0.00    +0.292 HD
ENDBRANCH  15  18
ENDBRANCH   1  12
TORSDOF 4
ENDMDL
MODEL 6
REMARK VINA RESULT:      -7.2      1.864      2.522
REMARK  Name = 
REMARK                            x       y       z     vdW  Elec       q    Type
REMARK                         _______ _______ _______ _____ _____    ______ ____
ROOT
ATOM      1  C   LIG    1        4.009   9.111  -2.234  0.00  0.00    +0.015 C 
ATOM      2  C   LIG    1        5.412   9.779  -2.206  0.00  0.00    +0.021 C 
ATOM      3  C   LIG    1        3.115  10.057  -1.385  0.00  0.00    +0.021 C 
ENDROOT
BRANCH   1   7
ATOM      4  C   LIG    1        4.056   5.164  -0.373  0.00  0.00    +0.117 A 
ATOM      5  C   LIG    1        3.118   6.096   0.041  0.00  0.00    +0.046 A 
ATOM      6  C   LIG    1        3.074   7.360  -0.558  0.00  0.00    +0.008 A 
ATOM      7  C   LIG    1        3.973   7.707  -1.581  0.00  0.00    -0.037 A 
ATOM      8  C   LIG    1        4.907   6.728  -1.983  0.00  0.00    +0.008 A 
ATOM      9  C   LIG    1        4.953   5.466  -1.388  0.00  0.00    +0.046 A 
BRANCH   4  10
ATOM     10  O   LIG    1        4.075   3.952   0.253  0.00  0.00    -0.507 OA
ATOM     11  H   LIG    1        3.161   3.705   0.468  0.00  0.00    +0.292 HD
ENDBRANCH   4  10
ENDBRANCH   1   7
BRANCH   1  12
ATOM     12  C   LIG    1        3.547   8.988  -3.709  0.00  0.00    -0.037 A 
ATOM     13  C   LIG    1        3.621  10.108  -4.565  0.00  0.00    +0.008 A 
ATOM     14  C   LIG    1        3.290  10.013  -5.919  0.00  0.00    +0.046 A 
ATOM     15  C   LIG    1        2.904   8.792  -6.447  0.00  0.00    +0.117 A 
ATOM     16  C   LIG    1        2.822   7.668  -5.637  0.00  0.00    +0.046 A 
ATOM     17  C   LIG    1        3.136   7.767  -4.277  0.00  0.00    +0.008 A 
BRANCH  15  18
ATOM     18  O   LIG    1        2.628   8.733  -7.780  0.00  0.00    -0.507 OA
ATOM     19  H   LIG    1        1.725   8.397  -7.893  0.00  0.00    +0.292 HD
ENDBRANCH  15  18
ENDBRANCH   1  12
TORSDOF 4
ENDMDL
MODEL 7
REMARK VINA RESULT:      -7.0      2.852      3.887
REMARK  Name = 
REMARK                            x       y       z     vdW  Elec       q    Type
REMARK                         _______ _______ _______ _____ _____    ______ ____
ROOT
ATOM      1  C   LIG    1        3.775   7.861  -4.909  0.00  0.00    +0.015 C 
ATOM      2  C   LIG    1        3.789   9.372  -4.540  0.00  0.00    +0.021 C 
ATOM      3  C   LIG    1        2.419   7.657  -5.642  0.00  0.00    +0.021 C 
ENDROOT
BRANCH   1   7
ATOM      4  C   LIG    1        3.808   5.092  -1.536  0.00  0.00    +0.117 A 
ATOM      5  C   LIG    1        4.879   5.953  -1.715  0.00  0.00    +0.046 A 
ATOM      6  C   LIG    1        4.877   6.863  -2.779  0.00  0.00    +0.008 A 
ATOM      7  C   LIG    1        3.800   6.919  -3.680  0.00  0.00    -0.037 A 
ATOM      8  C   LIG    1        2.722   6.034  -3.460  0.00  0.00    +0.008 A 
ATOM      9  C   LIG    1        2.721   5.126  -2.398  0.00  0.00    +0.046 A 
BRANCH   4  10
ATOM     10  O   LIG    1        3.862   4.210  -0.498  0.00  0.00    -0.507 OA
ATOM     11  H   LIG    1        3.105   3.606  -0.570  0.00  0.00    +0.292 HD
ENDBRANCH   4  10
ENDBRANCH   1   7
BRANCH   1  12
ATOM     12  C   LIG    1        5.008   7.557  -5.798  0.00  0.00    -0.037 A 
ATOM     13  C   LIG    1        5.735   8.617  -6.380  0.00  0.00    +0.008 A 
ATOM     14  C   LIG    1        6.897   8.384  -7.119  0.00  0.00    +0.046 A 
ATOM     15  C   LIG    1        7.366   7.089  -7.270  0.00  0.00    +0.117 A 
ATOM     16  C   LIG    1        6.679   6.020  -6.711  0.00  0.00    +0.046 A 
ATOM     17  C   LIG    1        5.506   6.253  -5.985  0.00  0.00    +0.008 A 
BRANCH  15  18
ATOM     18  O   LIG    1        8.524   6.908  -7.965  0.00  0.00    -0.507 OA
ATOM     19  H   LIG    1        9.029   6.196  -7.542  0.00  0.00    +0.292 HD
ENDBRANCH  15  18
ENDBRANCH   1  12
TORSDOF 4
ENDMDL
MODEL 8
REMARK VINA RESULT:      -6.9      3.690      5.016
REMARK  Name = 
REMARK                            x       y       z     vdW  Elec       q    Type
REMARK                         _______ _______ _______ _____ _____    ______ ____
ROOT
ATOM      1  C   LIG    1        3.548   8.144  -5.089  0.00  0.00    +0.015 C 
ATOM      2  C   LIG    1        2.469   8.568  -6.125  0.00  0.00    +0.021 C 
ATOM      3  C   LIG    1        2.872   7.010  -4.269  0.00  0.00    +0.021 C 
ENDROOT
BRANCH   1   7
ATOM      4  C   LIG    1        4.809  11.272  -2.318  0.00  0.00    +0.117 A 
ATOM      5  C   LIG    1        4.061  11.616  -3.433  0.00  0.00    +0.046 A 
ATOM      6  C   LIG    1        3.630  10.625  -4.322  0.00  0.00    +0.008 A 
ATOM      7  C   LIG    1        3.946   9.273  -4.105  0.00  0.00    -0.037 A 
ATOM      8  C   LIG    1        4.700   8.959  -2.954  0.00  0.00    +0.008 A 
ATOM      9  C   LIG    1        5.130   9.946  -2.064  0.00  0.00    +0.046 A 
BRANCH   4  10
ATOM     10  O   LIG    1        5.223  12.272  -1.490  0.00  0.00    -0.507 OA
ATOM     11  H   LIG    1        5.532  11.875  -0.660  0.00  0.00    +0.292 HD
ENDBRANCH   4  10
ENDBRANCH   1   7
BRANCH   1  12
ATOM     12  C   LIG    1        4.814   7.679  -5.854  0.00  0.00    -0.037 A 
ATOM     13  C   LIG    1        5.604   8.623  -6.546  0.00  0.00    +0.008 A 
ATOM     14  C   LIG    1        6.794   8.253  -7.178  0.00  0.00    +0.046 A 
ATOM     15  C   LIG    1        7.228   6.939  -7.109  0.00  0.00    +0.117 A 
ATOM     16  C   LIG    1        6.479   5.983  -6.436  0.00  0.00    +0.046 A 
ATOM     17  C   LIG    1        5.279   6.351  -5.818  0.00  0.00    +0.008 A 
BRANCH  15  18
ATOM     18  O   LIG    1        8.413   6.628  -7.705  0.00  0.00    -0.507 OA
ATOM     19  H   LIG    1        8.463   7.096  -8.553  0.00  0.00    +0.292 HD
ENDBRANCH  15  18
ENDBRANCH   1  12
TORSDOF 4
ENDMDL
MODEL 9
REMARK VINA RESULT:      -6.9      3.733      6.302
REMARK  Name = 
REMARK                            x       y       z     vdW  Elec       q    Type
REMARK                         _______ _______ _______ _____ _____    ______ ____
ROOT
ATOM      1  C   LIG    1        3.567   7.894  -5.104  0.00  0.00    +0.015 C 
ATOM      2  C   LIG    1        3.006   6.810  -4.141  0.00  0.00    +0.021 C 
ATOM      3  C   LIG    1        2.453   8.073  -6.173  0.00  0.00    +0.021 C 
ENDROOT
BRANCH   1   7
ATOM      4  C   LIG    1        7.296   6.814  -7.098  0.00  0.00    +0.117 A 
ATOM      5  C   LIG    1        6.582   5.837  -6.423  0.00  0.00    +0.046 A 
ATOM      6  C   LIG    1        5.374   6.160  -5.794  0.00  0.00    +0.008 A 
ATOM      7  C   LIG    1        4.866   7.469  -5.834  0.00  0.00    -0.037 A 
ATOM      8  C   LIG    1        5.615   8.435  -6.540  0.00  0.00    +0.008 A 
ATOM      9  C   LIG    1        6.820   8.116  -7.169  0.00  0.00    +0.046 A 
BRANCH   4  10
ATOM     10  O   LIG    1        8.477   6.458  -7.678  0.00  0.00    -0.507 OA
ATOM     11  H   LIG    1        8.358   5.598  -8.113  0.00  0.00    +0.292 HD
ENDBRANCH   4  10
ENDBRANCH   1   7
BRANCH   1  12
ATOM     12  C   LIG    1        3.851   9.182  -4.289  0.00  0.00    -0.037 A 
ATOM     13  C   LIG    1        4.668   9.122  -3.140  0.00  0.00    +0.008 A 
ATOM     14  C   LIG    1        5.011  10.274  -2.428  0.00  0.00    +0.046 A 
ATOM     15  C   LIG    1        4.562  11.509  -2.865  0.00  0.00    +0.117 A 
ATOM     16  C   LIG    1        3.758  11.609  -3.992  0.00  0.00    +0.046 A 
ATOM     17  C   LIG    1        3.401  10.453  -4.695  0.00  0.00    +0.008 A 
BRANCH  15  18
ATOM     18  O   LIG    1        4.950  12.613  -2.166  0.00  0.00    -0.507 OA
ATOM     19  H   LIG    1        4.184  13.200  -2.067  0.00  0.00    +0.292 HD
ENDBRANCH  15  18
ENDBRANCH   1  12
TORSDOF 4
ENDMDL
