MODEL 1
REMARK VINA RESULT:      -8.2      0.000      0.000
REMARK  Name = 
REMARK                            x       y       z     vdW  Elec       q    Type
REMARK                         _______ _______ _______ _____ _____    ______ ____
ROOT
ATOM      1  C   LIG    1        2.893  31.948   4.186  0.00  0.00    +0.015 C 
ATOM      2  C   LIG    1        4.110  32.724   4.764  0.00  0.00    +0.021 C 
ATOM      3  C   LIG    1        2.985  32.177   2.652  0.00  0.00    +0.021 C 
ENDROOT
BRANCH   1   7
ATOM      4  C   LIG    1       -0.895  33.549   5.649  0.00  0.00    +0.117 A 
ATOM      5  C   LIG    1       -0.635  33.562   4.287  0.00  0.00    +0.046 A 
ATOM      6  C   LIG    1        0.565  33.034   3.797  0.00  0.00    +0.008 A 
ATOM      7  C   LIG    1        1.523  32.488   4.668  0.00  0.00    -0.037 A 
ATOM      8  C   LIG    1        1.220  32.483   6.047  0.00  0.00    +0.008 A 
ATOM      9  C   LIG    1        0.022  33.007   6.538  0.00  0.00    +0.046 A 
BRANCH   4  10
ATOM     10  O   LIG    1       -2.068  34.092   6.082  0.00  0.00    -0.507 OA
ATOM     11  H   LIG    1       -2.351  33.613   6.878  0.00  0.00    +0.292 HD
ENDBRANCH   4  10
ENDBRANCH   1   7
BRANCH   1  12
ATOM     12  C   LIG    1        3.015  30.458   4.595  0.00  0.00    -0.037 A 
ATOM     13  C   LIG    1        2.056  29.524   4.147  0.00  0.00    +0.008 A 
ATOM     14  C   LIG    1        2.178  28.162   4.428  0.00  0.00    +0.046 A 
ATOM     15  C   LIG    1        3.274  27.704   5.142  0.00  0.00    +0.117 A 
ATOM     16  C   LIG    1        4.239  28.592   5.599  0.00  0.00    +0.046 A 
ATOM     17  C   LIG    1        4.106  29.959   5.331  0.00  0.00    +0.008 A 
BRANCH  15  18
ATOM     18  O   LIG    1        3.376  26.363   5.362  0.00  0.00    -0.507 OA
ATOM     19  H   LIG    1        4.178  26.197   5.882  0.00  0.00    +0.292 HD
ENDBRANCH  15  18
ENDBRANCH   1  12
TORSDOF 4
ENDMDL
MODEL 2
REMARK VINA RESULT:      -8.2      0.162      5.591
REMARK  Name = 
REMARK                            x       y       z     vdW  Elec       q    Type
REMARK                         _______ _______ _______ _____ _____    ______ ____
ROOT
ATOM      1  C   LIG    1        2.857  32.032   4.170  0.00  0.00    +0.015 C 
ATOM      2  C   LIG    1        3.008  32.328   2.651  0.00  0.00    +0.021 C 
ATOM      3  C   LIG    1        4.052  32.778   4.827  0.00  0.00    +0.021 C 
ENDROOT
BRANCH   1   7
ATOM      4  C   LIG    1        3.227  27.838   5.321  0.00  0.00    +0.117 A 
ATOM      5  C   LIG    1        2.123  28.244   4.587  0.00  0.00    +0.046 A 
ATOM      6  C   LIG    1        1.998  29.581   4.191  0.00  0.00    +0.008 A 
ATOM      7  C   LIG    1        2.977  30.530   4.528  0.00  0.00    -0.037 A 
ATOM      8  C   LIG    1        4.092  30.078   5.268  0.00  0.00    +0.008 A 
ATOM      9  C   LIG    1        4.221  28.745   5.663  0.00  0.00    +0.046 A 
BRANCH   4  10
ATOM     10  O   LIG    1        3.297  26.531   5.702  0.00  0.00    -0.507 OA
ATOM     11  H   LIG    1        3.854  26.057   5.064  0.00  0.00    +0.292 HD
ENDBRANCH   4  10
ENDBRANCH   1   7
BRANCH   1  12
ATOM     12  C   LIG    1        1.474  32.549   4.641  0.00  0.00    -0.037 A 
ATOM     13  C   LIG    1        1.182  32.620   6.020  0.00  0.00    +0.008 A 
ATOM     14  C   LIG    1       -0.022  33.156   6.483  0.00  0.00    +0.046 A 
ATOM     15  C   LIG    1       -0.945  33.653   5.578  0.00  0.00    +0.117 A 
ATOM     16  C   LIG    1       -0.693  33.602   4.214  0.00  0.00    +0.046 A 
ATOM     17  C   LIG    1        0.506  33.049   3.750  0.00  0.00    +0.008 A 
BRANCH  15  18
ATOM     18  O   LIG    1       -2.090  34.202   6.072  0.00  0.00    -0.507 OA
ATOM     19  H   LIG    1       -2.374  33.684   6.841  0.00  0.00    +0.292 HD
ENDBRANCH  15  18
ENDBRANCH   1  12
TORSDOF 4
ENDMDL
MODEL 3
REMARK VINA RESULT:      -7.9      1.335      5.465
REMARK  Name = 
REMARK                            x       y       z     vdW  Elec       q    Type
REMARK                         _______ _______ _______ _____ _____    ______ ____
ROOT
ATOM      1  C   LIG    1        2.566  32.002   4.380  0.00  0.00    +0.015 C 
ATOM      2  C   LIG    1        3.179  32.145   2.958  0.00  0.00    +0.021 C 
ATOM      3  C   LIG    1        3.745  32.320   5.341  0.00  0.00    +0.021 C 
ENDROOT
BRANCH   1   7
ATOM      4  C   LIG    1        1.148  28.010   5.430  0.00  0.00    +0.117 A 
ATOM      5  C   LIG    1        0.488  28.725   4.443  0.00  0.00    +0.046 A 
ATOM      6  C   LIG    1        0.940  29.998   4.078  0.00  0.00    +0.008 A 
ATOM      7  C   LIG    1        2.061  30.573   4.701  0.00  0.00    -0.037 A 
ATOM      8  C   LIG    1        2.714  29.811   5.694  0.00  0.00    +0.008 A 
ATOM      9  C   LIG    1        2.265  28.540   6.059  0.00  0.00    +0.046 A 
BRANCH   4  10
ATOM     10  O   LIG    1        0.660  26.782   5.767  0.00  0.00    -0.507 OA
ATOM     11  H   LIG    1        1.211  26.419   6.478  0.00  0.00    +0.292 HD
ENDBRANCH   4  10
ENDBRANCH   1   7
BRANCH   1  12
ATOM     12  C   LIG    1        1.380  32.992   4.511  0.00  0.00    -0.037 A 
ATOM     13  C   LIG    1        0.887  33.654   3.367  0.00  0.00    +0.008 A 
ATOM     14  C   LIG    1       -0.230  34.490   3.434  0.00  0.00    +0.046 A 
ATOM     15  C   LIG    1       -0.888  34.661   4.641  0.00  0.00    +0.117 A 
ATOM     16  C   LIG    1       -0.434  34.024   5.788  0.00  0.00    +0.046 A 
ATOM     17  C   LIG    1        0.695  33.201   5.723  0.00  0.00    +0.008 A 
BRANCH  15  18
ATOM     18  O   LIG    1       -1.997  35.454   4.656  0.00  0.00    -0.507 OA
ATOM     19  H   LIG    1       -1.831  36.225   4.092  0.00  0.00    +0.292 HD
ENDBRANCH  15  18
ENDBRANCH   1  12
TORSDOF 4
ENDMDL
MODEL 4
REMARK VINA RESULT:      -7.8      1.322      2.173
REMARK  Name = 
REMARK                            x       y       z     vdW  Elec       q    Type
REMARK                         _______ _______ _______ _____ _____    ______ ____
ROOT
ATOM      1  C   LIG    1        2.594  31.962   4.428  0.00  0.00    +0.015 C 
ATOM      2  C   LIG    1        3.750  32.285   5.416  0.00  0.00    +0.021 C 
ATOM      3  C   LIG    1        3.232  32.130   3.021  0.00  0.00    +0.021 C 
ENDROOT
BRANCH   1   7
ATOM      4  C   LIG    1       -0.847  34.642   4.596  0.00  0.00    +0.117 A 
ATOM      5  C   LIG    1       -0.376  34.070   5.768  0.00  0.00    +0.046 A 
ATOM      6  C   LIG    1        0.738  33.224   5.737  0.00  0.00    +0.008 A 
ATOM      7  C   LIG    1        1.396  32.939   4.528  0.00  0.00    -0.037 A 
ATOM      8  C   LIG    1        0.895  33.547   3.357  0.00  0.00    +0.008 A 
ATOM      9  C   LIG    1       -0.217  34.393   3.385  0.00  0.00    +0.046 A 
BRANCH   4  10
ATOM     10  O   LIG    1       -1.948  35.443   4.672  0.00  0.00    -0.507 OA
ATOM     11  H   LIG    1       -1.689  36.278   5.094  0.00  0.00    +0.292 HD
ENDBRANCH   4  10
ENDBRANCH   1   7
BRANCH   1  12
ATOM     12  C   LIG    1        2.090  30.523   4.707  0.00  0.00    -0.037 A 
ATOM     13  C   LIG    1        2.732  29.730   5.682  0.00  0.00    +0.008 A 
ATOM     14  C   LIG    1        2.256  28.460   6.017  0.00  0.00    +0.046 A 
ATOM     15  C   LIG    1        1.116  27.970   5.401  0.00  0.00    +0.117 A 
ATOM     16  C   LIG    1        0.456  28.721   4.438  0.00  0.00    +0.046 A 
ATOM     17  C   LIG    1        0.944  29.986   4.091  0.00  0.00    +0.008 A 
BRANCH  15  18
ATOM     18  O   LIG    1        0.662  26.743   5.784  0.00  0.00    -0.507 OA
ATOM     19  H   LIG    1       -0.292  26.702   5.614  0.00  0.00    +0.292 HD
ENDBRANCH  15  18
ENDBRANCH   1  12
TORSDOF 4
ENDMDL
MODEL 5
REMARK VINA RESULT:      -7.5      1.832      5.765
REMARK  Name = 
REMARK                            x       y       z     vdW  Elec       q    Type
REMARK                         _______ _______ _______ _____ _____    ______ ____
ROOT
ATOM      1  C   LIG    1        2.444  32.377   4.262  0.00  0.00    +0.015 C 
ATOM      2  C   LIG    1        3.056  32.335   2.834  0.00  0.00    +0.021 C 
ATOM      3  C   LIG    1        3.623  32.818   5.174  0.00  0.00    +0.021 C 
ENDROOT
BRANCH   1   7
ATOM      4  C   LIG    1        1.145  28.436   5.615  0.00  0.00    +0.117 A 
ATOM      5  C   LIG    1        1.182  29.484   6.521  0.00  0.00    +0.046 A 
ATOM      6  C   LIG    1        1.576  30.760   6.101  0.00  0.00    +0.008 A 
ATOM      7  C   LIG    1        1.941  31.001   4.766  0.00  0.00    -0.037 A 
ATOM      8  C   LIG    1        1.881  29.912   3.869  0.00  0.00    +0.008 A 
ATOM      9  C   LIG    1        1.486  28.638   4.285  0.00  0.00    +0.046 A 
BRANCH   4  10
ATOM     10  O   LIG    1        0.774  27.206   6.072  0.00  0.00    -0.507 OA
ATOM     11  H   LIG    1        1.368  26.958   6.799  0.00  0.00    +0.292 HD
ENDBRANCH   4  10
ENDBRANCH   1   7
BRANCH   1  12
ATOM     12  C   LIG    1        1.257  33.374   4.264  0.00  0.00    -0.037 A 
ATOM     13  C   LIG    1        1.425  34.666   4.808  0.00  0.00    +0.008 A 
ATOM     14  C   LIG    1        0.404  35.617   4.754  0.00  0.00    +0.046 A 
ATOM     15  C   LIG    1       -0.795  35.303   4.135  0.00  0.00    +0.117 A 
ATOM     16  C   LIG    1       -0.997  34.043   3.587  0.00  0.00    +0.046 A 
ATOM     17  C   LIG    1        0.020  33.085   3.657  0.00  0.00    +0.008 A 
BRANCH  15  18
ATOM     18  O   LIG    1       -1.752  36.271   4.070  0.00  0.00    -0.507 OA
ATOM     19  H   LIG    1       -2.343  36.070   3.328  0.00  0.00    +0.292 HD
ENDBRANCH  15  18
ENDBRANCH   1  12
TORSDOF 4
ENDMDL
MODEL 6
REMARK VINA RESULT:      -7.1      1.397      5.799
REMARK  Name = 
REMARK                            x       y       z     vdW  Elec       q    Type
REMARK                         _______ _______ _______ _____ _____    ______ ____
ROOT
ATOM      1  C   LIG    1        2.400  30.967   6.127  0.00  0.00    +0.015 C 
ATOM      2  C   LIG    1        3.667  31.858   6.257  0.00  0.00    +0.021 C 
ATOM      3  C   LIG    1        1.952  30.718   7.595  0.00  0.00    +0.021 C 
ENDROOT
BRANCH   1   7
ATOM      4  C   LIG    1        3.221  27.041   4.407  0.00  0.00    +0.117 A 
ATOM      5  C   LIG    1        1.962  27.599   4.249  0.00  0.00    +0.046 A 
ATOM      6  C   LIG    1        1.686  28.866   4.776  0.00  0.00    +0.008 A 
ATOM      7  C   LIG    1        2.669  29.590   5.471  0.00  0.00    -0.037 A 
ATOM      8  C   LIG    1        3.942  28.994   5.603  0.00  0.00    +0.008 A 
ATOM      9  C   LIG    1        4.221  27.730   5.077  0.00  0.00    +0.046 A 
BRANCH   4  10
ATOM     10  O   LIG    1        3.438  25.796   3.894  0.00  0.00    -0.507 OA
ATOM     11  H   LIG    1        4.251  25.441   4.287  0.00  0.00    +0.292 HD
ENDBRANCH   4  10
ENDBRANCH   1   7
BRANCH   1  12
ATOM     12  C   LIG    1        1.344  31.725   5.282  0.00  0.00    -0.037 A 
ATOM     13  C   LIG    1        0.001  31.776   5.714  0.00  0.00    +0.008 A 
ATOM     14  C   LIG    1       -0.959  32.517   5.021  0.00  0.00    +0.046 A 
ATOM     15  C   LIG    1       -0.590  33.240   3.899  0.00  0.00    +0.117 A 
ATOM     16  C   LIG    1        0.722  33.216   3.445  0.00  0.00    +0.046 A 
ATOM     17  C   LIG    1        1.680  32.460   4.129  0.00  0.00    +0.008 A 
BRANCH  15  18
ATOM     18  O   LIG    1       -1.548  33.980   3.274  0.00  0.00    -0.507 OA
ATOM     19  H   LIG    1       -1.135  34.785   2.923  0.00  0.00    +0.292 HD
ENDBRANCH  15  18
ENDBRANCH   1  12
TORSDOF 4
ENDMDL
MODEL 7
REMARK VINA RESULT:      -7.1      1.397      2.277
REMARK  Name = 
REMARK                            x       y       z     vdW  Elec       q    Type
REMARK                         _______ _______ _______ _____ _____    ______ ____
ROOT
ATOM      1  C   LIG    1        2.419  30.960   6.152  0.00  0.00    +0.015 C 
ATOM      2  C   LIG    1        2.003  30.697   7.627  0.00  0.00    +0.021 C 
ATOM      3  C   LIG    1        3.686  31.853   6.263  0.00  0.00    +0.021 C 
ENDROOT
BRANCH   1   7
ATOM      4  C   LIG    1       -0.619  33.211   3.973  0.00  0.00    +0.117 A 
ATOM      5  C   LIG    1        0.684  33.199   3.500  0.00  0.00    +0.046 A 
ATOM      6  C   LIG    1        1.668  32.466   4.174  0.00  0.00    +0.008 A 
ATOM      7  C   LIG    1        1.358  31.736   5.333  0.00  0.00    -0.037 A 
ATOM      8  C   LIG    1        0.019  31.763   5.780  0.00  0.00    +0.008 A 
ATOM      9  C   LIG    1       -0.966  32.492   5.108  0.00  0.00    +0.046 A 
BRANCH   4  10
ATOM     10  O   LIG    1       -1.540  33.954   3.296  0.00  0.00    -0.507 OA
ATOM     11  H   LIG    1       -2.167  33.349   2.868  0.00  0.00    +0.292 HD
ENDBRANCH   4  10
ENDBRANCH   1   7
BRANCH   1  12
ATOM     12  C   LIG    1        2.685  29.597   5.461  0.00  0.00    -0.037 A 
ATOM     13  C   LIG    1        3.960  28.998   5.554  0.00  0.00    +0.008 A 
ATOM     14  C   LIG    1        4.212  27.735   5.014  0.00  0.00    +0.046 A 
ATOM     15  C   LIG    1        3.189  27.038   4.392  0.00  0.00    +0.117 A 
ATOM     16  C   LIG    1        1.922  27.594   4.282  0.00  0.00    +0.046 A 
ATOM     17  C   LIG    1        1.674  28.866   4.809  0.00  0.00    +0.008 A 
BRANCH  15  18
ATOM     18  O   LIG    1        3.467  25.793   3.912  0.00  0.00    -0.507 OA
ATOM     19  H   LIG    1        4.120  25.377   4.496  0.00  0.00    +0.292 HD
ENDBRANCH  15  18
ENDBRANCH   1  12
TORSDOF 4
ENDMDL
MODEL 8
REMARK VINA RESULT:      -6.7      1.819      5.865
REMARK  Name = 
REMARK                            x       y       z     vdW  Elec       q    Type
REMARK                         _______ _______ _______ _____ _____    ______ ____
ROOT
ATOM      1  C   LIG    1        1.431  30.486   6.577  0.00  0.00    +0.015 C 
ATOM      2  C   LIG    1        2.249  30.884   7.838  0.00  0.00    +0.021 C 
ATOM      3  C   LIG    1        0.043  30.067   7.135  0.00  0.00    +0.021 C 
ENDROOT
BRANCH   1   7
ATOM      4  C   LIG    1        3.182  27.056   4.523  0.00  0.00    +0.117 A 
ATOM      5  C   LIG    1        1.803  27.181   4.576  0.00  0.00    +0.046 A 
ATOM      6  C   LIG    1        1.223  28.285   5.213  0.00  0.00    +0.008 A 
ATOM      7  C   LIG    1        2.020  29.278   5.807  0.00  0.00    -0.037 A 
ATOM      8  C   LIG    1        3.421  29.122   5.724  0.00  0.00    +0.008 A 
ATOM      9  C   LIG    1        4.002  28.022   5.088  0.00  0.00    +0.046 A 
BRANCH   4  10
ATOM     10  O   LIG    1        3.702  25.954   3.911  0.00  0.00    -0.507 OA
ATOM     11  H   LIG    1        4.575  25.774   4.295  0.00  0.00    +0.292 HD
ENDBRANCH   4  10
ENDBRANCH   1   7
BRANCH   1  12
ATOM     12  C   LIG    1        1.368  31.705   5.621  0.00  0.00    -0.037 A 
ATOM     13  C   LIG    1        0.221  31.918   4.827  0.00  0.00    +0.008 A 
ATOM     14  C   LIG    1        0.095  33.048   4.016  0.00  0.00    +0.046 A 
ATOM     15  C   LIG    1        1.104  33.998   4.002  0.00  0.00    +0.117 A 
ATOM     16  C   LIG    1        2.247  33.824   4.771  0.00  0.00    +0.046 A 
ATOM     17  C   LIG    1        2.379  32.684   5.570  0.00  0.00    +0.008 A 
BRANCH  15  18
ATOM     18  O   LIG    1        0.926  35.105   3.227  0.00  0.00    -0.507 OA
ATOM     19  H   LIG    1        1.338  35.862   3.673  0.00  0.00    +0.292 HD
ENDBRANCH  15  18
ENDBRANCH   1  12
TORSDOF 4
ENDMDL
MODEL 9
REMARK VINA RESULT:      -6.6      1.800      5.962
REMARK  Name = 
REMARK                            x       y       z     vdW  Elec       q    Type
REMARK                         _______ _______ _______ _____ _____    ______ ____
ROOT
ATOM      1  C   LIG    1        0.733  30.428   5.664  0.00  0.00    +0.015 C 
ATOM      2  C   LIG    1        0.164  30.065   7.065  0.00  0.00    +0.021 C 
ATOM      3  C   LIG    1        0.023  29.443   4.694  0.00  0.00    +0.021 C 
ENDROOT
BRANCH   1   7
ATOM      4  C   LIG    1        5.010  29.682   5.222  0.00  0.00    +0.117 A 
ATOM      5  C   LIG    1        4.511  30.945   4.944  0.00  0.00    +0.046 A 
ATOM      6  C   LIG    1        3.145  31.209   5.100  0.00  0.00    +0.008 A 
ATOM      7  C   LIG    1        2.261  30.207   5.535  0.00  0.00    -0.037 A 
ATOM      8  C   LIG    1        2.806  28.936   5.817  0.00  0.00    +0.008 A 
ATOM      9  C   LIG    1        4.169  28.671   5.664  0.00  0.00    +0.046 A 
BRANCH   4  10
ATOM     10  O   LIG    1        6.343  29.465   5.036  0.00  0.00    -0.507 OA
ATOM     11  H   LIG    1        6.459  28.584   4.646  0.00  0.00    +0.292 HD
ENDBRANCH   4  10
ENDBRANCH   1   7
BRANCH   1  12
ATOM     12  C   LIG    1        0.416  31.917   5.371  0.00  0.00    -0.037 A 
ATOM     13  C   LIG    1        0.116  32.326   4.053  0.00  0.00    +0.008 A 
ATOM     14  C   LIG    1       -0.253  33.642   3.765  0.00  0.00    +0.046 A 
ATOM     15  C   LIG    1       -0.352  34.567   4.792  0.00  0.00    +0.117 A 
ATOM     16  C   LIG    1       -0.066  34.202   6.100  0.00  0.00    +0.046 A 
ATOM     17  C   LIG    1        0.320  32.888   6.386  0.00  0.00    +0.008 A 
BRANCH  15  18
ATOM     18  O   LIG    1       -0.752  35.830   4.475  0.00  0.00    -0.507 OA
ATOM     19  H   LIG    1       -1.682  35.799   4.200  0.00  0.00    +0.292 HD
ENDBRANCH  15  18
ENDBRANCH   1  12
TORSDOF 4
ENDMDL
