MODEL 1
REMARK VINA RESULT:      -8.4      0.000      0.000
REMARK  Name = 
REMARK                            x       y       z     vdW  Elec       q    Type
REMARK                         _______ _______ _______ _____ _____    ______ ____
ROOT
ATOM      1  C   LIG    1       23.351 -27.565 -11.766  0.00  0.00    +0.015 C 
ATOM      2  C   LIG    1       22.314 -26.644 -11.061  0.00  0.00    +0.021 C 
ATOM      3  C   LIG    1       22.637 -28.022 -13.069  0.00  0.00    +0.021 C 
ENDROOT
BRANCH   1   7
ATOM      4  C   LIG    1       24.390 -31.209  -9.601  0.00  0.00    +0.117 A 
ATOM      5  C   LIG    1       25.035 -30.025  -9.282  0.00  0.00    +0.046 A 
ATOM      6  C   LIG    1       24.701 -28.842  -9.950  0.00  0.00    +0.008 A 
ATOM      7  C   LIG    1       23.715 -28.831 -10.952  0.00  0.00    -0.037 A 
ATOM      8  C   LIG    1       23.072 -30.054 -11.243  0.00  0.00    +0.008 A 
ATOM      9  C   LIG    1       23.403 -31.236 -10.576  0.00  0.00    +0.046 A 
BRANCH   4  10
ATOM     10  O   LIG    1       24.762 -32.341  -8.938  0.00  0.00    -0.507 OA
ATOM     11  H   LIG    1       25.525 -32.727  -9.396  0.00  0.00    +0.292 HD
ENDBRANCH   4  10
ENDBRANCH   1   7
BRANCH   1  12
ATOM     12  C   LIG    1       24.643 -26.749 -12.026  0.00  0.00    -0.037 A 
ATOM     13  C   LIG    1       25.696 -27.318 -12.774  0.00  0.00    +0.008 A 
ATOM     14  C   LIG    1       26.840 -26.585 -13.096  0.00  0.00    +0.046 A 
ATOM     15  C   LIG    1       26.942 -25.262 -12.697  0.00  0.00    +0.117 A 
ATOM     16  C   LIG    1       25.927 -24.667 -11.962  0.00  0.00    +0.046 A 
ATOM     17  C   LIG    1       24.788 -25.407 -11.625  0.00  0.00    +0.008 A 
BRANCH  15  18
ATOM     18  O   LIG    1       28.057 -24.570 -13.064  0.00  0.00    -0.507 OA
ATOM     19  H   LIG    1       28.264 -24.787 -13.987  0.00  0.00    +0.292 HD
ENDBRANCH  15  18
ENDBRANCH   1  12
TORSDOF 4
ENDMDL
MODEL 2
REMARK VINA RESULT:      -8.4      0.096      5.505
REMARK  Name = 
REMARK                            x       y       z     vdW  Elec       q    Type
REMARK                         _______ _______ _______ _____ _____    ______ ____
ROOT
ATOM      1  C   LIG    1       23.313 -27.592 -11.794  0.00  0.00    +0.015 C 
ATOM      2  C   LIG    1       22.603 -28.065 -13.093  0.00  0.00    +0.021 C 
ATOM      3  C   LIG    1       22.263 -26.689 -11.088  0.00  0.00    +0.021 C 
ENDROOT
BRANCH   1   7
ATOM      4  C   LIG    1       26.878 -25.228 -12.662  0.00  0.00    +0.117 A 
ATOM      5  C   LIG    1       25.845 -24.654 -11.936  0.00  0.00    +0.046 A 
ATOM      6  C   LIG    1       24.703 -25.403 -11.630  0.00  0.00    +0.008 A 
ATOM      7  C   LIG    1       24.580 -26.738 -12.050  0.00  0.00    -0.037 A 
ATOM      8  C   LIG    1       25.656 -27.292 -12.778  0.00  0.00    +0.008 A 
ATOM      9  C   LIG    1       26.797 -26.547 -13.083  0.00  0.00    +0.046 A 
BRANCH   4  10
ATOM     10  O   LIG    1       27.962 -24.455 -12.953  0.00  0.00    -0.507 OA
ATOM     11  H   LIG    1       28.050 -23.779 -12.262  0.00  0.00    +0.292 HD
ENDBRANCH   4  10
ENDBRANCH   1   7
BRANCH   1  12
ATOM     12  C   LIG    1       23.710 -28.839 -10.963  0.00  0.00    -0.037 A 
ATOM     13  C   LIG    1       23.134 -30.093 -11.257  0.00  0.00    +0.008 A 
ATOM     14  C   LIG    1       23.527 -31.252 -10.584  0.00  0.00    +0.046 A 
ATOM     15  C   LIG    1       24.521 -31.182  -9.622  0.00  0.00    +0.117 A 
ATOM     16  C   LIG    1       25.113 -29.967  -9.306  0.00  0.00    +0.046 A 
ATOM     17  C   LIG    1       24.706 -28.804  -9.969  0.00  0.00    +0.008 A 
BRANCH  15  18
ATOM     18  O   LIG    1       24.904 -32.342  -9.016  0.00  0.00    -0.507 OA
ATOM     19  H   LIG    1       24.624 -32.310  -8.088  0.00  0.00    +0.292 HD
ENDBRANCH  15  18
ENDBRANCH   1  12
TORSDOF 4
ENDMDL
MODEL 3
REMARK VINA RESULT:      -8.3      0.128      5.587
REMARK  Name = 
REMARK                            x       y       z     vdW  Elec       q    Type
REMARK                         _______ _______ _______ _____ _____    ______ ____
ROOT
ATOM      1  C   LIG    1       23.327 -27.551 -11.750  0.00  0.00    +0.015 C 
ATOM      2  C   LIG    1       22.526 -27.911 -13.033  0.00  0.00    +0.021 C 
ATOM      3  C   LIG    1       22.340 -26.697 -10.906  0.00  0.00    +0.021 C 
ENDROOT
BRANCH   1   7
ATOM      4  C   LIG    1       26.874 -25.176 -12.660  0.00  0.00    +0.117 A 
ATOM      5  C   LIG    1       25.844 -24.603 -11.931  0.00  0.00    +0.046 A 
ATOM      6  C   LIG    1       24.708 -25.355 -11.611  0.00  0.00    +0.008 A 
ATOM      7  C   LIG    1       24.588 -26.693 -12.022  0.00  0.00    -0.037 A 
ATOM      8  C   LIG    1       25.661 -27.246 -12.753  0.00  0.00    +0.008 A 
ATOM      9  C   LIG    1       26.797 -26.499 -13.072  0.00  0.00    +0.046 A 
BRANCH   4  10
ATOM     10  O   LIG    1       27.953 -24.399 -12.964  0.00  0.00    -0.507 OA
ATOM     11  H   LIG    1       27.731 -23.476 -12.763  0.00  0.00    +0.292 HD
ENDBRANCH   4  10
ENDBRANCH   1   7
BRANCH   1  12
ATOM     12  C   LIG    1       23.758 -28.865 -11.050  0.00  0.00    -0.037 A 
ATOM     13  C   LIG    1       24.652 -28.821  -9.958  0.00  0.00    +0.008 A 
ATOM     14  C   LIG    1       24.999 -29.975  -9.252  0.00  0.00    +0.046 A 
ATOM     15  C   LIG    1       24.440 -31.192  -9.610  0.00  0.00    +0.117 A 
ATOM     16  C   LIG    1       23.556 -31.275 -10.677  0.00  0.00    +0.046 A 
ATOM     17  C   LIG    1       23.223 -30.121 -11.394  0.00  0.00    +0.008 A 
BRANCH  15  18
ATOM     18  O   LIG    1       24.775 -32.288  -8.872  0.00  0.00    -0.507 OA
ATOM     19  H   LIG    1       24.980 -33.016  -9.479  0.00  0.00    +0.292 HD
ENDBRANCH  15  18
ENDBRANCH   1  12
TORSDOF 4
ENDMDL
MODEL 4
REMARK VINA RESULT:      -8.3      0.172      1.176
REMARK  Name = 
REMARK                            x       y       z     vdW  Elec       q    Type
REMARK                         _______ _______ _______ _____ _____    ______ ____
ROOT
ATOM      1  C   LIG    1       23.236 -27.581 -11.842  0.00  0.00    +0.015 C 
ATOM      2  C   LIG    1       22.238 -26.651 -11.095  0.00  0.00    +0.021 C 
ATOM      3  C   LIG    1       22.441 -28.084 -13.079  0.00  0.00    +0.021 C 
ENDROOT
BRANCH   1   7
ATOM      4  C   LIG    1       24.481 -31.143  -9.649  0.00  0.00    +0.117 A 
ATOM      5  C   LIG    1       25.050 -29.920  -9.332  0.00  0.00    +0.046 A 
ATOM      6  C   LIG    1       24.649 -28.763 -10.010  0.00  0.00    +0.008 A 
ATOM      7  C   LIG    1       23.671 -28.818 -11.018  0.00  0.00    -0.037 A 
ATOM      8  C   LIG    1       23.107 -30.080 -11.306  0.00  0.00    +0.008 A 
ATOM      9  C   LIG    1       23.504 -31.235 -10.630  0.00  0.00    +0.046 A 
BRANCH   4  10
ATOM     10  O   LIG    1       24.916 -32.246  -8.976  0.00  0.00    -0.507 OA
ATOM     11  H   LIG    1       24.171 -32.860  -8.880  0.00  0.00    +0.292 HD
ENDBRANCH   4  10
ENDBRANCH   1   7
BRANCH   1  12
ATOM     12  C   LIG    1       24.497 -26.759 -12.213  0.00  0.00    -0.037 A 
ATOM     13  C   LIG    1       24.563 -25.387 -11.889  0.00  0.00    +0.008 A 
ATOM     14  C   LIG    1       25.714 -24.634 -12.136  0.00  0.00    +0.046 A 
ATOM     15  C   LIG    1       26.828 -25.246 -12.688  0.00  0.00    +0.117 A 
ATOM     16  C   LIG    1       26.802 -26.594 -13.017  0.00  0.00    +0.046 A 
ATOM     17  C   LIG    1       25.643 -27.343 -12.786  0.00  0.00    +0.008 A 
BRANCH  15  18
ATOM     18  O   LIG    1       27.943 -24.486 -12.876  0.00  0.00    -0.507 OA
ATOM     19  H   LIG    1       28.325 -24.279 -12.009  0.00  0.00    +0.292 HD
ENDBRANCH  15  18
ENDBRANCH   1  12
TORSDOF 4
ENDMDL
MODEL 5
REMARK VINA RESULT:      -8.0      1.029      1.740
REMARK  Name = 
REMARK                            x       y       z     vdW  Elec       q    Type
REMARK                         _______ _______ _______ _____ _____    ______ ____
ROOT
ATOM      1  C   LIG    1       23.325 -27.796 -11.712  0.00  0.00    +0.015 C 
ATOM      2  C   LIG    1       22.182 -27.281 -10.793  0.00  0.00    +0.021 C 
ATOM      3  C   LIG    1       22.611 -28.174 -13.040  0.00  0.00    +0.021 C 
ENDROOT
BRANCH   1   7
ATOM      4  C   LIG    1       25.207 -31.393 -10.109  0.00  0.00    +0.117 A 
ATOM      5  C   LIG    1       25.190 -31.191 -11.480  0.00  0.00    +0.046 A 
ATOM      6  C   LIG    1       24.609 -30.034 -12.012  0.00  0.00    +0.008 A 
ATOM      7  C   LIG    1       24.035 -29.063 -11.174  0.00  0.00    -0.037 A 
ATOM      8  C   LIG    1       24.080 -29.297  -9.783  0.00  0.00    +0.008 A 
ATOM      9  C   LIG    1       24.660 -30.451  -9.249  0.00  0.00    +0.046 A 
BRANCH   4  10
ATOM     10  O   LIG    1       25.765 -32.544  -9.638  0.00  0.00    -0.507 OA
ATOM     11  H   LIG    1       25.883 -32.456  -8.678  0.00  0.00    +0.292 HD
ENDBRANCH   4  10
ENDBRANCH   1   7
BRANCH   1  12
ATOM     12  C   LIG    1       24.375 -26.667 -11.878  0.00  0.00    -0.037 A 
ATOM     13  C   LIG    1       23.973 -25.316 -11.802  0.00  0.00    +0.008 A 
ATOM     14  C   LIG    1       24.902 -24.275 -11.866  0.00  0.00    +0.046 A 
ATOM     15  C   LIG    1       26.251 -24.565 -11.982  0.00  0.00    +0.117 A 
ATOM     16  C   LIG    1       26.685 -25.882 -12.057  0.00  0.00    +0.046 A 
ATOM     17  C   LIG    1       25.753 -26.924 -12.011  0.00  0.00    +0.008 A 
BRANCH  15  18
ATOM     18  O   LIG    1       27.128 -23.522 -12.002  0.00  0.00    -0.507 OA
ATOM     19  H   LIG    1       26.889 -22.933 -12.734  0.00  0.00    +0.292 HD
ENDBRANCH  15  18
ENDBRANCH   1  12
TORSDOF 4
ENDMDL
MODEL 6
REMARK VINA RESULT:      -7.9      2.570      5.447
REMARK  Name = 
REMARK                            x       y       z     vdW  Elec       q    Type
REMARK                         _______ _______ _______ _____ _____    ______ ____
ROOT
ATOM      1  C   LIG    1       24.756 -27.388 -11.689  0.00  0.00    +0.015 C 
ATOM      2  C   LIG    1       24.477 -28.292 -12.922  0.00  0.00    +0.021 C 
ATOM      3  C   LIG    1       23.467 -27.504 -10.827  0.00  0.00    +0.021 C 
ENDROOT
BRANCH   1   7
ATOM      4  C   LIG    1       25.278 -23.141 -12.553  0.00  0.00    +0.117 A 
ATOM      5  C   LIG    1       26.314 -24.020 -12.826  0.00  0.00    +0.046 A 
ATOM      6  C   LIG    1       26.158 -25.388 -12.575  0.00  0.00    +0.008 A 
ATOM      7  C   LIG    1       24.959 -25.894 -12.044  0.00  0.00    -0.037 A 
ATOM      8  C   LIG    1       23.922 -24.970 -11.788  0.00  0.00    +0.008 A 
ATOM      9  C   LIG    1       24.075 -23.605 -12.039  0.00  0.00    +0.046 A 
BRANCH   4  10
ATOM     10  O   LIG    1       25.482 -21.815 -12.795  0.00  0.00    -0.507 OA
ATOM     11  H   LIG    1       25.934 -21.727 -13.649  0.00  0.00    +0.292 HD
ENDBRANCH   4  10
ENDBRANCH   1   7
BRANCH   1  12
ATOM     12  C   LIG    1       26.026 -27.908 -10.969  0.00  0.00    -0.037 A 
ATOM     13  C   LIG    1       26.892 -28.805 -11.630  0.00  0.00    +0.008 A 
ATOM     14  C   LIG    1       28.086 -29.231 -11.043  0.00  0.00    +0.046 A 
ATOM     15  C   LIG    1       28.448 -28.749  -9.796  0.00  0.00    +0.117 A 
ATOM     16  C   LIG    1       27.624 -27.864  -9.116  0.00  0.00    +0.046 A 
ATOM     17  C   LIG    1       26.420 -27.451  -9.696  0.00  0.00    +0.008 A 
BRANCH  15  18
ATOM     18  O   LIG    1       29.639 -29.159  -9.276  0.00  0.00    -0.507 OA
ATOM     19  H   LIG    1       29.474 -29.559  -8.408  0.00  0.00    +0.292 HD
ENDBRANCH  15  18
ENDBRANCH   1  12
TORSDOF 4
ENDMDL
MODEL 7
REMARK VINA RESULT:      -7.9      2.576      3.290
REMARK  Name = 
REMARK                            x       y       z     vdW  Elec       q    Type
REMARK                         _______ _______ _______ _____ _____    ______ ____
ROOT
ATOM      1  C   LIG    1       24.793 -27.393 -11.747  0.00  0.00    +0.015 C 
ATOM      2  C   LIG    1       23.493 -27.530 -10.906  0.00  0.00    +0.021 C 
ATOM      3  C   LIG    1       24.560 -28.323 -12.971  0.00  0.00    +0.021 C 
ENDROOT
BRANCH   1   7
ATOM      4  C   LIG    1       28.457 -28.750  -9.802  0.00  0.00    +0.117 A 
ATOM      5  C   LIG    1       27.650 -27.826  -9.157  0.00  0.00    +0.046 A 
ATOM      6  C   LIG    1       26.461 -27.394  -9.755  0.00  0.00    +0.008 A 
ATOM      7  C   LIG    1       26.066 -27.883 -11.012  0.00  0.00    -0.037 A 
ATOM      8  C   LIG    1       26.908 -28.830 -11.635  0.00  0.00    +0.008 A 
ATOM      9  C   LIG    1       28.094 -29.264 -11.039  0.00  0.00    +0.046 A 
BRANCH   4  10
ATOM     10  O   LIG    1       29.616 -29.126  -9.190  0.00  0.00    -0.507 OA
ATOM     11  H   LIG    1       29.398 -29.753  -8.482  0.00  0.00    +0.292 HD
ENDBRANCH   4  10
ENDBRANCH   1   7
BRANCH   1  12
ATOM     12  C   LIG    1       24.981 -25.903 -12.132  0.00  0.00    -0.037 A 
ATOM     13  C   LIG    1       23.977 -24.963 -11.815  0.00  0.00    +0.008 A 
ATOM     14  C   LIG    1       24.147 -23.601 -12.074  0.00  0.00    +0.046 A 
ATOM     15  C   LIG    1       25.332 -23.151 -12.633  0.00  0.00    +0.117 A 
ATOM     16  C   LIG    1       26.343 -24.046 -12.957  0.00  0.00    +0.046 A 
ATOM     17  C   LIG    1       26.166 -25.412 -12.713  0.00  0.00    +0.008 A 
BRANCH  15  18
ATOM     18  O   LIG    1       25.474 -21.811 -12.834  0.00  0.00    -0.507 OA
ATOM     19  H   LIG    1       26.190 -21.669 -13.472  0.00  0.00    +0.292 HD
ENDBRANCH  15  18
ENDBRANCH   1  12
TORSDOF 4
ENDMDL
MODEL 8
REMARK VINA RESULT:      -7.8      2.268      6.049
REMARK  Name = 
REMARK                            x       y       z     vdW  Elec       q    Type
REMARK                         _______ _______ _______ _____ _____    ______ ____
ROOT
ATOM      1  C   LIG    1       25.980 -27.067 -11.230  0.00  0.00    +0.015 C 
ATOM      2  C   LIG    1       26.261 -27.167  -9.704  0.00  0.00    +0.021 C 
ATOM      3  C   LIG    1       27.241 -27.686 -11.895  0.00  0.00    +0.021 C 
ENDROOT
BRANCH   1   7
ATOM      4  C   LIG    1       25.492 -22.936 -12.553  0.00  0.00    +0.117 A 
ATOM      5  C   LIG    1       26.753 -23.513 -12.584  0.00  0.00    +0.046 A 
ATOM      6  C   LIG    1       26.925 -24.843 -12.183  0.00  0.00    +0.008 A 
ATOM      7  C   LIG    1       25.835 -25.612 -11.743  0.00  0.00    -0.037 A 
ATOM      8  C   LIG    1       24.566 -24.995 -11.735  0.00  0.00    +0.008 A 
ATOM      9  C   LIG    1       24.390 -23.669 -12.135  0.00  0.00    +0.046 A 
BRANCH   4  10
ATOM     10  O   LIG    1       25.375 -21.632 -12.933  0.00  0.00    -0.507 OA
ATOM     11  H   LIG    1       24.474 -21.491 -13.265  0.00  0.00    +0.292 HD
ENDBRANCH   4  10
ENDBRANCH   1   7
BRANCH   1  12
ATOM     12  C   LIG    1       24.674 -27.841 -11.546  0.00  0.00    -0.037 A 
ATOM     13  C   LIG    1       24.442 -28.325 -12.851  0.00  0.00    +0.008 A 
ATOM     14  C   LIG    1       23.316 -29.095 -13.152  0.00  0.00    +0.046 A 
ATOM     15  C   LIG    1       22.415 -29.415 -12.150  0.00  0.00    +0.117 A 
ATOM     16  C   LIG    1       22.610 -28.958 -10.854  0.00  0.00    +0.046 A 
ATOM     17  C   LIG    1       23.729 -28.172 -10.556  0.00  0.00    +0.008 A 
BRANCH  15  18
ATOM     18  O   LIG    1       21.350 -30.200 -12.477  0.00  0.00    -0.507 OA
ATOM     19  H   LIG    1       20.773 -29.702 -13.077  0.00  0.00    +0.292 HD
ENDBRANCH  15  18
ENDBRANCH   1  12
TORSDOF 4
ENDMDL
MODEL 9
REMARK VINA RESULT:      -7.8      2.224      3.399
REMARK  Name = 
REMARK                            x       y       z     vdW  Elec       q    Type
REMARK                         _______ _______ _______ _____ _____    ______ ____
ROOT
ATOM      1  C   LIG    1       26.051 -27.176 -11.223  0.00  0.00    +0.015 C 
ATOM      2  C   LIG    1       27.384 -27.765 -11.766  0.00  0.00    +0.021 C 
ATOM      3  C   LIG    1       26.219 -27.204  -9.678  0.00  0.00    +0.021 C 
ENDROOT
BRANCH   1   7
ATOM      4  C   LIG    1       22.451 -29.462 -12.153  0.00  0.00    +0.117 A 
ATOM      5  C   LIG    1       23.297 -29.082 -13.183  0.00  0.00    +0.046 A 
ATOM      6  C   LIG    1       24.467 -28.367 -12.903  0.00  0.00    +0.008 A 
ATOM      7  C   LIG    1       24.803 -28.020 -11.583  0.00  0.00    -0.037 A 
ATOM      8  C   LIG    1       23.923 -28.432 -10.559  0.00  0.00    +0.008 A 
ATOM      9  C   LIG    1       22.756 -29.148 -10.836  0.00  0.00    +0.046 A 
BRANCH   4  10
ATOM     10  O   LIG    1       21.314 -30.140 -12.475  0.00  0.00    -0.507 OA
ATOM     11  H   LIG    1       20.551 -29.601 -12.212  0.00  0.00    +0.292 HD
ENDBRANCH   4  10
ENDBRANCH   1   7
BRANCH   1  12
ATOM     12  C   LIG    1       25.871 -25.747 -11.796  0.00  0.00    -0.037 A 
ATOM     13  C   LIG    1       24.670 -25.042 -11.564  0.00  0.00    +0.008 A 
ATOM     14  C   LIG    1       24.504 -23.724 -11.996  0.00  0.00    +0.046 A 
ATOM     15  C   LIG    1       25.543 -23.079 -12.646  0.00  0.00    +0.117 A 
ATOM     16  C   LIG    1       26.739 -23.739 -12.892  0.00  0.00    +0.046 A 
ATOM     17  C   LIG    1       26.899 -25.065 -12.474  0.00  0.00    +0.008 A 
BRANCH  15  18
ATOM     18  O   LIG    1       25.355 -21.781 -13.017  0.00  0.00    -0.507 OA
ATOM     19  H   LIG    1       26.223 -21.357 -13.104  0.00  0.00    +0.292 HD
ENDBRANCH  15  18
ENDBRANCH   1  12
TORSDOF 4
ENDMDL
