REMARK  Name = 
REMARK                            x       y       z     vdW  Elec       q    Type
REMARK                         _______ _______ _______ _____ _____    ______ ____
ROOT
ATOM      1  C   LIG    1        6.588   0.122  -0.711  0.00  0.00    +0.015 C 
ATOM      2  C   LIG    1        7.317  -1.251  -0.743  0.00  0.00    +0.021 C 
ATOM      3  C   LIG    1        7.279   0.898   0.445  0.00  0.00    +0.021 C 
ENDROOT
BRANCH   1   7
ATOM      4  C   LIG    1        2.305  -0.073   0.106  0.00  0.00    +0.117 A 
ATOM      5  C   LIG    1        3.032  -1.250   0.019  0.00  0.00    +0.046 A 
ATOM      6  C   LIG    1        4.410  -1.207  -0.222  0.00  0.00    +0.008 A 
ATOM      7  C   LIG    1        5.078   0.019  -0.381  0.00  0.00    -0.037 A 
ATOM      8  C   LIG    1        4.307   1.197  -0.276  0.00  0.00    +0.008 A 
ATOM      9  C   LIG    1        2.932   1.157  -0.034  0.00  0.00    +0.046 A 
BRANCH   4  10
ATOM     10  O   LIG    1        0.962  -0.164   0.322  0.00  0.00    -0.507 OA
ATOM     11  H   LIG    1        0.587   0.731   0.297  0.00  0.00    +0.292 HD
ENDBRANCH   4  10
ENDBRANCH   1   7
BRANCH   1  12
ATOM     12  C   LIG    1        6.752   0.803  -2.094  0.00  0.00    -0.037 A 
ATOM     13  C   LIG    1        6.390   0.108  -3.268  0.00  0.00    +0.008 A 
ATOM     14  C   LIG    1        6.448   0.718  -4.523  0.00  0.00    +0.046 A 
ATOM     15  C   LIG    1        6.846   2.041  -4.625  0.00  0.00    +0.117 A 
ATOM     16  C   LIG    1        7.208   2.758  -3.493  0.00  0.00    +0.046 A 
ATOM     17  C   LIG    1        7.166   2.141  -2.238  0.00  0.00    +0.008 A 
BRANCH  15  18
ATOM     18  O   LIG    1        6.852   2.611  -5.863  0.00  0.00    -0.507 OA
ATOM     19  H   LIG    1        7.072   3.551  -5.768  0.00  0.00    +0.292 HD
ENDBRANCH  15  18
ENDBRANCH   1  12
TORSDOF 4
