MODEL 1
REMARK VINA RESULT:      -7.2      0.000      0.000
REMARK  Name = 
REMARK                            x       y       z     vdW  Elec       q    Type
REMARK                         _______ _______ _______ _____ _____    ______ ____
ROOT
ATOM      1  C   LIG    1       -8.514  -5.158  13.038  0.00  0.00    -0.046 A 
ATOM      2  C   LIG    1       -9.119  -6.212  12.361  0.00  0.00    +0.007 A 
ATOM      3  C   LIG    1       -9.703  -6.009  11.117  0.00  0.00    +0.046 A 
ATOM      4  C   LIG    1       -9.756  -4.739  10.529  0.00  0.00    +0.121 A 
ATOM      5  C   LIG    1       -9.208  -3.666  11.230  0.00  0.00    +0.046 A 
ATOM      6  C   LIG    1       -8.581  -3.875  12.473  0.00  0.00    +0.007 A 
ENDROOT
BRANCH   1   7
ATOM      7  C   LIG    1       -7.817  -5.435  14.349  0.00  0.00    +0.056 C 
BRANCH   7  10
ATOM      8  S   LIG    1       -4.575  -3.910  13.327  0.00  0.00    -0.039 S 
ATOM      9  C   LIG    1       -5.441  -4.447  14.643  0.00  0.00    +0.069 C 
ATOM     10  C   LIG    1       -6.939  -4.275  14.861  0.00  0.00    +0.112 C 
ATOM     11  S   LIG    1       -7.050  -4.318  16.704  0.00  0.00    -0.057 S 
ATOM     12  C   LIG    1       -5.465  -5.037  16.891  0.00  0.00    +0.277 C 
ATOM     13  O   LIG    1       -4.987  -5.372  17.949  0.00  0.00    -0.263 OA
ATOM     14  N   LIG    1       -4.824  -5.061  15.691  0.00  0.00    -0.273 N 
ATOM     15  H   LIG    1       -3.831  -5.243  15.691  0.00  0.00    +0.156 HD
ENDBRANCH   7  10
ENDBRANCH   1   7
BRANCH   4  16
ATOM     16  O   LIG    1      -10.318  -4.471   9.289  0.00  0.00    -0.490 OA
BRANCH  16  17
ATOM     17  C   LIG    1       -9.321  -4.103   8.327  0.00  0.00    +0.248 C 
BRANCH  17  18
ATOM     18  C   LIG    1       -8.372  -5.191   7.846  0.00  0.00    +0.147 C 
BRANCH  18  19
ATOM     19  N   LIG    1       -7.033  -5.209   8.516  0.00  0.00    -0.315 N 
ATOM     20  C   LIG    1       -6.621  -3.876   8.978  0.00  0.00    +0.131 C 
BRANCH  19  21
ATOM     21  C   LIG    1       -6.635  -6.213   9.420  0.00  0.00    +0.121 A 
ATOM     22  C   LIG    1       -5.949  -5.923  10.603  0.00  0.00    +0.043 A 
ATOM     23  C   LIG    1       -5.576  -6.927  11.502  0.00  0.00    +0.005 A 
ATOM     24  C   LIG    1       -5.974  -8.224  11.259  0.00  0.00    +0.020 A 
ATOM     25  C   LIG    1       -6.714  -8.449  10.117  0.00  0.00    +0.113 A 
ATOM     26  N   LIG    1       -7.028  -7.490   9.209  0.00  0.00    -0.240 NA
ENDBRANCH  19  21
ENDBRANCH  18  19
ENDBRANCH  17  18
ENDBRANCH  16  17
ENDBRANCH   4  16
TORSDOF 7
ENDMDL
MODEL 2
REMARK VINA RESULT:      -6.9      1.796      3.469
REMARK  Name = 
REMARK                            x       y       z     vdW  Elec       q    Type
REMARK                         _______ _______ _______ _____ _____    ______ ____
ROOT
ATOM      1  C   LIG    1       -7.205  -5.514  12.898  0.00  0.00    -0.046 A 
ATOM      2  C   LIG    1       -6.400  -4.755  12.056  0.00  0.00    +0.007 A 
ATOM      3  C   LIG    1       -6.281  -5.081  10.709  0.00  0.00    +0.046 A 
ATOM      4  C   LIG    1       -6.916  -6.205  10.167  0.00  0.00    +0.121 A 
ATOM      5  C   LIG    1       -7.674  -7.007  11.019  0.00  0.00    +0.046 A 
ATOM      6  C   LIG    1       -7.827  -6.658  12.375  0.00  0.00    +0.007 A 
ENDROOT
BRANCH   1   7
ATOM      7  C   LIG    1       -7.373  -5.081  14.335  0.00  0.00    +0.056 C 
BRANCH   7  10
ATOM      8  S   LIG    1       -3.722  -4.753  13.666  0.00  0.00    -0.039 S 
ATOM      9  C   LIG    1       -4.855  -4.830  14.883  0.00  0.00    +0.069 C 
ATOM     10  C   LIG    1       -6.236  -4.186  14.867  0.00  0.00    +0.112 C 
ATOM     11  S   LIG    1       -6.558  -3.959  16.672  0.00  0.00    -0.057 S 
ATOM     12  C   LIG    1       -5.313  -5.095  17.147  0.00  0.00    +0.277 C 
ATOM     13  O   LIG    1       -5.086  -5.422  18.288  0.00  0.00    -0.263 OA
ATOM     14  N   LIG    1       -4.584  -5.464  16.059  0.00  0.00    -0.273 N 
ATOM     15  H   LIG    1       -3.706  -5.937  16.219  0.00  0.00    +0.156 HD
ENDBRANCH   7  10
ENDBRANCH   1   7
BRANCH   4  16
ATOM     16  O   LIG    1       -6.844  -6.580   8.834  0.00  0.00    -0.490 OA
BRANCH  16  17
ATOM     17  C   LIG    1       -8.085  -6.354   8.155  0.00  0.00    +0.248 C 
BRANCH  17  18
ATOM     18  C   LIG    1       -8.522  -4.910   7.950  0.00  0.00    +0.147 C 
BRANCH  18  19
ATOM     19  N   LIG    1       -9.511  -4.396   8.950  0.00  0.00    -0.315 N 
ATOM     20  C   LIG    1      -10.402  -5.453   9.449  0.00  0.00    +0.131 C 
BRANCH  19  21
ATOM     21  C   LIG    1       -9.178  -3.482   9.968  0.00  0.00    +0.121 A 
ATOM     22  C   LIG    1       -8.391  -2.352   9.729  0.00  0.00    +0.043 A 
ATOM     23  C   LIG    1       -8.084  -1.441  10.745  0.00  0.00    +0.005 A 
ATOM     24  C   LIG    1       -8.646  -1.615  11.991  0.00  0.00    +0.020 A 
ATOM     25  C   LIG    1       -9.477  -2.703  12.158  0.00  0.00    +0.113 A 
ATOM     26  N   LIG    1       -9.732  -3.624  11.194  0.00  0.00    -0.240 NA
ENDBRANCH  19  21
ENDBRANCH  18  19
ENDBRANCH  17  18
ENDBRANCH  16  17
ENDBRANCH   4  16
TORSDOF 7
ENDMDL
MODEL 3
REMARK VINA RESULT:      -6.7      5.865      8.079
REMARK  Name = 
REMARK                            x       y       z     vdW  Elec       q    Type
REMARK                         _______ _______ _______ _____ _____    ______ ____
ROOT
ATOM      1  C   LIG    1       -7.943  -3.438  12.834  0.00  0.00    -0.046 A 
ATOM      2  C   LIG    1       -9.221  -3.908  13.118  0.00  0.00    +0.007 A 
ATOM      3  C   LIG    1      -10.321  -3.063  13.026  0.00  0.00    +0.046 A 
ATOM      4  C   LIG    1      -10.181  -1.708  12.703  0.00  0.00    +0.121 A 
ATOM      5  C   LIG    1       -8.896  -1.215  12.479  0.00  0.00    +0.046 A 
ATOM      6  C   LIG    1       -7.784  -2.076  12.533  0.00  0.00    +0.007 A 
ENDROOT
BRANCH   1   7
ATOM      7  C   LIG    1       -6.784  -4.406  12.866  0.00  0.00    +0.056 C 
BRANCH   7  10
ATOM      8  S   LIG    1       -7.970  -4.155   9.342  0.00  0.00    -0.039 S 
ATOM      9  C   LIG    1       -7.197  -5.158  10.422  0.00  0.00    +0.069 C 
ATOM     10  C   LIG    1       -6.188  -4.730  11.481  0.00  0.00    +0.112 C 
ATOM     11  S   LIG    1       -5.199  -6.275  11.693  0.00  0.00    -0.057 S 
ATOM     12  C   LIG    1       -6.411  -7.284  10.936  0.00  0.00    +0.277 C 
ATOM     13  O   LIG    1       -6.335  -8.486  10.836  0.00  0.00    -0.263 OA
ATOM     14  N   LIG    1       -7.386  -6.507  10.391  0.00  0.00    -0.273 N 
ATOM     15  H   LIG    1       -8.025  -6.940   9.740  0.00  0.00    +0.156 HD
ENDBRANCH   7  10
ENDBRANCH   1   7
BRANCH   4  16
ATOM     16  O   LIG    1      -11.236  -0.815  12.587  0.00  0.00    -0.490 OA
BRANCH  16  17
ATOM     17  C   LIG    1      -11.040   0.342  13.409  0.00  0.00    +0.248 C 
BRANCH  17  18
ATOM     18  C   LIG    1      -11.123   1.705  12.735  0.00  0.00    +0.147 C 
BRANCH  18  19
ATOM     19  N   LIG    1      -10.433   2.817  13.463  0.00  0.00    -0.315 N 
ATOM     20  C   LIG    1       -9.436   2.323  14.423  0.00  0.00    +0.131 C 
BRANCH  19  21
ATOM     21  C   LIG    1      -10.000   4.001  12.835  0.00  0.00    +0.121 A 
ATOM     22  C   LIG    1       -8.946   4.770  13.336  0.00  0.00    +0.043 A 
ATOM     23  C   LIG    1       -8.513   5.932  12.692  0.00  0.00    +0.005 A 
ATOM     24  C   LIG    1       -9.080   6.279  11.484  0.00  0.00    +0.020 A 
ATOM     25  C   LIG    1      -10.065   5.449  10.993  0.00  0.00    +0.113 A 
ATOM     26  N   LIG    1      -10.532   4.351  11.641  0.00  0.00    -0.240 NA
ENDBRANCH  19  21
ENDBRANCH  18  19
ENDBRANCH  17  18
ENDBRANCH  16  17
ENDBRANCH   4  16
TORSDOF 7
ENDMDL
MODEL 4
REMARK VINA RESULT:      -6.7      1.312      2.000
REMARK  Name = 
REMARK                            x       y       z     vdW  Elec       q    Type
REMARK                         _______ _______ _______ _____ _____    ______ ____
ROOT
ATOM      1  C   LIG    1       -7.392  -3.648  12.958  0.00  0.00    -0.046 A 
ATOM      2  C   LIG    1       -8.246  -4.719  13.202  0.00  0.00    +0.007 A 
ATOM      3  C   LIG    1       -9.343  -4.947  12.380  0.00  0.00    +0.046 A 
ATOM      4  C   LIG    1       -9.661  -4.087  11.322  0.00  0.00    +0.121 A 
ATOM      5  C   LIG    1       -8.846  -2.975  11.112  0.00  0.00    +0.046 A 
ATOM      6  C   LIG    1       -7.712  -2.762  11.918  0.00  0.00    +0.007 A 
ENDROOT
BRANCH   1   7
ATOM      7  C   LIG    1       -6.165  -3.481  13.823  0.00  0.00    +0.056 C 
BRANCH   7  10
ATOM      8  S   LIG    1       -7.634  -5.217  16.775  0.00  0.00    -0.039 S 
ATOM      9  C   LIG    1       -6.204  -4.663  16.127  0.00  0.00    +0.069 C 
ATOM     10  C   LIG    1       -5.801  -4.725  14.659  0.00  0.00    +0.112 C 
ATOM     11  S   LIG    1       -3.958  -4.741  14.784  0.00  0.00    -0.057 S 
ATOM     12  C   LIG    1       -3.956  -4.157  16.433  0.00  0.00    +0.277 C 
ATOM     13  O   LIG    1       -2.959  -3.900  17.066  0.00  0.00    -0.263 OA
ATOM     14  N   LIG    1       -5.227  -4.139  16.919  0.00  0.00    -0.273 N 
ATOM     15  H   LIG    1       -5.349  -4.036  17.916  0.00  0.00    +0.156 HD
ENDBRANCH   7  10
ENDBRANCH   1   7
BRANCH   4  16
ATOM     16  O   LIG    1      -10.735  -4.262  10.463  0.00  0.00    -0.490 OA
BRANCH  16  17
ATOM     17  C   LIG    1      -10.322  -4.817   9.208  0.00  0.00    +0.248 C 
BRANCH  17  18
ATOM     18  C   LIG    1       -9.778  -6.238   9.213  0.00  0.00    +0.147 C 
BRANCH  18  19
ATOM     19  N   LIG    1       -8.341  -6.371   8.814  0.00  0.00    -0.315 N 
ATOM     20  C   LIG    1       -7.949  -5.383   7.798  0.00  0.00    +0.131 C 
BRANCH  19  21
ATOM     21  C   LIG    1       -7.301  -6.602   9.735  0.00  0.00    +0.121 A 
ATOM     22  C   LIG    1       -6.381  -5.610  10.087  0.00  0.00    +0.043 A 
ATOM     23  C   LIG    1       -5.364  -5.846  11.017  0.00  0.00    +0.005 A 
ATOM     24  C   LIG    1       -5.324  -7.060  11.671  0.00  0.00    +0.020 A 
ATOM     25  C   LIG    1       -6.298  -7.980  11.344  0.00  0.00    +0.113 A 
ATOM     26  N   LIG    1       -7.252  -7.780  10.399  0.00  0.00    -0.240 NA
ENDBRANCH  19  21
ENDBRANCH  18  19
ENDBRANCH  17  18
ENDBRANCH  16  17
ENDBRANCH   4  16
TORSDOF 7
ENDMDL
MODEL 5
REMARK VINA RESULT:      -6.1      4.343      5.837
REMARK  Name = 
REMARK                            x       y       z     vdW  Elec       q    Type
REMARK                         _______ _______ _______ _____ _____    ______ ____
ROOT
ATOM      1  C   LIG    1       -9.358  -1.551  12.442  0.00  0.00    -0.046 A 
ATOM      2  C   LIG    1       -8.739  -1.913  11.251  0.00  0.00    +0.007 A 
ATOM      3  C   LIG    1       -9.067  -3.107  10.619  0.00  0.00    +0.046 A 
ATOM      4  C   LIG    1       -9.981  -4.007  11.180  0.00  0.00    +0.121 A 
ATOM      5  C   LIG    1      -10.558  -3.680  12.406  0.00  0.00    +0.046 A 
ATOM      6  C   LIG    1      -10.258  -2.454  13.029  0.00  0.00    +0.007 A 
ENDROOT
BRANCH   1   7
ATOM      7  C   LIG    1       -9.035  -0.208  13.055  0.00  0.00    +0.056 C 
BRANCH   7  10
ATOM      8  S   LIG    1      -12.648   0.249  12.264  0.00  0.00    -0.039 S 
ATOM      9  C   LIG    1      -11.287   1.045  12.800  0.00  0.00    +0.069 C 
ATOM     10  C   LIG    1      -10.231   0.481  13.743  0.00  0.00    +0.112 C 
ATOM     11  S   LIG    1       -9.566   2.022  14.513  0.00  0.00    -0.057 S 
ATOM     12  C   LIG    1      -10.228   3.060  13.269  0.00  0.00    +0.277 C 
ATOM     13  O   LIG    1      -10.052   4.254  13.210  0.00  0.00    -0.263 OA
ATOM     14  N   LIG    1      -11.046   2.340  12.453  0.00  0.00    -0.273 N 
ATOM     15  H   LIG    1      -11.661   2.849  11.835  0.00  0.00    +0.156 HD
ENDBRANCH   7  10
ENDBRANCH   1   7
BRANCH   4  16
ATOM     16  O   LIG    1      -10.357  -5.209  10.598  0.00  0.00    -0.490 OA
BRANCH  16  17
ATOM     17  C   LIG    1       -9.740  -6.326  11.249  0.00  0.00    +0.248 C 
BRANCH  17  18
ATOM     18  C   LIG    1       -8.382  -6.779  10.734  0.00  0.00    +0.147 C 
BRANCH  18  19
ATOM     19  N   LIG    1       -7.258  -6.663  11.716  0.00  0.00    -0.315 N 
ATOM     20  C   LIG    1       -5.961  -7.025  11.127  0.00  0.00    +0.131 C 
BRANCH  19  21
ATOM     21  C   LIG    1       -7.129  -5.593  12.623  0.00  0.00    +0.121 A 
ATOM     22  C   LIG    1       -7.793  -5.571  13.852  0.00  0.00    +0.043 A 
ATOM     23  C   LIG    1       -7.642  -4.512  14.752  0.00  0.00    +0.005 A 
ATOM     24  C   LIG    1       -6.745  -3.507  14.457  0.00  0.00    +0.020 A 
ATOM     25  C   LIG    1       -6.057  -3.610  13.266  0.00  0.00    +0.113 A 
ATOM     26  N   LIG    1       -6.243  -4.604  12.361  0.00  0.00    -0.240 NA
ENDBRANCH  19  21
ENDBRANCH  18  19
ENDBRANCH  17  18
ENDBRANCH  16  17
ENDBRANCH   4  16
TORSDOF 7
ENDMDL
MODEL 6
REMARK VINA RESULT:      -6.1      5.809      7.830
REMARK  Name = 
REMARK                            x       y       z     vdW  Elec       q    Type
REMARK                         _______ _______ _______ _____ _____    ______ ____
ROOT
ATOM      1  C   LIG    1       -8.228  -3.287  12.038  0.00  0.00    -0.046 A 
ATOM      2  C   LIG    1       -9.471  -3.818  12.363  0.00  0.00    +0.007 A 
ATOM      3  C   LIG    1      -10.541  -2.981  12.658  0.00  0.00    +0.046 A 
ATOM      4  C   LIG    1      -10.396  -1.589  12.694  0.00  0.00    +0.121 A 
ATOM      5  C   LIG    1       -9.137  -1.052  12.432  0.00  0.00    +0.046 A 
ATOM      6  C   LIG    1       -8.061  -1.895  12.094  0.00  0.00    +0.007 A 
ENDROOT
BRANCH   1   7
ATOM      7  C   LIG    1       -7.112  -4.226  11.643  0.00  0.00    +0.056 C 
BRANCH   7  10
ATOM      8  S   LIG    1       -7.561  -4.495  15.332  0.00  0.00    -0.039 S 
ATOM      9  C   LIG    1       -6.455  -4.695  14.104  0.00  0.00    +0.069 C 
ATOM     10  C   LIG    1       -6.744  -5.266  12.721  0.00  0.00    +0.112 C 
ATOM     11  S   LIG    1       -5.090  -5.937  12.247  0.00  0.00    -0.057 S 
ATOM     12  C   LIG    1       -4.243  -5.005  13.462  0.00  0.00    +0.277 C 
ATOM     13  O   LIG    1       -3.042  -4.990  13.598  0.00  0.00    -0.263 OA
ATOM     14  N   LIG    1       -5.139  -4.394  14.285  0.00  0.00    -0.273 N 
ATOM     15  H   LIG    1       -4.795  -4.008  15.152  0.00  0.00    +0.156 HD
ENDBRANCH   7  10
ENDBRANCH   1   7
BRANCH   4  16
ATOM     16  O   LIG    1      -11.423  -0.700  12.974  0.00  0.00    -0.490 OA
BRANCH  16  17
ATOM     17  C   LIG    1      -10.929   0.511  13.558  0.00  0.00    +0.248 C 
BRANCH  17  18
ATOM     18  C   LIG    1      -11.214   1.813  12.824  0.00  0.00    +0.147 C 
BRANCH  18  19
ATOM     19  N   LIG    1      -10.494   3.014  13.355  0.00  0.00    -0.315 N 
ATOM     20  C   LIG    1       -9.484   2.659  14.363  0.00  0.00    +0.131 C 
BRANCH  19  21
ATOM     21  C   LIG    1      -10.057   4.077  12.541  0.00  0.00    +0.121 A 
ATOM     22  C   LIG    1      -10.617   4.337  11.288  0.00  0.00    +0.043 A 
ATOM     23  C   LIG    1      -10.188   5.408  10.498  0.00  0.00    +0.005 A 
ATOM     24  C   LIG    1       -9.251   6.281  11.008  0.00  0.00    +0.020 A 
ATOM     25  C   LIG    1       -8.782   6.026  12.279  0.00  0.00    +0.113 A 
ATOM     26  N   LIG    1       -9.149   4.955  13.028  0.00  0.00    -0.240 NA
ENDBRANCH  19  21
ENDBRANCH  18  19
ENDBRANCH  17  18
ENDBRANCH  16  17
ENDBRANCH   4  16
TORSDOF 7
ENDMDL
MODEL 7
REMARK VINA RESULT:      -6.1      7.702      9.155
REMARK  Name = 
REMARK                            x       y       z     vdW  Elec       q    Type
REMARK                         _______ _______ _______ _____ _____    ______ ____
ROOT
ATOM      1  C   LIG    1      -10.144   4.127  13.158  0.00  0.00    -0.046 A 
ATOM      2  C   LIG    1      -11.037   3.493  12.302  0.00  0.00    +0.007 A 
ATOM      3  C   LIG    1      -11.308   2.137  12.443  0.00  0.00    +0.046 A 
ATOM      4  C   LIG    1      -10.658   1.354  13.404  0.00  0.00    +0.121 A 
ATOM      5  C   LIG    1       -9.715   1.970  14.225  0.00  0.00    +0.046 A 
ATOM      6  C   LIG    1       -9.466   3.351  14.111  0.00  0.00    +0.007 A 
ENDROOT
BRANCH   1   7
ATOM      7  C   LIG    1       -9.938   5.618  13.026  0.00  0.00    +0.056 C 
BRANCH   7  10
ATOM      8  S   LIG    1       -6.886   7.720  13.415  0.00  0.00    -0.039 S 
ATOM      9  C   LIG    1       -8.161   7.393  12.396  0.00  0.00    +0.069 C 
ATOM     10  C   LIG    1       -8.759   6.020  12.118  0.00  0.00    +0.112 C 
ATOM     11  S   LIG    1       -9.467   6.262  10.429  0.00  0.00    -0.057 S 
ATOM     12  C   LIG    1       -9.421   8.008  10.542  0.00  0.00    +0.277 C 
ATOM     13  O   LIG    1       -9.844   8.759   9.695  0.00  0.00    -0.263 OA
ATOM     14  N   LIG    1       -8.750   8.382  11.665  0.00  0.00    -0.273 N 
ATOM     15  H   LIG    1       -8.460   9.345  11.742  0.00  0.00    +0.156 HD
ENDBRANCH   7  10
ENDBRANCH   1   7
BRANCH   4  16
ATOM     16  O   LIG    1      -10.888   0.001  13.601  0.00  0.00    -0.490 OA
BRANCH  16  17
ATOM     17  C   LIG    1      -10.209  -0.797  12.624  0.00  0.00    +0.248 C 
BRANCH  17  18
ATOM     18  C   LIG    1      -10.131  -2.297  12.872  0.00  0.00    +0.147 C 
BRANCH  18  19
ATOM     19  N   LIG    1       -8.773  -2.901  12.693  0.00  0.00    -0.315 N 
ATOM     20  C   LIG    1       -8.456  -3.885  13.738  0.00  0.00    +0.131 C 
BRANCH  19  21
ATOM     21  C   LIG    1       -8.261  -3.298  11.442  0.00  0.00    +0.121 A 
ATOM     22  C   LIG    1       -8.375  -2.499  10.301  0.00  0.00    +0.043 A 
ATOM     23  C   LIG    1       -7.845  -2.896   9.069  0.00  0.00    +0.005 A 
ATOM     24  C   LIG    1       -7.113  -4.063   9.001  0.00  0.00    +0.020 A 
ATOM     25  C   LIG    1       -6.965  -4.779  10.169  0.00  0.00    +0.113 A 
ATOM     26  N   LIG    1       -7.526  -4.431  11.355  0.00  0.00    -0.240 NA
ENDBRANCH  19  21
ENDBRANCH  18  19
ENDBRANCH  17  18
ENDBRANCH  16  17
ENDBRANCH   4  16
TORSDOF 7
ENDMDL
MODEL 8
REMARK VINA RESULT:      -5.9      7.632      9.145
REMARK  Name = 
REMARK                            x       y       z     vdW  Elec       q    Type
REMARK                         _______ _______ _______ _____ _____    ______ ____
ROOT
ATOM      1  C   LIG    1      -10.220   3.993  13.183  0.00  0.00    -0.046 A 
ATOM      2  C   LIG    1      -11.123   3.394  12.311  0.00  0.00    +0.007 A 
ATOM      3  C   LIG    1      -11.393   2.034  12.399  0.00  0.00    +0.046 A 
ATOM      4  C   LIG    1      -10.733   1.212  13.321  0.00  0.00    +0.121 A 
ATOM      5  C   LIG    1       -9.781   1.794  14.156  0.00  0.00    +0.046 A 
ATOM      6  C   LIG    1       -9.533   3.178  14.096  0.00  0.00    +0.007 A 
ENDROOT
BRANCH   1   7
ATOM      7  C   LIG    1      -10.015   5.488  13.111  0.00  0.00    +0.056 C 
BRANCH   7  10
ATOM      8  S   LIG    1       -7.016   7.667  13.489  0.00  0.00    -0.039 S 
ATOM      9  C   LIG    1       -8.291   7.314  12.479  0.00  0.00    +0.069 C 
ATOM     10  C   LIG    1       -8.854   5.927  12.195  0.00  0.00    +0.112 C 
ATOM     11  S   LIG    1       -9.582   6.162  10.514  0.00  0.00    -0.057 S 
ATOM     12  C   LIG    1       -9.582   7.907  10.639  0.00  0.00    +0.277 C 
ATOM     13  O   LIG    1      -10.032   8.653   9.801  0.00  0.00    -0.263 OA
ATOM     14  N   LIG    1       -8.912   8.291  11.760  0.00  0.00    -0.273 N 
ATOM     15  H   LIG    1       -8.646   9.262  11.840  0.00  0.00    +0.156 HD
ENDBRANCH   7  10
ENDBRANCH   1   7
BRANCH   4  16
ATOM     16  O   LIG    1      -10.962  -0.148  13.465  0.00  0.00    -0.490 OA
BRANCH  16  17
ATOM     17  C   LIG    1      -10.077  -0.921  12.646  0.00  0.00    +0.248 C 
BRANCH  17  18
ATOM     18  C   LIG    1      -10.033  -2.424  12.882  0.00  0.00    +0.147 C 
BRANCH  18  19
ATOM     19  N   LIG    1       -8.782  -3.105  12.418  0.00  0.00    -0.315 N 
ATOM     20  C   LIG    1       -8.150  -2.406  11.290  0.00  0.00    +0.131 C 
BRANCH  19  21
ATOM     21  C   LIG    1       -7.820  -3.637  13.298  0.00  0.00    +0.121 A 
ATOM     22  C   LIG    1       -6.450  -3.418  13.127  0.00  0.00    +0.043 A 
ATOM     23  C   LIG    1       -5.505  -3.936  14.019  0.00  0.00    +0.005 A 
ATOM     24  C   LIG    1       -5.943  -4.602  15.144  0.00  0.00    +0.020 A 
ATOM     25  C   LIG    1       -7.306  -4.729  15.307  0.00  0.00    +0.113 A 
ATOM     26  N   LIG    1       -8.227  -4.281  14.416  0.00  0.00    -0.240 NA
ENDBRANCH  19  21
ENDBRANCH  18  19
ENDBRANCH  17  18
ENDBRANCH  16  17
ENDBRANCH   4  16
TORSDOF 7
ENDMDL
MODEL 9
REMARK VINA RESULT:      -5.8      8.105      9.271
REMARK  Name = 
REMARK                            x       y       z     vdW  Elec       q    Type
REMARK                         _______ _______ _______ _____ _____    ______ ____
ROOT
ATOM      1  C   LIG    1       -9.759   4.048  13.008  0.00  0.00    -0.046 A 
ATOM      2  C   LIG    1       -9.277   3.345  14.107  0.00  0.00    +0.007 A 
ATOM      3  C   LIG    1       -9.708   2.047  14.359  0.00  0.00    +0.046 A 
ATOM      4  C   LIG    1      -10.675   1.426  13.559  0.00  0.00    +0.121 A 
ATOM      5  C   LIG    1      -11.209   2.148  12.493  0.00  0.00    +0.046 A 
ATOM      6  C   LIG    1      -10.747   3.448  12.212  0.00  0.00    +0.007 A 
ENDROOT
BRANCH   1   7
ATOM      7  C   LIG    1       -9.206   5.424  12.721  0.00  0.00    +0.056 C 
BRANCH   7  10
ATOM      8  S   LIG    1       -9.448   7.950   9.992  0.00  0.00    -0.039 S 
ATOM      9  C   LIG    1       -9.704   7.714  11.620  0.00  0.00    +0.069 C 
ATOM     10  C   LIG    1      -10.262   6.453  12.268  0.00  0.00    +0.112 C 
ATOM     11  S   LIG    1      -11.015   7.133  13.811  0.00  0.00    -0.057 S 
ATOM     12  C   LIG    1      -10.125   8.637  13.712  0.00  0.00    +0.277 C 
ATOM     13  O   LIG    1      -10.170   9.513  14.543  0.00  0.00    -0.263 OA
ATOM     14  N   LIG    1       -9.469   8.709  12.522  0.00  0.00    -0.273 N 
ATOM     15  H   LIG    1       -9.101   9.606  12.241  0.00  0.00    +0.156 HD
ENDBRANCH   7  10
ENDBRANCH   1   7
BRANCH   4  16
ATOM     16  O   LIG    1      -11.141   0.134  13.752  0.00  0.00    -0.490 OA
BRANCH  16  17
ATOM     17  C   LIG    1      -10.703  -0.746  12.710  0.00  0.00    +0.248 C 
BRANCH  17  18
ATOM     18  C   LIG    1       -9.339  -1.403  12.871  0.00  0.00    +0.147 C 
BRANCH  18  19
ATOM     19  N   LIG    1       -9.265  -2.832  12.428  0.00  0.00    -0.315 N 
ATOM     20  C   LIG    1      -10.522  -3.556  12.664  0.00  0.00    +0.131 C 
BRANCH  19  21
ATOM     21  C   LIG    1       -8.656  -3.239  11.226  0.00  0.00    +0.121 A 
ATOM     22  C   LIG    1       -8.401  -2.349  10.179  0.00  0.00    +0.043 A 
ATOM     23  C   LIG    1       -7.777  -2.761   8.998  0.00  0.00    +0.005 A 
ATOM     24  C   LIG    1       -7.321  -4.059   8.900  0.00  0.00    +0.020 A 
ATOM     25  C   LIG    1       -7.530  -4.880   9.988  0.00  0.00    +0.113 A 
ATOM     26  N   LIG    1       -8.187  -4.503  11.115  0.00  0.00    -0.240 NA
ENDBRANCH  19  21
ENDBRANCH  18  19
ENDBRANCH  17  18
ENDBRANCH  16  17
ENDBRANCH   4  16
TORSDOF 7
ENDMDL
