MODEL 1
REMARK VINA RESULT:      -8.2      0.000      0.000
REMARK  Name = 
REMARK                            x       y       z     vdW  Elec       q    Type
REMARK                         _______ _______ _______ _____ _____    ______ ____
ROOT
ATOM      1  C   LIG    1       59.734  46.313  28.946  0.00  0.00    -0.046 A 
ATOM      2  C   LIG    1       60.288  47.576  28.770  0.00  0.00    +0.007 A 
ATOM      3  C   LIG    1       61.657  47.773  28.909  0.00  0.00    +0.046 A 
ATOM      4  C   LIG    1       62.514  46.730  29.282  0.00  0.00    +0.121 A 
ATOM      5  C   LIG    1       61.957  45.475  29.522  0.00  0.00    +0.046 A 
ATOM      6  C   LIG    1       60.576  45.264  29.344  0.00  0.00    +0.007 A 
ENDROOT
BRANCH   1   7
ATOM      7  C   LIG    1       58.255  46.124  28.705  0.00  0.00    +0.056 C 
BRANCH   7  10
ATOM      8  S   LIG    1       58.366  45.509  32.379  0.00  0.00    -0.039 S 
ATOM      9  C   LIG    1       57.362  45.485  31.051  0.00  0.00    +0.069 C 
ATOM     10  C   LIG    1       57.362  46.492  29.908  0.00  0.00    +0.112 C 
ATOM     11  S   LIG    1       55.618  46.373  29.312  0.00  0.00    -0.057 S 
ATOM     12  C   LIG    1       55.335  44.843  30.113  0.00  0.00    +0.277 C 
ATOM     13  O   LIG    1       54.312  44.205  30.026  0.00  0.00    -0.263 OA
ATOM     14  N   LIG    1       56.387  44.542  30.922  0.00  0.00    -0.273 N 
ATOM     15  H   LIG    1       56.263  43.808  31.603  0.00  0.00    +0.156 HD
ENDBRANCH   7  10
ENDBRANCH   1   7
BRANCH   4  16
ATOM     16  O   LIG    1       63.887  46.858  29.430  0.00  0.00    -0.490 OA
BRANCH  16  17
ATOM     17  C   LIG    1       64.443  45.758  30.162  0.00  0.00    +0.248 C 
BRANCH  17  18
ATOM     18  C   LIG    1       64.850  46.008  31.607  0.00  0.00    +0.147 C 
BRANCH  18  19
ATOM     19  N   LIG    1       63.870  45.536  32.635  0.00  0.00    -0.315 N 
ATOM     20  C   LIG    1       64.266  44.255  33.237  0.00  0.00    +0.131 C 
BRANCH  19  21
ATOM     21  C   LIG    1       63.273  46.387  33.585  0.00  0.00    +0.121 A 
ATOM     22  C   LIG    1       61.895  46.402  33.813  0.00  0.00    +0.043 A 
ATOM     23  C   LIG    1       61.317  47.238  34.773  0.00  0.00    +0.005 A 
ATOM     24  C   LIG    1       62.137  48.002  35.576  0.00  0.00    +0.020 A 
ATOM     25  C   LIG    1       63.496  47.897  35.364  0.00  0.00    +0.113 A 
ATOM     26  N   LIG    1       64.061  47.133  34.394  0.00  0.00    -0.240 NA
ENDBRANCH  19  21
ENDBRANCH  18  19
ENDBRANCH  17  18
ENDBRANCH  16  17
ENDBRANCH   4  16
TORSDOF 7
ENDMDL
MODEL 2
REMARK VINA RESULT:      -7.8      1.542      2.187
REMARK  Name = 
REMARK                            x       y       z     vdW  Elec       q    Type
REMARK                         _______ _______ _______ _____ _____    ______ ____
ROOT
ATOM      1  C   LIG    1       59.129  46.770  29.375  0.00  0.00    -0.046 A 
ATOM      2  C   LIG    1       59.821  46.435  30.534  0.00  0.00    +0.007 A 
ATOM      3  C   LIG    1       61.168  46.094  30.479  0.00  0.00    +0.046 A 
ATOM      4  C   LIG    1       61.857  46.020  29.263  0.00  0.00    +0.121 A 
ATOM      5  C   LIG    1       61.154  46.293  28.091  0.00  0.00    +0.046 A 
ATOM      6  C   LIG    1       59.801  46.676  28.146  0.00  0.00    +0.007 A 
ENDROOT
BRANCH   1   7
ATOM      7  C   LIG    1       57.690  47.215  29.485  0.00  0.00    +0.056 C 
BRANCH   7  10
ATOM      8  S   LIG    1       54.338  47.688  27.927  0.00  0.00    -0.039 S 
ATOM      9  C   LIG    1       55.219  46.684  28.920  0.00  0.00    +0.069 C 
ATOM     10  C   LIG    1       56.685  46.308  28.745  0.00  0.00    +0.112 C 
ATOM     11  S   LIG    1       56.749  44.668  29.591  0.00  0.00    -0.057 S 
ATOM     12  C   LIG    1       55.241  44.926  30.441  0.00  0.00    +0.277 C 
ATOM     13  O   LIG    1       54.770  44.158  31.247  0.00  0.00    -0.263 OA
ATOM     14  N   LIG    1       54.638  46.057  29.982  0.00  0.00    -0.273 N 
ATOM     15  H   LIG    1       53.669  46.205  30.223  0.00  0.00    +0.156 HD
ENDBRANCH   7  10
ENDBRANCH   1   7
BRANCH   4  16
ATOM     16  O   LIG    1       63.200  45.694  29.141  0.00  0.00    -0.490 OA
BRANCH  16  17
ATOM     17  C   LIG    1       63.577  44.661  30.058  0.00  0.00    +0.248 C 
BRANCH  17  18
ATOM     18  C   LIG    1       64.427  45.060  31.256  0.00  0.00    +0.147 C 
BRANCH  18  19
ATOM     19  N   LIG    1       63.902  44.614  32.586  0.00  0.00    -0.315 N 
ATOM     20  C   LIG    1       64.436  43.305  32.988  0.00  0.00    +0.131 C 
BRANCH  19  21
ATOM     21  C   LIG    1       63.766  45.475  33.692  0.00  0.00    +0.121 A 
ATOM     22  C   LIG    1       64.260  45.149  34.958  0.00  0.00    +0.043 A 
ATOM     23  C   LIG    1       64.135  46.021  36.044  0.00  0.00    +0.005 A 
ATOM     24  C   LIG    1       63.592  47.271  35.838  0.00  0.00    +0.020 A 
ATOM     25  C   LIG    1       63.187  47.575  34.556  0.00  0.00    +0.113 A 
ATOM     26  N   LIG    1       63.249  46.712  33.510  0.00  0.00    -0.240 NA
ENDBRANCH  19  21
ENDBRANCH  18  19
ENDBRANCH  17  18
ENDBRANCH  16  17
ENDBRANCH   4  16
TORSDOF 7
ENDMDL
MODEL 3
REMARK VINA RESULT:      -7.7      2.007      2.794
REMARK  Name = 
REMARK                            x       y       z     vdW  Elec       q    Type
REMARK                         _______ _______ _______ _____ _____    ______ ____
ROOT
ATOM      1  C   LIG    1       62.117  45.817  28.184  0.00  0.00    -0.046 A 
ATOM      2  C   LIG    1       62.287  44.628  28.885  0.00  0.00    +0.007 A 
ATOM      3  C   LIG    1       63.524  44.299  29.428  0.00  0.00    +0.046 A 
ATOM      4  C   LIG    1       64.647  45.114  29.243  0.00  0.00    +0.121 A 
ATOM      5  C   LIG    1       64.499  46.276  28.487  0.00  0.00    +0.046 A 
ATOM      6  C   LIG    1       63.239  46.632  27.969  0.00  0.00    +0.007 A 
ENDROOT
BRANCH   1   7
ATOM      7  C   LIG    1       60.740  46.179  27.681  0.00  0.00    +0.056 C 
BRANCH   7  10
ATOM      8  S   LIG    1       61.450  48.044  30.828  0.00  0.00    -0.039 S 
ATOM      9  C   LIG    1       60.368  47.004  30.108  0.00  0.00    +0.069 C 
ATOM     10  C   LIG    1       59.915  47.047  28.653  0.00  0.00    +0.112 C 
ATOM     11  S   LIG    1       58.249  46.258  28.764  0.00  0.00    -0.057 S 
ATOM     12  C   LIG    1       58.567  45.553  30.334  0.00  0.00    +0.277 C 
ATOM     13  O   LIG    1       57.803  44.826  30.924  0.00  0.00    -0.263 OA
ATOM     14  N   LIG    1       59.743  46.029  30.825  0.00  0.00    -0.273 N 
ATOM     15  H   LIG    1       59.939  45.880  31.804  0.00  0.00    +0.156 HD
ENDBRANCH   7  10
ENDBRANCH   1   7
BRANCH   4  16
ATOM     16  O   LIG    1       65.905  44.846  29.762  0.00  0.00    -0.490 OA
BRANCH  16  17
ATOM     17  C   LIG    1       65.872  44.729  31.190  0.00  0.00    +0.248 C 
BRANCH  17  18
ATOM     18  C   LIG    1       65.392  45.935  31.984  0.00  0.00    +0.147 C 
BRANCH  18  19
ATOM     19  N   LIG    1       64.948  45.641  33.383  0.00  0.00    -0.315 N 
ATOM     20  C   LIG    1       66.080  45.410  34.292  0.00  0.00    +0.131 C 
BRANCH  19  21
ATOM     21  C   LIG    1       63.906  46.334  34.027  0.00  0.00    +0.121 A 
ATOM     22  C   LIG    1       64.138  47.453  34.831  0.00  0.00    +0.043 A 
ATOM     23  C   LIG    1       63.092  48.145  35.449  0.00  0.00    +0.005 A 
ATOM     24  C   LIG    1       61.792  47.768  35.184  0.00  0.00    +0.020 A 
ATOM     25  C   LIG    1       61.611  46.705  34.325  0.00  0.00    +0.113 A 
ATOM     26  N   LIG    1       62.622  45.991  33.769  0.00  0.00    -0.240 NA
ENDBRANCH  19  21
ENDBRANCH  18  19
ENDBRANCH  17  18
ENDBRANCH  16  17
ENDBRANCH   4  16
TORSDOF 7
ENDMDL
MODEL 4
REMARK VINA RESULT:      -7.7      2.186      4.121
REMARK  Name = 
REMARK                            x       y       z     vdW  Elec       q    Type
REMARK                         _______ _______ _______ _____ _____    ______ ____
ROOT
ATOM      1  C   LIG    1       60.141  46.295  32.730  0.00  0.00    -0.046 A 
ATOM      2  C   LIG    1       60.237  46.276  34.118  0.00  0.00    +0.007 A 
ATOM      3  C   LIG    1       61.429  46.613  34.748  0.00  0.00    +0.046 A 
ATOM      4  C   LIG    1       62.582  46.926  34.018  0.00  0.00    +0.121 A 
ATOM      5  C   LIG    1       62.511  46.886  32.627  0.00  0.00    +0.046 A 
ATOM      6  C   LIG    1       61.295  46.583  31.985  0.00  0.00    +0.007 A 
ENDROOT
BRANCH   1   7
ATOM      7  C   LIG    1       58.807  46.003  32.086  0.00  0.00    +0.056 C 
BRANCH   7  10
ATOM      8  S   LIG    1       59.893  47.274  28.756  0.00  0.00    -0.039 S 
ATOM      9  C   LIG    1       58.698  46.412  29.531  0.00  0.00    +0.069 C 
ATOM     10  C   LIG    1       58.902  45.414  30.663  0.00  0.00    +0.112 C 
ATOM     11  S   LIG    1       57.430  44.318  30.458  0.00  0.00    -0.057 S 
ATOM     12  C   LIG    1       56.572  45.475  29.463  0.00  0.00    +0.277 C 
ATOM     13  O   LIG    1       55.448  45.319  29.049  0.00  0.00    -0.263 OA
ATOM     14  N   LIG    1       57.395  46.511  29.144  0.00  0.00    -0.273 N 
ATOM     15  H   LIG    1       57.105  47.132  28.403  0.00  0.00    +0.156 HD
ENDBRANCH   7  10
ENDBRANCH   1   7
BRANCH   4  16
ATOM     16  O   LIG    1       63.798  47.277  34.585  0.00  0.00    -0.490 OA
BRANCH  16  17
ATOM     17  C   LIG    1       64.579  46.123  34.916  0.00  0.00    +0.248 C 
BRANCH  17  18
ATOM     18  C   LIG    1       65.700  45.735  33.962  0.00  0.00    +0.147 C 
BRANCH  18  19
ATOM     19  N   LIG    1       65.433  44.522  33.126  0.00  0.00    -0.315 N 
ATOM     20  C   LIG    1       64.730  43.471  33.874  0.00  0.00    +0.131 C 
BRANCH  19  21
ATOM     21  C   LIG    1       64.992  44.586  31.790  0.00  0.00    +0.121 A 
ATOM     22  C   LIG    1       64.168  43.606  31.228  0.00  0.00    +0.043 A 
ATOM     23  C   LIG    1       63.720  43.691  29.907  0.00  0.00    +0.005 A 
ATOM     24  C   LIG    1       64.025  44.814  29.168  0.00  0.00    +0.020 A 
ATOM     25  C   LIG    1       64.778  45.788  29.789  0.00  0.00    +0.113 A 
ATOM     26  N   LIG    1       65.267  45.686  31.052  0.00  0.00    -0.240 NA
ENDBRANCH  19  21
ENDBRANCH  18  19
ENDBRANCH  17  18
ENDBRANCH  16  17
ENDBRANCH   4  16
TORSDOF 7
ENDMDL
MODEL 5
REMARK VINA RESULT:      -7.6      2.918      6.809
REMARK  Name = 
REMARK                            x       y       z     vdW  Elec       q    Type
REMARK                         _______ _______ _______ _____ _____    ______ ____
ROOT
ATOM      1  C   LIG    1       64.502  44.896  31.199  0.00  0.00    -0.046 A 
ATOM      2  C   LIG    1       64.758  46.078  30.512  0.00  0.00    +0.007 A 
ATOM      3  C   LIG    1       64.329  46.239  29.200  0.00  0.00    +0.046 A 
ATOM      4  C   LIG    1       63.681  45.209  28.508  0.00  0.00    +0.121 A 
ATOM      5  C   LIG    1       63.477  43.999  29.169  0.00  0.00    +0.046 A 
ATOM      6  C   LIG    1       63.875  43.846  30.511  0.00  0.00    +0.007 A 
ENDROOT
BRANCH   1   7
ATOM      7  C   LIG    1       64.910  44.790  32.649  0.00  0.00    +0.056 C 
BRANCH   7  10
ATOM      8  S   LIG    1       61.653  46.557  33.041  0.00  0.00    -0.039 S 
ATOM      9  C   LIG    1       62.990  46.021  33.875  0.00  0.00    +0.069 C 
ATOM     10  C   LIG    1       63.730  44.710  33.639  0.00  0.00    +0.112 C 
ATOM     11  S   LIG    1       64.470  44.400  35.302  0.00  0.00    -0.057 S 
ATOM     12  C   LIG    1       64.248  46.054  35.829  0.00  0.00    +0.277 C 
ATOM     13  O   LIG    1       64.625  46.489  36.892  0.00  0.00    -0.263 OA
ATOM     14  N   LIG    1       63.503  46.735  34.916  0.00  0.00    -0.273 N 
ATOM     15  H   LIG    1       63.117  47.625  35.194  0.00  0.00    +0.156 HD
ENDBRANCH   7  10
ENDBRANCH   1   7
BRANCH   4  16
ATOM     16  O   LIG    1       63.223  45.308  27.202  0.00  0.00    -0.490 OA
BRANCH  16  17
ATOM     17  C   LIG    1       61.794  45.221  27.137  0.00  0.00    +0.248 C 
BRANCH  17  18
ATOM     18  C   LIG    1       60.995  46.459  27.517  0.00  0.00    +0.147 C 
BRANCH  18  19
ATOM     19  N   LIG    1       60.483  46.479  28.924  0.00  0.00    -0.315 N 
ATOM     20  C   LIG    1       60.925  47.670  29.663  0.00  0.00    +0.131 C 
BRANCH  19  21
ATOM     21  C   LIG    1       59.169  46.114  29.274  0.00  0.00    +0.121 A 
ATOM     22  C   LIG    1       58.050  46.807  28.803  0.00  0.00    +0.043 A 
ATOM     23  C   LIG    1       56.750  46.422  29.142  0.00  0.00    +0.005 A 
ATOM     24  C   LIG    1       56.564  45.277  29.888  0.00  0.00    +0.020 A 
ATOM     25  C   LIG    1       57.695  44.586  30.267  0.00  0.00    +0.113 A 
ATOM     26  N   LIG    1       58.963  44.985  29.992  0.00  0.00    -0.240 NA
ENDBRANCH  19  21
ENDBRANCH  18  19
ENDBRANCH  17  18
ENDBRANCH  16  17
ENDBRANCH   4  16
TORSDOF 7
ENDMDL
MODEL 6
REMARK VINA RESULT:      -7.5      2.228      4.294
REMARK  Name = 
REMARK                            x       y       z     vdW  Elec       q    Type
REMARK                         _______ _______ _______ _____ _____    ______ ____
ROOT
ATOM      1  C   LIG    1       59.387  46.030  32.427  0.00  0.00    -0.046 A 
ATOM      2  C   LIG    1       59.871  46.093  33.729  0.00  0.00    +0.007 A 
ATOM      3  C   LIG    1       61.191  46.455  33.975  0.00  0.00    +0.046 A 
ATOM      4  C   LIG    1       62.088  46.712  32.932  0.00  0.00    +0.121 A 
ATOM      5  C   LIG    1       61.626  46.589  31.622  0.00  0.00    +0.046 A 
ATOM      6  C   LIG    1       60.281  46.261  31.370  0.00  0.00    +0.007 A 
ENDROOT
BRANCH   1   7
ATOM      7  C   LIG    1       57.926  45.715  32.205  0.00  0.00    +0.056 C 
BRANCH   7  10
ATOM      8  S   LIG    1       58.749  46.588  28.677  0.00  0.00    -0.039 S 
ATOM      9  C   LIG    1       57.508  46.116  29.681  0.00  0.00    +0.069 C 
ATOM     10  C   LIG    1       57.609  45.111  30.822  0.00  0.00    +0.112 C 
ATOM     11  S   LIG    1       55.874  44.485  30.917  0.00  0.00    -0.057 S 
ATOM     12  C   LIG    1       55.224  45.832  30.007  0.00  0.00    +0.277 C 
ATOM     13  O   LIG    1       54.048  46.004  29.787  0.00  0.00    -0.263 OA
ATOM     14  N   LIG    1       56.240  46.583  29.503  0.00  0.00    -0.273 N 
ATOM     15  H   LIG    1       56.017  47.255  28.783  0.00  0.00    +0.156 HD
ENDBRANCH   7  10
ENDBRANCH   1   7
BRANCH   4  16
ATOM     16  O   LIG    1       63.412  47.083  33.109  0.00  0.00    -0.490 OA
BRANCH  16  17
ATOM     17  C   LIG    1       64.285  45.947  33.097  0.00  0.00    +0.248 C 
BRANCH  17  18
ATOM     18  C   LIG    1       65.210  45.783  31.900  0.00  0.00    +0.147 C 
BRANCH  18  19
ATOM     19  N   LIG    1       64.874  44.644  30.988  0.00  0.00    -0.315 N 
ATOM     20  C   LIG    1       64.381  43.469  31.720  0.00  0.00    +0.131 C 
BRANCH  19  21
ATOM     21  C   LIG    1       64.200  44.806  29.762  0.00  0.00    +0.121 A 
ATOM     22  C   LIG    1       64.299  45.976  29.004  0.00  0.00    +0.043 A 
ATOM     23  C   LIG    1       63.640  46.117  27.779  0.00  0.00    +0.005 A 
ATOM     24  C   LIG    1       62.948  45.041  27.264  0.00  0.00    +0.020 A 
ATOM     25  C   LIG    1       62.941  43.883  28.014  0.00  0.00    +0.113 A 
ATOM     26  N   LIG    1       63.528  43.758  29.231  0.00  0.00    -0.240 NA
ENDBRANCH  19  21
ENDBRANCH  18  19
ENDBRANCH  17  18
ENDBRANCH  16  17
ENDBRANCH   4  16
TORSDOF 7
ENDMDL
MODEL 7
REMARK VINA RESULT:      -7.3      3.370      7.503
REMARK  Name = 
REMARK                            x       y       z     vdW  Elec       q    Type
REMARK                         _______ _______ _______ _____ _____    ______ ____
ROOT
ATOM      1  C   LIG    1       64.784  45.817  30.882  0.00  0.00    -0.046 A 
ATOM      2  C   LIG    1       64.900  45.114  29.688  0.00  0.00    +0.007 A 
ATOM      3  C   LIG    1       63.842  45.074  28.787  0.00  0.00    +0.046 A 
ATOM      4  C   LIG    1       62.614  45.684  29.068  0.00  0.00    +0.121 A 
ATOM      5  C   LIG    1       62.469  46.336  30.292  0.00  0.00    +0.046 A 
ATOM      6  C   LIG    1       63.551  46.413  31.190  0.00  0.00    +0.007 A 
ENDROOT
BRANCH   1   7
ATOM      7  C   LIG    1       65.982  45.906  31.797  0.00  0.00    +0.056 C 
BRANCH   7  10
ATOM      8  S   LIG    1       64.174  42.711  32.431  0.00  0.00    -0.039 S 
ATOM      9  C   LIG    1       64.724  44.101  33.163  0.00  0.00    +0.069 C 
ATOM     10  C   LIG    1       66.045  44.804  32.875  0.00  0.00    +0.112 C 
ATOM     11  S   LIG    1       66.360  45.667  34.477  0.00  0.00    -0.057 S 
ATOM     12  C   LIG    1       64.702  45.506  35.014  0.00  0.00    +0.277 C 
ATOM     13  O   LIG    1       64.269  45.968  36.044  0.00  0.00    -0.263 OA
ATOM     14  N   LIG    1       64.014  44.702  34.159  0.00  0.00    -0.273 N 
ATOM     15  H   LIG    1       63.118  44.349  34.462  0.00  0.00    +0.156 HD
ENDBRANCH   7  10
ENDBRANCH   1   7
BRANCH   4  16
ATOM     16  O   LIG    1       61.524  45.686  28.211  0.00  0.00    -0.490 OA
BRANCH  16  17
ATOM     17  C   LIG    1       60.607  46.742  28.526  0.00  0.00    +0.248 C 
BRANCH  17  18
ATOM     18  C   LIG    1       59.123  46.464  28.336  0.00  0.00    +0.147 C 
BRANCH  18  19
ATOM     19  N   LIG    1       58.471  45.702  29.448  0.00  0.00    -0.315 N 
ATOM     20  C   LIG    1       59.182  45.858  30.725  0.00  0.00    +0.131 C 
BRANCH  19  21
ATOM     21  C   LIG    1       57.077  45.652  29.639  0.00  0.00    +0.121 A 
ATOM     22  C   LIG    1       56.473  44.734  30.503  0.00  0.00    +0.043 A 
ATOM     23  C   LIG    1       55.089  44.709  30.699  0.00  0.00    +0.005 A 
ATOM     24  C   LIG    1       54.310  45.672  30.094  0.00  0.00    +0.020 A 
ATOM     25  C   LIG    1       54.960  46.602  29.310  0.00  0.00    +0.113 A 
ATOM     26  N   LIG    1       56.295  46.598  29.067  0.00  0.00    -0.240 NA
ENDBRANCH  19  21
ENDBRANCH  18  19
ENDBRANCH  17  18
ENDBRANCH  16  17
ENDBRANCH   4  16
TORSDOF 7
ENDMDL
MODEL 8
REMARK VINA RESULT:      -7.0      1.522      1.883
REMARK  Name = 
REMARK                            x       y       z     vdW  Elec       q    Type
REMARK                         _______ _______ _______ _____ _____    ______ ____
ROOT
ATOM      1  C   LIG    1       61.477  45.958  28.618  0.00  0.00    -0.046 A 
ATOM      2  C   LIG    1       62.454  46.939  28.752  0.00  0.00    +0.007 A 
ATOM      3  C   LIG    1       63.754  46.598  29.104  0.00  0.00    +0.046 A 
ATOM      4  C   LIG    1       64.115  45.275  29.389  0.00  0.00    +0.121 A 
ATOM      5  C   LIG    1       63.126  44.294  29.317  0.00  0.00    +0.046 A 
ATOM      6  C   LIG    1       61.817  44.631  28.923  0.00  0.00    +0.007 A 
ENDROOT
BRANCH   1   7
ATOM      7  C   LIG    1       60.097  46.359  28.154  0.00  0.00    +0.056 C 
BRANCH   7  10
ATOM      8  S   LIG    1       60.222  46.344  31.878  0.00  0.00    -0.039 S 
ATOM      9  C   LIG    1       59.248  45.996  30.573  0.00  0.00    +0.069 C 
ATOM     10  C   LIG    1       59.149  46.805  29.286  0.00  0.00    +0.112 C 
ATOM     11  S   LIG    1       57.440  46.392  28.721  0.00  0.00    -0.057 S 
ATOM     12  C   LIG    1       57.323  44.984  29.754  0.00  0.00    +0.277 C 
ATOM     13  O   LIG    1       56.382  44.225  29.771  0.00  0.00    -0.263 OA
ATOM     14  N   LIG    1       58.391  44.937  30.596  0.00  0.00    -0.273 N 
ATOM     15  H   LIG    1       58.341  44.309  31.385  0.00  0.00    +0.156 HD
ENDBRANCH   7  10
ENDBRANCH   1   7
BRANCH   4  16
ATOM     16  O   LIG    1       65.393  44.867  29.737  0.00  0.00    -0.490 OA
BRANCH  16  17
ATOM     17  C   LIG    1       65.848  45.519  30.929  0.00  0.00    +0.248 C 
BRANCH  17  18
ATOM     18  C   LIG    1       65.901  44.693  32.207  0.00  0.00    +0.147 C 
BRANCH  18  19
ATOM     19  N   LIG    1       64.619  44.631  32.977  0.00  0.00    -0.315 N 
ATOM     20  C   LIG    1       64.290  43.264  33.406  0.00  0.00    +0.131 C 
BRANCH  19  21
ATOM     21  C   LIG    1       64.257  45.577  33.956  0.00  0.00    +0.121 A 
ATOM     22  C   LIG    1       63.450  46.681  33.665  0.00  0.00    +0.043 A 
ATOM     23  C   LIG    1       63.082  47.602  34.650  0.00  0.00    +0.005 A 
ATOM     24  C   LIG    1       63.449  47.366  35.958  0.00  0.00    +0.020 A 
ATOM     25  C   LIG    1       64.181  46.225  36.207  0.00  0.00    +0.113 A 
ATOM     26  N   LIG    1       64.593  45.357  35.248  0.00  0.00    -0.240 NA
ENDBRANCH  19  21
ENDBRANCH  18  19
ENDBRANCH  17  18
ENDBRANCH  16  17
ENDBRANCH   4  16
TORSDOF 7
ENDMDL
MODEL 9
REMARK VINA RESULT:      -6.8      2.756      3.732
REMARK  Name = 
REMARK                            x       y       z     vdW  Elec       q    Type
REMARK                         _______ _______ _______ _____ _____    ______ ____
ROOT
ATOM      1  C   LIG    1       63.440  45.601  29.151  0.00  0.00    -0.046 A 
ATOM      2  C   LIG    1       64.500  45.830  30.022  0.00  0.00    +0.007 A 
ATOM      3  C   LIG    1       64.890  44.854  30.932  0.00  0.00    +0.046 A 
ATOM      4  C   LIG    1       64.203  43.639  31.044  0.00  0.00    +0.121 A 
ATOM      5  C   LIG    1       63.101  43.428  30.218  0.00  0.00    +0.046 A 
ATOM      6  C   LIG    1       62.727  44.398  29.268  0.00  0.00    +0.007 A 
ENDROOT
BRANCH   1   7
ATOM      7  C   LIG    1       63.100  46.653  28.122  0.00  0.00    +0.056 C 
BRANCH   7  10
ATOM      8  S   LIG    1       62.040  47.974  31.441  0.00  0.00    -0.039 S 
ATOM      9  C   LIG    1       61.468  47.448  29.969  0.00  0.00    +0.069 C 
ATOM     10  C   LIG    1       62.101  47.721  28.610  0.00  0.00    +0.112 C 
ATOM     11  S   LIG    1       60.635  47.607  27.491  0.00  0.00    -0.057 S 
ATOM     12  C   LIG    1       59.661  46.765  28.676  0.00  0.00    +0.277 C 
ATOM     13  O   LIG    1       58.544  46.350  28.472  0.00  0.00    -0.263 OA
ATOM     14  N   LIG    1       60.304  46.745  29.875  0.00  0.00    -0.273 N 
ATOM     15  H   LIG    1       59.769  46.490  30.692  0.00  0.00    +0.156 HD
ENDBRANCH   7  10
ENDBRANCH   1   7
BRANCH   4  16
ATOM     16  O   LIG    1       64.545  42.623  31.924  0.00  0.00    -0.490 OA
BRANCH  16  17
ATOM     17  C   LIG    1       64.984  43.142  33.185  0.00  0.00    +0.248 C 
BRANCH  17  18
ATOM     18  C   LIG    1       63.927  43.725  34.113  0.00  0.00    +0.147 C 
BRANCH  18  19
ATOM     19  N   LIG    1       64.325  44.983  34.820  0.00  0.00    -0.315 N 
ATOM     20  C   LIG    1       65.670  45.437  34.440  0.00  0.00    +0.131 C 
BRANCH  19  21
ATOM     21  C   LIG    1       63.452  46.070  35.015  0.00  0.00    +0.121 A 
ATOM     22  C   LIG    1       62.077  45.976  34.782  0.00  0.00    +0.043 A 
ATOM     23  C   LIG    1       61.218  47.057  34.998  0.00  0.00    +0.005 A 
ATOM     24  C   LIG    1       61.727  48.218  35.540  0.00  0.00    +0.020 A 
ATOM     25  C   LIG    1       63.077  48.238  35.823  0.00  0.00    +0.113 A 
ATOM     26  N   LIG    1       63.928  47.214  35.561  0.00  0.00    -0.240 NA
ENDBRANCH  19  21
ENDBRANCH  18  19
ENDBRANCH  17  18
ENDBRANCH  16  17
ENDBRANCH   4  16
TORSDOF 7
ENDMDL
