MODEL 1
REMARK VINA RESULT:      -9.3      0.000      0.000
REMARK  Name = 
REMARK                            x       y       z     vdW  Elec       q    Type
REMARK                         _______ _______ _______ _____ _____    ______ ____
ROOT
ATOM      1  C   LIG    1       43.288  -2.033  17.891  0.00  0.00    -0.046 A 
ATOM      2  C   LIG    1       42.837  -1.004  18.711  0.00  0.00    +0.007 A 
ATOM      3  C   LIG    1       41.571  -0.461  18.531  0.00  0.00    +0.046 A 
ATOM      4  C   LIG    1       40.731  -0.884  17.494  0.00  0.00    +0.121 A 
ATOM      5  C   LIG    1       41.201  -1.871  16.628  0.00  0.00    +0.046 A 
ATOM      6  C   LIG    1       42.467  -2.451  16.832  0.00  0.00    +0.007 A 
ENDROOT
BRANCH   1   7
ATOM      7  C   LIG    1       44.637  -2.654  18.170  0.00  0.00    +0.056 C 
BRANCH   7  10
ATOM      8  S   LIG    1       44.328  -5.777  16.161  0.00  0.00    -0.039 S 
ATOM      9  C   LIG    1       45.428  -4.754  16.878  0.00  0.00    +0.069 C 
ATOM     10  C   LIG    1       45.340  -3.233  16.926  0.00  0.00    +0.112 C 
ATOM     11  S   LIG    1       47.121  -2.766  17.075  0.00  0.00    -0.057 S 
ATOM     12  C   LIG    1       47.611  -4.370  17.576  0.00  0.00    +0.277 C 
ATOM     13  O   LIG    1       48.738  -4.672  17.893  0.00  0.00    -0.263 OA
ATOM     14  N   LIG    1       46.567  -5.234  17.451  0.00  0.00    -0.273 N 
ATOM     15  H   LIG    1       46.766  -6.222  17.493  0.00  0.00    +0.156 HD
ENDBRANCH   7  10
ENDBRANCH   1   7
BRANCH   4  16
ATOM     16  O   LIG    1       39.456  -0.389  17.265  0.00  0.00    -0.490 OA
BRANCH  16  17
ATOM     17  C   LIG    1       38.942  -0.819  15.998  0.00  0.00    +0.248 C 
BRANCH  17  18
ATOM     18  C   LIG    1       38.016   0.132  15.255  0.00  0.00    +0.147 C 
BRANCH  18  19
ATOM     19  N   LIG    1       38.311   1.588  15.448  0.00  0.00    -0.315 N 
ATOM     20  C   LIG    1       39.035   2.167  14.307  0.00  0.00    +0.131 C 
BRANCH  19  21
ATOM     21  C   LIG    1       37.383   2.501  15.984  0.00  0.00    +0.121 A 
ATOM     22  C   LIG    1       36.964   2.445  17.317  0.00  0.00    +0.043 A 
ATOM     23  C   LIG    1       36.058   3.370  17.842  0.00  0.00    +0.005 A 
ATOM     24  C   LIG    1       35.636   4.417  17.051  0.00  0.00    +0.020 A 
ATOM     25  C   LIG    1       36.134   4.472  15.767  0.00  0.00    +0.113 A 
ATOM     26  N   LIG    1       36.968   3.545  15.230  0.00  0.00    -0.240 NA
ENDBRANCH  19  21
ENDBRANCH  18  19
ENDBRANCH  17  18
ENDBRANCH  16  17
ENDBRANCH   4  16
TORSDOF 7
ENDMDL
MODEL 2
REMARK VINA RESULT:      -9.3      1.507      3.086
REMARK  Name = 
REMARK                            x       y       z     vdW  Elec       q    Type
REMARK                         _______ _______ _______ _____ _____    ______ ____
ROOT
ATOM      1  C   LIG    1       43.448  -2.104  17.936  0.00  0.00    -0.046 A 
ATOM      2  C   LIG    1       43.029  -1.071  18.767  0.00  0.00    +0.007 A 
ATOM      3  C   LIG    1       41.760  -0.522  18.626  0.00  0.00    +0.046 A 
ATOM      4  C   LIG    1       40.885  -0.945  17.618  0.00  0.00    +0.121 A 
ATOM      5  C   LIG    1       41.322  -1.937  16.742  0.00  0.00    +0.046 A 
ATOM      6  C   LIG    1       42.592  -2.522  16.906  0.00  0.00    +0.007 A 
ENDROOT
BRANCH   1   7
ATOM      7  C   LIG    1       44.803  -2.730  18.174  0.00  0.00    +0.056 C 
BRANCH   7  10
ATOM      8  S   LIG    1       44.389  -5.843  16.168  0.00  0.00    -0.039 S 
ATOM      9  C   LIG    1       45.525  -4.839  16.856  0.00  0.00    +0.069 C 
ATOM     10  C   LIG    1       45.463  -3.318  16.910  0.00  0.00    +0.112 C 
ATOM     11  S   LIG    1       47.254  -2.880  17.012  0.00  0.00    -0.057 S 
ATOM     12  C   LIG    1       47.732  -4.492  17.495  0.00  0.00    +0.277 C 
ATOM     13  O   LIG    1       48.862  -4.813  17.781  0.00  0.00    -0.263 OA
ATOM     14  N   LIG    1       46.672  -5.339  17.397  0.00  0.00    -0.273 N 
ATOM     15  H   LIG    1       46.856  -6.331  17.432  0.00  0.00    +0.156 HD
ENDBRANCH   7  10
ENDBRANCH   1   7
BRANCH   4  16
ATOM     16  O   LIG    1       39.606  -0.445  17.429  0.00  0.00    -0.490 OA
BRANCH  16  17
ATOM     17  C   LIG    1       39.610   0.982  17.305  0.00  0.00    +0.248 C 
BRANCH  17  18
ATOM     18  C   LIG    1       38.425   1.631  16.603  0.00  0.00    +0.147 C 
BRANCH  18  19
ATOM     19  N   LIG    1       38.410   1.485  15.113  0.00  0.00    -0.315 N 
ATOM     20  C   LIG    1       38.988   2.652  14.431  0.00  0.00    +0.131 C 
BRANCH  19  21
ATOM     21  C   LIG    1       38.738   0.287  14.450  0.00  0.00    +0.121 A 
ATOM     22  C   LIG    1       37.799  -0.722  14.219  0.00  0.00    +0.043 A 
ATOM     23  C   LIG    1       38.133  -1.898  13.542  0.00  0.00    +0.005 A 
ATOM     24  C   LIG    1       39.398  -2.026  13.009  0.00  0.00    +0.020 A 
ATOM     25  C   LIG    1       40.267  -0.973  13.198  0.00  0.00    +0.113 A 
ATOM     26  N   LIG    1       39.970   0.146  13.906  0.00  0.00    -0.240 NA
ENDBRANCH  19  21
ENDBRANCH  18  19
ENDBRANCH  17  18
ENDBRANCH  16  17
ENDBRANCH   4  16
TORSDOF 7
ENDMDL
MODEL 3
REMARK VINA RESULT:      -9.2      2.161      3.868
REMARK  Name = 
REMARK                            x       y       z     vdW  Elec       q    Type
REMARK                         _______ _______ _______ _____ _____    ______ ____
ROOT
ATOM      1  C   LIG    1       41.326  -1.515  16.203  0.00  0.00    -0.046 A 
ATOM      2  C   LIG    1       41.516  -0.300  15.553  0.00  0.00    +0.007 A 
ATOM      3  C   LIG    1       40.865   0.846  15.995  0.00  0.00    +0.046 A 
ATOM      4  C   LIG    1       39.959   0.811  17.062  0.00  0.00    +0.121 A 
ATOM      5  C   LIG    1       39.715  -0.416  17.677  0.00  0.00    +0.046 A 
ATOM      6  C   LIG    1       40.403  -1.571  17.258  0.00  0.00    +0.007 A 
ENDROOT
BRANCH   1   7
ATOM      7  C   LIG    1       42.115  -2.719  15.745  0.00  0.00    +0.056 C 
BRANCH   7  10
ATOM      8  S   LIG    1       43.891  -1.197  18.646  0.00  0.00    -0.039 S 
ATOM      9  C   LIG    1       44.118  -2.096  17.263  0.00  0.00    +0.069 C 
ATOM     10  C   LIG    1       43.194  -3.190  16.742  0.00  0.00    +0.112 C 
ATOM     11  S   LIG    1       44.370  -4.235  15.774  0.00  0.00    -0.057 S 
ATOM     12  C   LIG    1       45.590  -2.983  15.698  0.00  0.00    +0.277 C 
ATOM     13  O   LIG    1       46.633  -3.081  15.096  0.00  0.00    -0.263 OA
ATOM     14  N   LIG    1       45.234  -1.940  16.497  0.00  0.00    -0.273 N 
ATOM     15  H   LIG    1       45.940  -1.254  16.718  0.00  0.00    +0.156 HD
ENDBRANCH   7  10
ENDBRANCH   1   7
BRANCH   4  16
ATOM     16  O   LIG    1       39.283   1.917  17.554  0.00  0.00    -0.490 OA
BRANCH  16  17
ATOM     17  C   LIG    1       38.573   2.606  16.518  0.00  0.00    +0.248 C 
BRANCH  17  18
ATOM     18  C   LIG    1       37.242   2.020  16.069  0.00  0.00    +0.147 C 
BRANCH  18  19
ATOM     19  N   LIG    1       37.191   1.580  14.638  0.00  0.00    -0.315 N 
ATOM     20  C   LIG    1       37.330   2.705  13.702  0.00  0.00    +0.131 C 
BRANCH  19  21
ATOM     21  C   LIG    1       37.846   0.429  14.159  0.00  0.00    +0.121 A 
ATOM     22  C   LIG    1       37.591  -0.845  14.674  0.00  0.00    +0.043 A 
ATOM     23  C   LIG    1       38.233  -1.982  14.176  0.00  0.00    +0.005 A 
ATOM     24  C   LIG    1       39.071  -1.855  13.089  0.00  0.00    +0.020 A 
ATOM     25  C   LIG    1       39.233  -0.589  12.568  0.00  0.00    +0.113 A 
ATOM     26  N   LIG    1       38.660   0.529  13.083  0.00  0.00    -0.240 NA
ENDBRANCH  19  21
ENDBRANCH  18  19
ENDBRANCH  17  18
ENDBRANCH  16  17
ENDBRANCH   4  16
TORSDOF 7
ENDMDL
MODEL 4
REMARK VINA RESULT:      -9.2      2.273      4.182
REMARK  Name = 
REMARK                            x       y       z     vdW  Elec       q    Type
REMARK                         _______ _______ _______ _____ _____    ______ ____
ROOT
ATOM      1  C   LIG    1       40.716  -1.325  16.912  0.00  0.00    -0.046 A 
ATOM      2  C   LIG    1       39.447  -1.895  16.904  0.00  0.00    +0.007 A 
ATOM      3  C   LIG    1       38.313  -1.092  16.871  0.00  0.00    +0.046 A 
ATOM      4  C   LIG    1       38.401   0.305  16.901  0.00  0.00    +0.121 A 
ATOM      5  C   LIG    1       39.668   0.882  16.973  0.00  0.00    +0.046 A 
ATOM      6  C   LIG    1       40.820   0.073  16.968  0.00  0.00    +0.007 A 
ENDROOT
BRANCH   1   7
ATOM      7  C   LIG    1       41.924  -2.231  16.865  0.00  0.00    +0.056 C 
BRANCH   7  10
ATOM      8  S   LIG    1       44.926  -2.378  14.663  0.00  0.00    -0.039 S 
ATOM      9  C   LIG    1       44.439  -2.305  16.253  0.00  0.00    +0.069 C 
ATOM     10  C   LIG    1       43.274  -1.488  16.798  0.00  0.00    +0.112 C 
ATOM     11  S   LIG    1       43.801  -1.216  18.547  0.00  0.00    -0.057 S 
ATOM     12  C   LIG    1       44.989  -2.500  18.503  0.00  0.00    +0.277 C 
ATOM     13  O   LIG    1       45.653  -2.850  19.450  0.00  0.00    -0.263 OA
ATOM     14  N   LIG    1       45.122  -2.964  17.230  0.00  0.00    -0.273 N 
ATOM     15  H   LIG    1       45.921  -3.545  17.023  0.00  0.00    +0.156 HD
ENDBRANCH   7  10
ENDBRANCH   1   7
BRANCH   4  16
ATOM     16  O   LIG    1       37.311   1.161  16.863  0.00  0.00    -0.490 OA
BRANCH  16  17
ATOM     17  C   LIG    1       37.502   2.217  15.914  0.00  0.00    +0.248 C 
BRANCH  17  18
ATOM     18  C   LIG    1       37.053   1.965  14.482  0.00  0.00    +0.147 C 
BRANCH  18  19
ATOM     19  N   LIG    1       38.146   1.593  13.529  0.00  0.00    -0.315 N 
ATOM     20  C   LIG    1       39.242   2.574  13.523  0.00  0.00    +0.131 C 
BRANCH  19  21
ATOM     21  C   LIG    1       38.632   0.279  13.383  0.00  0.00    +0.121 A 
ATOM     22  C   LIG    1       39.999  -0.011  13.335  0.00  0.00    +0.043 A 
ATOM     23  C   LIG    1       40.468  -1.322  13.210  0.00  0.00    +0.005 A 
ATOM     24  C   LIG    1       39.562  -2.361  13.226  0.00  0.00    +0.020 A 
ATOM     25  C   LIG    1       38.230  -2.029  13.350  0.00  0.00    +0.113 A 
ATOM     26  N   LIG    1       37.762  -0.757  13.411  0.00  0.00    -0.240 NA
ENDBRANCH  19  21
ENDBRANCH  18  19
ENDBRANCH  17  18
ENDBRANCH  16  17
ENDBRANCH   4  16
TORSDOF 7
ENDMDL
MODEL 5
REMARK VINA RESULT:      -9.2      2.351      3.755
REMARK  Name = 
REMARK                            x       y       z     vdW  Elec       q    Type
REMARK                         _______ _______ _______ _____ _____    ______ ____
ROOT
ATOM      1  C   LIG    1       42.181  -2.638  15.768  0.00  0.00    -0.046 A 
ATOM      2  C   LIG    1       40.974  -3.322  15.674  0.00  0.00    +0.007 A 
ATOM      3  C   LIG    1       40.010  -2.931  14.752  0.00  0.00    +0.046 A 
ATOM      4  C   LIG    1       40.191  -1.812  13.931  0.00  0.00    +0.121 A 
ATOM      5  C   LIG    1       41.373  -1.084  14.063  0.00  0.00    +0.046 A 
ATOM      6  C   LIG    1       42.367  -1.500  14.968  0.00  0.00    +0.007 A 
ENDROOT
BRANCH   1   7
ATOM      7  C   LIG    1       43.236  -3.144  16.724  0.00  0.00    +0.056 C 
BRANCH   7  10
ATOM      8  S   LIG    1       46.939  -3.051  16.318  0.00  0.00    -0.039 S 
ATOM      9  C   LIG    1       45.704  -2.729  17.387  0.00  0.00    +0.069 C 
ATOM     10  C   LIG    1       44.350  -2.125  17.039  0.00  0.00    +0.112 C 
ATOM     11  S   LIG    1       43.881  -1.326  18.637  0.00  0.00    -0.057 S 
ATOM     12  C   LIG    1       45.046  -2.246  19.564  0.00  0.00    +0.277 C 
ATOM     13  O   LIG    1       45.165  -2.186  20.765  0.00  0.00    -0.263 OA
ATOM     14  N   LIG    1       45.855  -2.948  18.724  0.00  0.00    -0.273 N 
ATOM     15  H   LIG    1       46.701  -3.343  19.107  0.00  0.00    +0.156 HD
ENDBRANCH   7  10
ENDBRANCH   1   7
BRANCH   4  16
ATOM     16  O   LIG    1       39.274  -1.375  12.987  0.00  0.00    -0.490 OA
BRANCH  16  17
ATOM     17  C   LIG    1       39.132   0.051  13.011  0.00  0.00    +0.248 C 
BRANCH  17  18
ATOM     18  C   LIG    1       37.944   0.627  13.767  0.00  0.00    +0.147 C 
BRANCH  18  19
ATOM     19  N   LIG    1       38.279   1.288  15.069  0.00  0.00    -0.315 N 
ATOM     20  C   LIG    1       37.231   2.221  15.507  0.00  0.00    +0.131 C 
BRANCH  19  21
ATOM     21  C   LIG    1       38.848   0.604  16.160  0.00  0.00    +0.121 A 
ATOM     22  C   LIG    1       38.327  -0.600  16.641  0.00  0.00    +0.043 A 
ATOM     23  C   LIG    1       38.914  -1.279  17.713  0.00  0.00    +0.005 A 
ATOM     24  C   LIG    1       40.087  -0.794  18.251  0.00  0.00    +0.020 A 
ATOM     25  C   LIG    1       40.603   0.357  17.694  0.00  0.00    +0.113 A 
ATOM     26  N   LIG    1       40.008   1.054  16.693  0.00  0.00    -0.240 NA
ENDBRANCH  19  21
ENDBRANCH  18  19
ENDBRANCH  17  18
ENDBRANCH  16  17
ENDBRANCH   4  16
TORSDOF 7
ENDMDL
MODEL 6
REMARK VINA RESULT:      -9.0      2.182      2.760
REMARK  Name = 
REMARK                            x       y       z     vdW  Elec       q    Type
REMARK                         _______ _______ _______ _____ _____    ______ ____
ROOT
ATOM      1  C   LIG    1       41.988  -2.585  15.745  0.00  0.00    -0.046 A 
ATOM      2  C   LIG    1       40.760  -3.239  15.769  0.00  0.00    +0.007 A 
ATOM      3  C   LIG    1       39.729  -2.835  14.930  0.00  0.00    +0.046 A 
ATOM      4  C   LIG    1       39.864  -1.733  14.077  0.00  0.00    +0.121 A 
ATOM      5  C   LIG    1       41.070  -1.034  14.093  0.00  0.00    +0.046 A 
ATOM      6  C   LIG    1       42.131  -1.464  14.914  0.00  0.00    +0.007 A 
ENDROOT
BRANCH   1   7
ATOM      7  C   LIG    1       43.110  -3.105  16.612  0.00  0.00    +0.056 C 
BRANCH   7  10
ATOM      8  S   LIG    1       46.808  -3.014  16.164  0.00  0.00    -0.039 S 
ATOM      9  C   LIG    1       45.585  -2.671  17.240  0.00  0.00    +0.069 C 
ATOM     10  C   LIG    1       44.225  -2.077  16.893  0.00  0.00    +0.112 C 
ATOM     11  S   LIG    1       43.772  -1.245  18.478  0.00  0.00    -0.057 S 
ATOM     12  C   LIG    1       44.949  -2.143  19.412  0.00  0.00    +0.277 C 
ATOM     13  O   LIG    1       45.081  -2.056  20.610  0.00  0.00    -0.263 OA
ATOM     14  N   LIG    1       45.751  -2.861  18.579  0.00  0.00    -0.273 N 
ATOM     15  H   LIG    1       46.602  -3.246  18.961  0.00  0.00    +0.156 HD
ENDBRANCH   7  10
ENDBRANCH   1   7
BRANCH   4  16
ATOM     16  O   LIG    1       38.878  -1.285  13.211  0.00  0.00    -0.490 OA
BRANCH  16  17
ATOM     17  C   LIG    1       38.627   0.116  13.378  0.00  0.00    +0.248 C 
BRANCH  17  18
ATOM     18  C   LIG    1       37.744   0.538  14.544  0.00  0.00    +0.147 C 
BRANCH  18  19
ATOM     19  N   LIG    1       38.224   1.735  15.304  0.00  0.00    -0.315 N 
ATOM     20  C   LIG    1       39.368   2.389  14.654  0.00  0.00    +0.131 C 
BRANCH  19  21
ATOM     21  C   LIG    1       37.357   2.679  15.889  0.00  0.00    +0.121 A 
ATOM     22  C   LIG    1       36.857   2.531  17.185  0.00  0.00    +0.043 A 
ATOM     23  C   LIG    1       36.013   3.485  17.762  0.00  0.00    +0.005 A 
ATOM     24  C   LIG    1       35.741   4.645  17.067  0.00  0.00    +0.020 A 
ATOM     25  C   LIG    1       36.319   4.779  15.822  0.00  0.00    +0.113 A 
ATOM     26  N   LIG    1       37.090   3.831  15.231  0.00  0.00    -0.240 NA
ENDBRANCH  19  21
ENDBRANCH  18  19
ENDBRANCH  17  18
ENDBRANCH  16  17
ENDBRANCH   4  16
TORSDOF 7
ENDMDL
MODEL 7
REMARK VINA RESULT:      -8.8      3.956     10.052
REMARK  Name = 
REMARK                            x       y       z     vdW  Elec       q    Type
REMARK                         _______ _______ _______ _____ _____    ______ ____
ROOT
ATOM      1  C   LIG    1       38.496   0.295  16.603  0.00  0.00    -0.046 A 
ATOM      2  C   LIG    1       39.577   0.640  17.406  0.00  0.00    +0.007 A 
ATOM      3  C   LIG    1       40.668  -0.213  17.527  0.00  0.00    +0.046 A 
ATOM      4  C   LIG    1       40.695  -1.463  16.897  0.00  0.00    +0.121 A 
ATOM      5  C   LIG    1       39.588  -1.842  16.140  0.00  0.00    +0.046 A 
ATOM      6  C   LIG    1       38.498  -0.965  15.984  0.00  0.00    +0.007 A 
ENDROOT
BRANCH   1   7
ATOM      7  C   LIG    1       37.367   1.284  16.432  0.00  0.00    +0.056 C 
BRANCH   7  10
ATOM      8  S   LIG    1       35.279   3.074  18.947  0.00  0.00    -0.039 S 
ATOM      9  C   LIG    1       36.214   3.295  17.587  0.00  0.00    +0.069 C 
ATOM     10  C   LIG    1       37.517   2.572  17.267  0.00  0.00    +0.112 C 
ATOM     11  S   LIG    1       38.360   3.800  16.175  0.00  0.00    -0.057 S 
ATOM     12  C   LIG    1       36.887   4.688  15.852  0.00  0.00    +0.277 C 
ATOM     13  O   LIG    1       36.807   5.630  15.099  0.00  0.00    -0.263 OA
ATOM     14  N   LIG    1       35.885   4.227  16.649  0.00  0.00    -0.273 N 
ATOM     15  H   LIG    1       35.049   4.787  16.726  0.00  0.00    +0.156 HD
ENDBRANCH   7  10
ENDBRANCH   1   7
BRANCH   4  16
ATOM     16  O   LIG    1       41.754  -2.355  16.970  0.00  0.00    -0.490 OA
BRANCH  16  17
ATOM     17  C   LIG    1       42.895  -1.769  17.608  0.00  0.00    +0.248 C 
BRANCH  17  18
ATOM     18  C   LIG    1       44.080  -1.399  16.728  0.00  0.00    +0.147 C 
BRANCH  18  19
ATOM     19  N   LIG    1       44.848  -2.559  16.174  0.00  0.00    -0.315 N 
ATOM     20  C   LIG    1       45.079  -2.437  14.728  0.00  0.00    +0.131 C 
BRANCH  19  21
ATOM     21  C   LIG    1       45.956  -3.135  16.825  0.00  0.00    +0.121 A 
ATOM     22  C   LIG    1       45.934  -3.475  18.180  0.00  0.00    +0.043 A 
ATOM     23  C   LIG    1       47.034  -4.065  18.809  0.00  0.00    +0.005 A 
ATOM     24  C   LIG    1       48.136  -4.402  18.052  0.00  0.00    +0.020 A 
ATOM     25  C   LIG    1       48.082  -4.115  16.705  0.00  0.00    +0.113 A 
ATOM     26  N   LIG    1       47.042  -3.489  16.098  0.00  0.00    -0.240 NA
ENDBRANCH  19  21
ENDBRANCH  18  19
ENDBRANCH  17  18
ENDBRANCH  16  17
ENDBRANCH   4  16
TORSDOF 7
ENDMDL
MODEL 8
REMARK VINA RESULT:      -8.6      1.724      2.247
REMARK  Name = 
REMARK                            x       y       z     vdW  Elec       q    Type
REMARK                         _______ _______ _______ _____ _____    ______ ____
ROOT
ATOM      1  C   LIG    1       42.710  -2.397  15.591  0.00  0.00    -0.046 A 
ATOM      2  C   LIG    1       42.403  -1.403  14.669  0.00  0.00    +0.007 A 
ATOM      3  C   LIG    1       41.089  -1.195  14.267  0.00  0.00    +0.046 A 
ATOM      4  C   LIG    1       40.044  -2.006  14.725  0.00  0.00    +0.121 A 
ATOM      5  C   LIG    1       40.354  -3.046  15.600  0.00  0.00    +0.046 A 
ATOM      6  C   LIG    1       41.678  -3.234  16.040  0.00  0.00    +0.007 A 
ENDROOT
BRANCH   1   7
ATOM      7  C   LIG    1       44.138  -2.538  16.066  0.00  0.00    +0.056 C 
BRANCH   7  10
ATOM      8  S   LIG    1       44.857  -1.795  19.646  0.00  0.00    -0.039 S 
ATOM      9  C   LIG    1       45.262  -2.802  18.384  0.00  0.00    +0.069 C 
ATOM     10  C   LIG    1       44.302  -3.377  17.350  0.00  0.00    +0.112 C 
ATOM     11  S   LIG    1       45.181  -4.922  16.849  0.00  0.00    -0.057 S 
ATOM     12  C   LIG    1       46.713  -4.392  17.507  0.00  0.00    +0.277 C 
ATOM     13  O   LIG    1       47.747  -5.012  17.416  0.00  0.00    -0.263 OA
ATOM     14  N   LIG    1       46.541  -3.245  18.217  0.00  0.00    -0.273 N 
ATOM     15  H   LIG    1       47.289  -2.951  18.827  0.00  0.00    +0.156 HD
ENDBRANCH   7  10
ENDBRANCH   1   7
BRANCH   4  16
ATOM     16  O   LIG    1       38.713  -1.848  14.368  0.00  0.00    -0.490 OA
BRANCH  16  17
ATOM     17  C   LIG    1       38.065  -0.855  15.174  0.00  0.00    +0.248 C 
BRANCH  17  18
ATOM     18  C   LIG    1       37.441   0.334  14.458  0.00  0.00    +0.147 C 
BRANCH  18  19
ATOM     19  N   LIG    1       37.934   1.675  14.903  0.00  0.00    -0.315 N 
ATOM     20  C   LIG    1       38.640   2.395  13.833  0.00  0.00    +0.131 C 
BRANCH  19  21
ATOM     21  C   LIG    1       37.174   2.554  15.699  0.00  0.00    +0.121 A 
ATOM     22  C   LIG    1       36.929   2.313  17.054  0.00  0.00    +0.043 A 
ATOM     23  C   LIG    1       36.189   3.203  17.838  0.00  0.00    +0.005 A 
ATOM     24  C   LIG    1       35.769   4.393  17.282  0.00  0.00    +0.020 A 
ATOM     25  C   LIG    1       36.099   4.620  15.963  0.00  0.00    +0.113 A 
ATOM     26  N   LIG    1       36.765   3.734  15.179  0.00  0.00    -0.240 NA
ENDBRANCH  19  21
ENDBRANCH  18  19
ENDBRANCH  17  18
ENDBRANCH  16  17
ENDBRANCH   4  16
TORSDOF 7
ENDMDL
MODEL 9
REMARK VINA RESULT:      -8.6      3.890      9.975
REMARK  Name = 
REMARK                            x       y       z     vdW  Elec       q    Type
REMARK                         _______ _______ _______ _____ _____    ______ ____
ROOT
ATOM      1  C   LIG    1       39.777   0.793  16.778  0.00  0.00    -0.046 A 
ATOM      2  C   LIG    1       39.709  -0.357  17.557  0.00  0.00    +0.007 A 
ATOM      3  C   LIG    1       40.512  -1.454  17.267  0.00  0.00    +0.046 A 
ATOM      4  C   LIG    1       41.369  -1.465  16.161  0.00  0.00    +0.121 A 
ATOM      5  C   LIG    1       41.396  -0.339  15.339  0.00  0.00    +0.046 A 
ATOM      6  C   LIG    1       40.613   0.788  15.651  0.00  0.00    +0.007 A 
ENDROOT
BRANCH   1   7
ATOM      7  C   LIG    1       38.949   1.993  17.174  0.00  0.00    +0.056 C 
BRANCH   7  10
ATOM      8  S   LIG    1       37.853   2.485  13.646  0.00  0.00    -0.039 S 
ATOM      9  C   LIG    1       37.579   2.983  15.211  0.00  0.00    +0.069 C 
ATOM     10  C   LIG    1       37.591   2.096  16.450  0.00  0.00    +0.112 C 
ATOM     11  S   LIG    1       36.472   3.031  17.583  0.00  0.00    -0.057 S 
ATOM     12  C   LIG    1       36.596   4.512  16.659  0.00  0.00    +0.277 C 
ATOM     13  O   LIG    1       36.084   5.560  16.976  0.00  0.00    -0.263 OA
ATOM     14  N   LIG    1       37.257   4.276  15.493  0.00  0.00    -0.273 N 
ATOM     15  H   LIG    1       37.208   4.982  14.773  0.00  0.00    +0.156 HD
ENDBRANCH   7  10
ENDBRANCH   1   7
BRANCH   4  16
ATOM     16  O   LIG    1       42.200  -2.522  15.822  0.00  0.00    -0.490 OA
BRANCH  16  17
ATOM     17  C   LIG    1       43.263  -2.682  16.769  0.00  0.00    +0.248 C 
BRANCH  17  18
ATOM     18  C   LIG    1       44.233  -1.522  16.941  0.00  0.00    +0.147 C 
BRANCH  18  19
ATOM     19  N   LIG    1       45.255  -1.701  18.020  0.00  0.00    -0.315 N 
ATOM     20  C   LIG    1       44.654  -1.725  19.361  0.00  0.00    +0.131 C 
BRANCH  19  21
ATOM     21  C   LIG    1       46.332  -2.603  17.924  0.00  0.00    +0.121 A 
ATOM     22  C   LIG    1       46.568  -3.590  18.885  0.00  0.00    +0.043 A 
ATOM     23  C   LIG    1       47.630  -4.492  18.767  0.00  0.00    +0.005 A 
ATOM     24  C   LIG    1       48.409  -4.464  17.630  0.00  0.00    +0.020 A 
ATOM     25  C   LIG    1       48.091  -3.521  16.676  0.00  0.00    +0.113 A 
ATOM     26  N   LIG    1       47.100  -2.603  16.809  0.00  0.00    -0.240 NA
ENDBRANCH  19  21
ENDBRANCH  18  19
ENDBRANCH  17  18
ENDBRANCH  16  17
ENDBRANCH   4  16
TORSDOF 7
ENDMDL
