MODEL 1
REMARK VINA RESULT:      -7.8      0.000      0.000
REMARK  Name = 
REMARK                            x       y       z     vdW  Elec       q    Type
REMARK                         _______ _______ _______ _____ _____    ______ ____
ROOT
ATOM      1  C   LIG    1       18.869  27.706  11.814  0.00  0.00    -0.046 A 
ATOM      2  C   LIG    1       20.157  27.222  11.608  0.00  0.00    +0.007 A 
ATOM      3  C   LIG    1       20.731  27.258  10.343  0.00  0.00    +0.046 A 
ATOM      4  C   LIG    1       20.024  27.724   9.228  0.00  0.00    +0.121 A 
ATOM      5  C   LIG    1       18.710  28.152   9.415  0.00  0.00    +0.046 A 
ATOM      6  C   LIG    1       18.139  28.153  10.702  0.00  0.00    +0.007 A 
ENDROOT
BRANCH   1   7
ATOM      7  C   LIG    1       18.311  27.726  13.217  0.00  0.00    +0.056 C 
BRANCH   7  10
ATOM      8  S   LIG    1       17.365  31.245  12.439  0.00  0.00    -0.039 S 
ATOM      9  C   LIG    1       18.600  30.292  13.021  0.00  0.00    +0.069 C 
ATOM     10  C   LIG    1       18.445  29.083  13.936  0.00  0.00    +0.112 C 
ATOM     11  S   LIG    1       20.083  29.056  14.790  0.00  0.00    -0.057 S 
ATOM     12  C   LIG    1       20.842  30.092  13.600  0.00  0.00    +0.277 C 
ATOM     13  O   LIG    1       22.012  30.396  13.605  0.00  0.00    -0.263 OA
ATOM     14  N   LIG    1       19.903  30.580  12.745  0.00  0.00    -0.273 N 
ATOM     15  H   LIG    1       20.163  31.354  12.152  0.00  0.00    +0.156 HD
ENDBRANCH   7  10
ENDBRANCH   1   7
BRANCH   4  16
ATOM     16  O   LIG    1       20.540  27.793   7.943  0.00  0.00    -0.490 OA
BRANCH  16  17
ATOM     17  C   LIG    1       21.973  27.805   7.950  0.00  0.00    +0.248 C 
BRANCH  17  18
ATOM     18  C   LIG    1       22.677  28.462   6.772  0.00  0.00    +0.147 C 
BRANCH  18  19
ATOM     19  N   LIG    1       23.967  27.821   6.363  0.00  0.00    -0.315 N 
ATOM     20  C   LIG    1       24.276  28.044   4.943  0.00  0.00    +0.131 C 
BRANCH  19  21
ATOM     21  C   LIG    1       25.131  27.852   7.154  0.00  0.00    +0.121 A 
ATOM     22  C   LIG    1       25.512  26.779   7.965  0.00  0.00    +0.043 A 
ATOM     23  C   LIG    1       26.682  26.815   8.730  0.00  0.00    +0.005 A 
ATOM     24  C   LIG    1       27.526  27.898   8.612  0.00  0.00    +0.020 A 
ATOM     25  C   LIG    1       27.145  28.898   7.742  0.00  0.00    +0.113 A 
ATOM     26  N   LIG    1       25.982  28.898   7.041  0.00  0.00    -0.240 NA
ENDBRANCH  19  21
ENDBRANCH  18  19
ENDBRANCH  17  18
ENDBRANCH  16  17
ENDBRANCH   4  16
TORSDOF 7
ENDMDL
MODEL 2
REMARK VINA RESULT:      -7.7      3.910      8.604
REMARK  Name = 
REMARK                            x       y       z     vdW  Elec       q    Type
REMARK                         _______ _______ _______ _____ _____    ______ ____
ROOT
ATOM      1  C   LIG    1       22.172  29.161   7.599  0.00  0.00    -0.046 A 
ATOM      2  C   LIG    1       21.316  29.890   8.418  0.00  0.00    +0.007 A 
ATOM      3  C   LIG    1       20.624  29.265   9.450  0.00  0.00    +0.046 A 
ATOM      4  C   LIG    1       20.717  27.885   9.666  0.00  0.00    +0.121 A 
ATOM      5  C   LIG    1       21.524  27.138   8.809  0.00  0.00    +0.046 A 
ATOM      6  C   LIG    1       22.257  27.773   7.788  0.00  0.00    +0.007 A 
ENDROOT
BRANCH   1   7
ATOM      7  C   LIG    1       22.969  29.890   6.543  0.00  0.00    +0.056 C 
BRANCH   7  10
ATOM      8  S   LIG    1       26.512  30.812   7.234  0.00  0.00    -0.039 S 
ATOM      9  C   LIG    1       25.484  30.259   6.048  0.00  0.00    +0.069 C 
ATOM     10  C   LIG    1       24.345  29.264   6.239  0.00  0.00    +0.112 C 
ATOM     11  S   LIG    1       24.215  28.524   4.552  0.00  0.00    -0.057 S 
ATOM     12  C   LIG    1       25.112  29.822   3.795  0.00  0.00    +0.277 C 
ATOM     13  O   LIG    1       25.308  29.915   2.606  0.00  0.00    -0.263 OA
ATOM     14  N   LIG    1       25.637  30.640   4.748  0.00  0.00    -0.273 N 
ATOM     15  H   LIG    1       26.352  31.294   4.466  0.00  0.00    +0.156 HD
ENDBRANCH   7  10
ENDBRANCH   1   7
BRANCH   4  16
ATOM     16  O   LIG    1       20.061  27.203  10.679  0.00  0.00    -0.490 OA
BRANCH  16  17
ATOM     17  C   LIG    1       20.167  27.890  11.932  0.00  0.00    +0.248 C 
BRANCH  17  18
ATOM     18  C   LIG    1       18.873  28.278  12.633  0.00  0.00    +0.147 C 
BRANCH  18  19
ATOM     19  N   LIG    1       18.577  29.746  12.657  0.00  0.00    -0.315 N 
ATOM     20  C   LIG    1       19.784  30.556  12.871  0.00  0.00    +0.131 C 
BRANCH  19  21
ATOM     21  C   LIG    1       17.691  30.371  11.758  0.00  0.00    +0.121 A 
ATOM     22  C   LIG    1       17.112  31.615  12.024  0.00  0.00    +0.043 A 
ATOM     23  C   LIG    1       16.250  32.235  11.114  0.00  0.00    +0.005 A 
ATOM     24  C   LIG    1       16.037  31.645   9.887  0.00  0.00    +0.020 A 
ATOM     25  C   LIG    1       16.689  30.455   9.641  0.00  0.00    +0.113 A 
ATOM     26  N   LIG    1       17.480  29.818  10.541  0.00  0.00    -0.240 NA
ENDBRANCH  19  21
ENDBRANCH  18  19
ENDBRANCH  17  18
ENDBRANCH  16  17
ENDBRANCH   4  16
TORSDOF 7
ENDMDL
MODEL 3
REMARK VINA RESULT:      -7.6      4.104      8.458
REMARK  Name = 
REMARK                            x       y       z     vdW  Elec       q    Type
REMARK                         _______ _______ _______ _____ _____    ______ ____
ROOT
ATOM      1  C   LIG    1       22.464  29.551   7.020  0.00  0.00    -0.046 A 
ATOM      2  C   LIG    1       21.603  30.136   7.943  0.00  0.00    +0.007 A 
ATOM      3  C   LIG    1       21.025  29.374   8.951  0.00  0.00    +0.046 A 
ATOM      4  C   LIG    1       21.238  27.994   9.043  0.00  0.00    +0.121 A 
ATOM      5  C   LIG    1       22.049  27.389   8.083  0.00  0.00    +0.046 A 
ATOM      6  C   LIG    1       22.668  28.164   7.084  0.00  0.00    +0.007 A 
ENDROOT
BRANCH   1   7
ATOM      7  C   LIG    1       23.137  30.427   5.990  0.00  0.00    +0.056 C 
BRANCH   7  10
ATOM      8  S   LIG    1       26.418  29.152   7.213  0.00  0.00    -0.039 S 
ATOM      9  C   LIG    1       25.704  30.089   6.037  0.00  0.00    +0.069 C 
ATOM     10  C   LIG    1       24.383  29.797   5.336  0.00  0.00    +0.112 C 
ATOM     11  S   LIG    1       24.619  30.672   3.727  0.00  0.00    -0.057 S 
ATOM     12  C   LIG    1       25.947  31.642   4.325  0.00  0.00    +0.277 C 
ATOM     13  O   LIG    1       26.507  32.502   3.687  0.00  0.00    -0.263 OA
ATOM     14  N   LIG    1       26.316  31.210   5.562  0.00  0.00    -0.273 N 
ATOM     15  H   LIG    1       27.200  31.530   5.928  0.00  0.00    +0.156 HD
ENDBRANCH   7  10
ENDBRANCH   1   7
BRANCH   4  16
ATOM     16  O   LIG    1       20.698  27.179  10.026  0.00  0.00    -0.490 OA
BRANCH  16  17
ATOM     17  C   LIG    1       20.581  27.869  11.277  0.00  0.00    +0.248 C 
BRANCH  17  18
ATOM     18  C   LIG    1       19.208  27.910  11.932  0.00  0.00    +0.147 C 
BRANCH  18  19
ATOM     19  N   LIG    1       18.388  29.123  11.615  0.00  0.00    -0.315 N 
ATOM     20  C   LIG    1       19.069  30.371  11.987  0.00  0.00    +0.131 C 
BRANCH  19  21
ATOM     21  C   LIG    1       17.657  29.272  10.420  0.00  0.00    +0.121 A 
ATOM     22  C   LIG    1       17.288  30.525   9.922  0.00  0.00    +0.043 A 
ATOM     23  C   LIG    1       16.580  30.661   8.724  0.00  0.00    +0.005 A 
ATOM     24  C   LIG    1       16.319  29.536   7.970  0.00  0.00    +0.020 A 
ATOM     25  C   LIG    1       16.769  28.331   8.466  0.00  0.00    +0.113 A 
ATOM     26  N   LIG    1       17.404  28.184   9.657  0.00  0.00    -0.240 NA
ENDBRANCH  19  21
ENDBRANCH  18  19
ENDBRANCH  17  18
ENDBRANCH  16  17
ENDBRANCH   4  16
TORSDOF 7
ENDMDL
MODEL 4
REMARK VINA RESULT:      -7.5      1.383      2.233
REMARK  Name = 
REMARK                            x       y       z     vdW  Elec       q    Type
REMARK                         _______ _______ _______ _____ _____    ______ ____
ROOT
ATOM      1  C   LIG    1       18.854  27.702  11.768  0.00  0.00    -0.046 A 
ATOM      2  C   LIG    1       20.164  27.281  11.567  0.00  0.00    +0.007 A 
ATOM      3  C   LIG    1       20.743  27.352  10.305  0.00  0.00    +0.046 A 
ATOM      4  C   LIG    1       20.019  27.791   9.189  0.00  0.00    +0.121 A 
ATOM      5  C   LIG    1       18.686  28.154   9.372  0.00  0.00    +0.046 A 
ATOM      6  C   LIG    1       18.109  28.121  10.655  0.00  0.00    +0.007 A 
ENDROOT
BRANCH   1   7
ATOM      7  C   LIG    1       18.288  27.686  13.169  0.00  0.00    +0.056 C 
BRANCH   7  10
ATOM      8  S   LIG    1       17.310  31.188  12.352  0.00  0.00    -0.039 S 
ATOM      9  C   LIG    1       18.533  30.259  12.995  0.00  0.00    +0.069 C 
ATOM     10  C   LIG    1       18.357  29.044  13.898  0.00  0.00    +0.112 C 
ATOM     11  S   LIG    1       19.948  29.048  14.834  0.00  0.00    -0.057 S 
ATOM     12  C   LIG    1       20.745  30.103  13.688  0.00  0.00    +0.277 C 
ATOM     13  O   LIG    1       21.907  30.432  13.755  0.00  0.00    -0.263 OA
ATOM     14  N   LIG    1       19.842  30.575  12.787  0.00  0.00    -0.273 N 
ATOM     15  H   LIG    1       20.116  31.357  12.211  0.00  0.00    +0.156 HD
ENDBRANCH   7  10
ENDBRANCH   1   7
BRANCH   4  16
ATOM     16  O   LIG    1       20.538  27.892   7.907  0.00  0.00    -0.490 OA
BRANCH  16  17
ATOM     17  C   LIG    1       21.891  28.365   7.922  0.00  0.00    +0.248 C 
BRANCH  17  18
ATOM     18  C   LIG    1       22.822  27.867   6.825  0.00  0.00    +0.147 C 
BRANCH  18  19
ATOM     19  N   LIG    1       24.211  28.422   6.869  0.00  0.00    -0.315 N 
ATOM     20  C   LIG    1       25.231  27.369   6.977  0.00  0.00    +0.131 C 
BRANCH  19  21
ATOM     21  C   LIG    1       24.649  29.480   6.049  0.00  0.00    +0.121 A 
ATOM     22  C   LIG    1       23.778  30.191   5.218  0.00  0.00    +0.043 A 
ATOM     23  C   LIG    1       24.222  31.251   4.423  0.00  0.00    +0.005 A 
ATOM     24  C   LIG    1       25.533  31.664   4.529  0.00  0.00    +0.020 A 
ATOM     25  C   LIG    1       26.336  30.979   5.416  0.00  0.00    +0.113 A 
ATOM     26  N   LIG    1       25.928  29.911   6.148  0.00  0.00    -0.240 NA
ENDBRANCH  19  21
ENDBRANCH  18  19
ENDBRANCH  17  18
ENDBRANCH  16  17
ENDBRANCH   4  16
TORSDOF 7
ENDMDL
MODEL 5
REMARK VINA RESULT:      -7.5      3.653      8.139
REMARK  Name = 
REMARK                            x       y       z     vdW  Elec       q    Type
REMARK                         _______ _______ _______ _____ _____    ______ ____
ROOT
ATOM      1  C   LIG    1       22.671  28.378   7.184  0.00  0.00    -0.046 A 
ATOM      2  C   LIG    1       22.592  29.766   7.128  0.00  0.00    +0.007 A 
ATOM      3  C   LIG    1       21.669  30.452   7.909  0.00  0.00    +0.046 A 
ATOM      4  C   LIG    1       20.756  29.778   8.729  0.00  0.00    +0.121 A 
ATOM      5  C   LIG    1       20.787  28.384   8.741  0.00  0.00    +0.046 A 
ATOM      6  C   LIG    1       21.746  27.688   7.982  0.00  0.00    +0.007 A 
ENDROOT
BRANCH   1   7
ATOM      7  C   LIG    1       23.742  27.675   6.383  0.00  0.00    +0.056 C 
BRANCH   7  10
ATOM      8  S   LIG    1       27.095  28.509   4.987  0.00  0.00    -0.039 S 
ATOM      9  C   LIG    1       26.294  27.459   6.001  0.00  0.00    +0.069 C 
ATOM     10  C   LIG    1       25.166  27.820   6.958  0.00  0.00    +0.112 C 
ATOM     11  S   LIG    1       25.340  26.507   8.245  0.00  0.00    -0.057 S 
ATOM     12  C   LIG    1       26.317  25.480   7.219  0.00  0.00    +0.277 C 
ATOM     13  O   LIG    1       26.708  24.379   7.528  0.00  0.00    -0.263 OA
ATOM     14  N   LIG    1       26.653  26.147   6.082  0.00  0.00    -0.273 N 
ATOM     15  H   LIG    1       27.388  25.760   5.509  0.00  0.00    +0.156 HD
ENDBRANCH   7  10
ENDBRANCH   1   7
BRANCH   4  16
ATOM     16  O   LIG    1       19.816  30.402   9.536  0.00  0.00    -0.490 OA
BRANCH  16  17
ATOM     17  C   LIG    1       18.659  29.580   9.731  0.00  0.00    +0.248 C 
BRANCH  17  18
ATOM     18  C   LIG    1       18.129  29.438  11.151  0.00  0.00    +0.147 C 
BRANCH  18  19
ATOM     19  N   LIG    1       18.677  30.424  12.136  0.00  0.00    -0.315 N 
ATOM     20  C   LIG    1       17.660  31.381  12.593  0.00  0.00    +0.131 C 
BRANCH  19  21
ATOM     21  C   LIG    1       19.555  30.069  13.179  0.00  0.00    +0.121 A 
ATOM     22  C   LIG    1       19.107  29.487  14.367  0.00  0.00    +0.043 A 
ATOM     23  C   LIG    1       19.991  29.121  15.387  0.00  0.00    +0.005 A 
ATOM     24  C   LIG    1       21.347  29.257  15.176  0.00  0.00    +0.020 A 
ATOM     25  C   LIG    1       21.744  29.767  13.959  0.00  0.00    +0.113 A 
ATOM     26  N   LIG    1       20.890  30.180  12.988  0.00  0.00    -0.240 NA
ENDBRANCH  19  21
ENDBRANCH  18  19
ENDBRANCH  17  18
ENDBRANCH  16  17
ENDBRANCH   4  16
TORSDOF 7
ENDMDL
MODEL 6
REMARK VINA RESULT:      -7.4      3.893      8.253
REMARK  Name = 
REMARK                            x       y       z     vdW  Elec       q    Type
REMARK                         _______ _______ _______ _____ _____    ______ ____
ROOT
ATOM      1  C   LIG    1       22.523  29.521   7.059  0.00  0.00    -0.046 A 
ATOM      2  C   LIG    1       22.540  28.139   7.214  0.00  0.00    +0.007 A 
ATOM      3  C   LIG    1       21.719  27.523   8.151  0.00  0.00    +0.046 A 
ATOM      4  C   LIG    1       20.894  28.265   9.004  0.00  0.00    +0.121 A 
ATOM      5  C   LIG    1       20.919  29.655   8.899  0.00  0.00    +0.046 A 
ATOM      6  C   LIG    1       21.720  30.280   7.925  0.00  0.00    +0.007 A 
ENDROOT
BRANCH   1   7
ATOM      7  C   LIG    1       23.369  30.146   5.975  0.00  0.00    +0.056 C 
BRANCH   7  10
ATOM      8  S   LIG    1       26.716  30.947   7.402  0.00  0.00    -0.039 S 
ATOM      9  C   LIG    1       25.926  30.552   5.991  0.00  0.00    +0.069 C 
ATOM     10  C   LIG    1       24.786  29.551   5.851  0.00  0.00    +0.112 C 
ATOM     11  S   LIG    1       24.973  29.025   4.090  0.00  0.00    -0.057 S 
ATOM     12  C   LIG    1       25.973  30.399   3.672  0.00  0.00    +0.277 C 
ATOM     13  O   LIG    1       26.379  30.635   2.558  0.00  0.00    -0.263 OA
ATOM     14  N   LIG    1       26.306  31.089   4.797  0.00  0.00    -0.273 N 
ATOM     15  H   LIG    1       27.050  31.767   4.731  0.00  0.00    +0.156 HD
ENDBRANCH   7  10
ENDBRANCH   1   7
BRANCH   4  16
ATOM     16  O   LIG    1       20.047  27.712   9.953  0.00  0.00    -0.490 OA
BRANCH  16  17
ATOM     17  C   LIG    1       18.744  28.307   9.908  0.00  0.00    +0.248 C 
BRANCH  17  18
ATOM     18  C   LIG    1       18.149  28.800  11.219  0.00  0.00    +0.147 C 
BRANCH  18  19
ATOM     19  N   LIG    1       18.931  29.875  11.908  0.00  0.00    -0.315 N 
ATOM     20  C   LIG    1       18.147  31.105  12.093  0.00  0.00    +0.131 C 
BRANCH  19  21
ATOM     21  C   LIG    1       19.776  29.634  13.008  0.00  0.00    +0.121 A 
ATOM     22  C   LIG    1       21.151  29.884  12.963  0.00  0.00    +0.043 A 
ATOM     23  C   LIG    1       21.976  29.659  14.069  0.00  0.00    +0.005 A 
ATOM     24  C   LIG    1       21.405  29.266  15.261  0.00  0.00    +0.020 A 
ATOM     25  C   LIG    1       20.035  29.105  15.276  0.00  0.00    +0.113 A 
ATOM     26  N   LIG    1       19.235  29.264  14.192  0.00  0.00    -0.240 NA
ENDBRANCH  19  21
ENDBRANCH  18  19
ENDBRANCH  17  18
ENDBRANCH  16  17
ENDBRANCH   4  16
TORSDOF 7
ENDMDL
MODEL 7
REMARK VINA RESULT:      -7.2      2.299      3.061
REMARK  Name = 
REMARK                            x       y       z     vdW  Elec       q    Type
REMARK                         _______ _______ _______ _____ _____    ______ ____
ROOT
ATOM      1  C   LIG    1       20.607  29.207  10.076  0.00  0.00    -0.046 A 
ATOM      2  C   LIG    1       21.005  30.008   9.011  0.00  0.00    +0.007 A 
ATOM      3  C   LIG    1       21.598  29.445   7.886  0.00  0.00    +0.046 A 
ATOM      4  C   LIG    1       21.866  28.074   7.807  0.00  0.00    +0.121 A 
ATOM      5  C   LIG    1       21.528  27.273   8.897  0.00  0.00    +0.046 A 
ATOM      6  C   LIG    1       20.892  27.834  10.021  0.00  0.00    +0.007 A 
ENDROOT
BRANCH   1   7
ATOM      7  C   LIG    1       19.892  29.845  11.243  0.00  0.00    +0.056 C 
BRANCH   7  10
ATOM      8  S   LIG    1       17.303  28.444   8.959  0.00  0.00    -0.039 S 
ATOM      9  C   LIG    1       17.572  29.608  10.119  0.00  0.00    +0.069 C 
ATOM     10  C   LIG    1       18.410  29.441  11.380  0.00  0.00    +0.112 C 
ATOM     11  S   LIG    1       17.637  30.687  12.503  0.00  0.00    -0.057 S 
ATOM     12  C   LIG    1       16.845  31.536  11.194  0.00  0.00    +0.277 C 
ATOM     13  O   LIG    1       16.195  32.546  11.329  0.00  0.00    -0.263 OA
ATOM     14  N   LIG    1       16.982  30.834  10.036  0.00  0.00    -0.273 N 
ATOM     15  H   LIG    1       16.395  31.091   9.257  0.00  0.00    +0.156 HD
ENDBRANCH   7  10
ENDBRANCH   1   7
BRANCH   4  16
ATOM     16  O   LIG    1       22.447  27.450   6.713  0.00  0.00    -0.490 OA
BRANCH  16  17
ATOM     17  C   LIG    1       22.787  28.391   5.688  0.00  0.00    +0.248 C 
BRANCH  17  18
ATOM     18  C   LIG    1       24.177  28.292   5.075  0.00  0.00    +0.147 C 
BRANCH  18  19
ATOM     19  N   LIG    1       25.255  29.012   5.823  0.00  0.00    -0.315 N 
ATOM     20  C   LIG    1       24.916  30.420   6.075  0.00  0.00    +0.131 C 
BRANCH  19  21
ATOM     21  C   LIG    1       25.952  28.450   6.909  0.00  0.00    +0.121 A 
ATOM     22  C   LIG    1       25.729  27.140   7.343  0.00  0.00    +0.043 A 
ATOM     23  C   LIG    1       26.442  26.587   8.410  0.00  0.00    +0.005 A 
ATOM     24  C   LIG    1       27.454  27.321   8.991  0.00  0.00    +0.020 A 
ATOM     25  C   LIG    1       27.687  28.580   8.480  0.00  0.00    +0.113 A 
ATOM     26  N   LIG    1       26.960  29.147   7.484  0.00  0.00    -0.240 NA
ENDBRANCH  19  21
ENDBRANCH  18  19
ENDBRANCH  17  18
ENDBRANCH  16  17
ENDBRANCH   4  16
TORSDOF 7
ENDMDL
MODEL 8
REMARK VINA RESULT:      -7.1      2.692      4.025
REMARK  Name = 
REMARK                            x       y       z     vdW  Elec       q    Type
REMARK                         _______ _______ _______ _____ _____    ______ ____
ROOT
ATOM      1  C   LIG    1       21.058  29.570   8.414  0.00  0.00    -0.046 A 
ATOM      2  C   LIG    1       21.968  30.241   7.604  0.00  0.00    +0.007 A 
ATOM      3  C   LIG    1       22.985  29.546   6.960  0.00  0.00    +0.046 A 
ATOM      4  C   LIG    1       23.166  28.170   7.145  0.00  0.00    +0.121 A 
ATOM      5  C   LIG    1       22.297  27.503   8.006  0.00  0.00    +0.046 A 
ATOM      6  C   LIG    1       21.241  28.196   8.629  0.00  0.00    +0.007 A 
ENDROOT
BRANCH   1   7
ATOM      7  C   LIG    1       19.918  30.346   9.030  0.00  0.00    +0.056 C 
BRANCH   7  10
ATOM      8  S   LIG    1       16.545  29.018   8.166  0.00  0.00    -0.039 S 
ATOM      9  C   LIG    1       17.417  29.765   9.372  0.00  0.00    +0.069 C 
ATOM     10  C   LIG    1       18.866  29.473   9.744  0.00  0.00    +0.112 C 
ATOM     11  S   LIG    1       18.898  29.975  11.521  0.00  0.00    -0.057 S 
ATOM     12  C   LIG    1       17.420  30.906  11.397  0.00  0.00    +0.277 C 
ATOM     13  O   LIG    1       16.945  31.557  12.297  0.00  0.00    -0.263 OA
ATOM     14  N   LIG    1       16.843  30.698  10.182  0.00  0.00    -0.273 N 
ATOM     15  H   LIG    1       15.886  30.994  10.058  0.00  0.00    +0.156 HD
ENDBRANCH   7  10
ENDBRANCH   1   7
BRANCH   4  16
ATOM     16  O   LIG    1       24.155  27.419   6.528  0.00  0.00    -0.490 OA
BRANCH  16  17
ATOM     17  C   LIG    1       24.731  28.116   5.416  0.00  0.00    +0.248 C 
BRANCH  17  18
ATOM     18  C   LIG    1       26.163  28.610   5.561  0.00  0.00    +0.147 C 
BRANCH  18  19
ATOM     19  N   LIG    1       26.778  28.392   6.908  0.00  0.00    -0.315 N 
ATOM     20  C   LIG    1       27.789  27.326   6.895  0.00  0.00    +0.131 C 
BRANCH  19  21
ATOM     21  C   LIG    1       27.151  29.443   7.768  0.00  0.00    +0.121 A 
ATOM     22  C   LIG    1       28.207  29.327   8.676  0.00  0.00    +0.043 A 
ATOM     23  C   LIG    1       28.579  30.385   9.510  0.00  0.00    +0.005 A 
ATOM     24  C   LIG    1       27.947  31.602   9.370  0.00  0.00    +0.020 A 
ATOM     25  C   LIG    1       26.962  31.690   8.409  0.00  0.00    +0.113 A 
ATOM     26  N   LIG    1       26.554  30.651   7.637  0.00  0.00    -0.240 NA
ENDBRANCH  19  21
ENDBRANCH  18  19
ENDBRANCH  17  18
ENDBRANCH  16  17
ENDBRANCH   4  16
TORSDOF 7
ENDMDL
MODEL 9
REMARK VINA RESULT:      -6.9      2.399      3.769
REMARK  Name = 
REMARK                            x       y       z     vdW  Elec       q    Type
REMARK                         _______ _______ _______ _____ _____    ______ ____
ROOT
ATOM      1  C   LIG    1       21.514  28.263   8.985  0.00  0.00    -0.046 A 
ATOM      2  C   LIG    1       21.418  29.633   8.763  0.00  0.00    +0.007 A 
ATOM      3  C   LIG    1       21.840  30.184   7.559  0.00  0.00    +0.046 A 
ATOM      4  C   LIG    1       22.423  29.400   6.556  0.00  0.00    +0.121 A 
ATOM      5  C   LIG    1       22.580  28.036   6.797  0.00  0.00    +0.046 A 
ATOM      6  C   LIG    1       22.118  27.468   7.999  0.00  0.00    +0.007 A 
ENDROOT
BRANCH   1   7
ATOM      7  C   LIG    1       20.969  27.692  10.273  0.00  0.00    +0.056 C 
BRANCH   7  10
ATOM      8  S   LIG    1       21.404  29.924  13.224  0.00  0.00    -0.039 S 
ATOM      9  C   LIG    1       20.391  28.791  12.545  0.00  0.00    +0.069 C 
ATOM     10  C   LIG    1       20.061  28.656  11.063  0.00  0.00    +0.112 C 
ATOM     11  S   LIG    1       18.396  27.861  11.128  0.00  0.00    -0.057 S 
ATOM     12  C   LIG    1       18.584  27.350  12.791  0.00  0.00    +0.277 C 
ATOM     13  O   LIG    1       17.776  26.686  13.398  0.00  0.00    -0.263 OA
ATOM     14  N   LIG    1       19.712  27.898  13.319  0.00  0.00    -0.273 N 
ATOM     15  H   LIG    1       19.826  27.868  14.321  0.00  0.00    +0.156 HD
ENDBRANCH   7  10
ENDBRANCH   1   7
BRANCH   4  16
ATOM     16  O   LIG    1       22.857  29.886   5.332  0.00  0.00    -0.490 OA
BRANCH  16  17
ATOM     17  C   LIG    1       24.252  29.633   5.129  0.00  0.00    +0.248 C 
BRANCH  17  18
ATOM     18  C   LIG    1       25.238  30.366   6.028  0.00  0.00    +0.147 C 
BRANCH  18  19
ATOM     19  N   LIG    1       26.136  29.484   6.839  0.00  0.00    -0.315 N 
ATOM     20  C   LIG    1       26.767  28.432   6.029  0.00  0.00    +0.131 C 
BRANCH  19  21
ATOM     21  C   LIG    1       27.016  29.972   7.824  0.00  0.00    +0.121 A 
ATOM     22  C   LIG    1       28.016  29.178   8.393  0.00  0.00    +0.043 A 
ATOM     23  C   LIG    1       28.896  29.681   9.355  0.00  0.00    +0.005 A 
ATOM     24  C   LIG    1       28.834  31.018   9.685  0.00  0.00    +0.020 A 
ATOM     25  C   LIG    1       27.881  31.778   9.042  0.00  0.00    +0.113 A 
ATOM     26  N   LIG    1       26.983  31.285   8.151  0.00  0.00    -0.240 NA
ENDBRANCH  19  21
ENDBRANCH  18  19
ENDBRANCH  17  18
ENDBRANCH  16  17
ENDBRANCH   4  16
TORSDOF 7
ENDMDL
