MODEL 1
REMARK VINA RESULT:      -7.6      0.000      0.000
REMARK  Name = 
REMARK                            x       y       z     vdW  Elec       q    Type
REMARK                         _______ _______ _______ _____ _____    ______ ____
ROOT
ATOM      1  C   LIG    1       32.585  -2.938  22.747  0.00  0.00    -0.046 A 
ATOM      2  C   LIG    1       33.305  -3.601  23.735  0.00  0.00    +0.007 A 
ATOM      3  C   LIG    1       33.241  -3.178  25.058  0.00  0.00    +0.046 A 
ATOM      4  C   LIG    1       32.504  -2.049  25.433  0.00  0.00    +0.121 A 
ATOM      5  C   LIG    1       31.831  -1.342  24.438  0.00  0.00    +0.046 A 
ATOM      6  C   LIG    1       31.861  -1.790  23.104  0.00  0.00    +0.007 A 
ENDROOT
BRANCH   1   7
ATOM      7  C   LIG    1       32.614  -3.477  21.336  0.00  0.00    +0.056 C 
BRANCH   7  10
ATOM      8  S   LIG    1       31.611  -2.386  17.917  0.00  0.00    -0.039 S 
ATOM      9  C   LIG    1       32.912  -2.869  18.836  0.00  0.00    +0.069 C 
ATOM     10  C   LIG    1       33.173  -2.492  20.290  0.00  0.00    +0.112 C 
ATOM     11  S   LIG    1       35.013  -2.631  20.381  0.00  0.00    -0.057 S 
ATOM     12  C   LIG    1       35.122  -3.585  18.918  0.00  0.00    +0.277 C 
ATOM     13  O   LIG    1       36.148  -4.050  18.481  0.00  0.00    -0.263 OA
ATOM     14  N   LIG    1       33.909  -3.629  18.303  0.00  0.00    -0.273 N 
ATOM     15  H   LIG    1       33.877  -3.955  17.348  0.00  0.00    +0.156 HD
ENDBRANCH   7  10
ENDBRANCH   1   7
BRANCH   4  16
ATOM     16  O   LIG    1       32.394  -1.580  26.734  0.00  0.00    -0.490 OA
BRANCH  16  17
ATOM     17  C   LIG    1       31.719  -0.317  26.785  0.00  0.00    +0.248 C 
BRANCH  17  18
ATOM     18  C   LIG    1       30.714  -0.102  27.907  0.00  0.00    +0.147 C 
BRANCH  18  19
ATOM     19  N   LIG    1       29.276  -0.179  27.496  0.00  0.00    -0.315 N 
ATOM     20  C   LIG    1       29.033   0.449  26.189  0.00  0.00    +0.131 C 
BRANCH  19  21
ATOM     21  C   LIG    1       28.482  -1.329  27.669  0.00  0.00    +0.121 A 
ATOM     22  C   LIG    1       29.035  -2.589  27.909  0.00  0.00    +0.043 A 
ATOM     23  C   LIG    1       28.235  -3.720  28.099  0.00  0.00    +0.005 A 
ATOM     24  C   LIG    1       26.865  -3.570  28.140  0.00  0.00    +0.020 A 
ATOM     25  C   LIG    1       26.368  -2.295  27.973  0.00  0.00    +0.113 A 
ATOM     26  N   LIG    1       27.136  -1.202  27.729  0.00  0.00    -0.240 NA
ENDBRANCH  19  21
ENDBRANCH  18  19
ENDBRANCH  17  18
ENDBRANCH  16  17
ENDBRANCH   4  16
TORSDOF 7
ENDMDL
MODEL 2
REMARK VINA RESULT:      -7.6      2.260      3.932
REMARK  Name = 
REMARK                            x       y       z     vdW  Elec       q    Type
REMARK                         _______ _______ _______ _____ _____    ______ ____
ROOT
ATOM      1  C   LIG    1       33.254  -2.952  22.965  0.00  0.00    -0.046 A 
ATOM      2  C   LIG    1       33.548  -3.339  24.268  0.00  0.00    +0.007 A 
ATOM      3  C   LIG    1       32.776  -2.884  25.330  0.00  0.00    +0.046 A 
ATOM      4  C   LIG    1       31.721  -1.984  25.139  0.00  0.00    +0.121 A 
ATOM      5  C   LIG    1       31.460  -1.542  23.843  0.00  0.00    +0.046 A 
ATOM      6  C   LIG    1       32.215  -2.032  22.759  0.00  0.00    +0.007 A 
ENDROOT
BRANCH   1   7
ATOM      7  C   LIG    1       34.064  -3.533  21.829  0.00  0.00    +0.056 C 
BRANCH   7  10
ATOM      8  S   LIG    1       32.407  -2.937  18.545  0.00  0.00    -0.039 S 
ATOM      9  C   LIG    1       33.891  -3.113  19.280  0.00  0.00    +0.069 C 
ATOM     10  C   LIG    1       34.286  -2.568  20.647  0.00  0.00    +0.112 C 
ATOM     11  S   LIG    1       36.115  -2.393  20.459  0.00  0.00    -0.057 S 
ATOM     12  C   LIG    1       36.181  -3.445  19.062  0.00  0.00    +0.277 C 
ATOM     13  O   LIG    1       37.200  -3.773  18.501  0.00  0.00    -0.263 OA
ATOM     14  N   LIG    1       34.920  -3.745  18.647  0.00  0.00    -0.273 N 
ATOM     15  H   LIG    1       34.810  -4.156  17.732  0.00  0.00    +0.156 HD
ENDBRANCH   7  10
ENDBRANCH   1   7
BRANCH   4  16
ATOM     16  O   LIG    1       30.910  -1.498  26.153  0.00  0.00    -0.490 OA
BRANCH  16  17
ATOM     17  C   LIG    1       31.146  -2.181  27.391  0.00  0.00    +0.248 C 
BRANCH  17  18
ATOM     18  C   LIG    1       31.125  -1.352  28.667  0.00  0.00    +0.147 C 
BRANCH  18  19
ATOM     19  N   LIG    1       31.267   0.125  28.469  0.00  0.00    -0.315 N 
ATOM     20  C   LIG    1       30.445   0.897  29.410  0.00  0.00    +0.131 C 
BRANCH  19  21
ATOM     21  C   LIG    1       32.502   0.758  28.226  0.00  0.00    +0.121 A 
ATOM     22  C   LIG    1       32.786   1.402  27.019  0.00  0.00    +0.043 A 
ATOM     23  C   LIG    1       34.009   2.044  26.798  0.00  0.00    +0.005 A 
ATOM     24  C   LIG    1       34.920   2.120  27.829  0.00  0.00    +0.020 A 
ATOM     25  C   LIG    1       34.563   1.535  29.025  0.00  0.00    +0.113 A 
ATOM     26  N   LIG    1       33.404   0.858  29.229  0.00  0.00    -0.240 NA
ENDBRANCH  19  21
ENDBRANCH  18  19
ENDBRANCH  17  18
ENDBRANCH  16  17
ENDBRANCH   4  16
TORSDOF 7
ENDMDL
MODEL 3
REMARK VINA RESULT:      -7.5      1.266      1.959
REMARK  Name = 
REMARK                            x       y       z     vdW  Elec       q    Type
REMARK                         _______ _______ _______ _____ _____    ______ ____
ROOT
ATOM      1  C   LIG    1       32.493  -2.936  22.845  0.00  0.00    -0.046 A 
ATOM      2  C   LIG    1       31.733  -1.787  23.036  0.00  0.00    +0.007 A 
ATOM      3  C   LIG    1       31.757  -1.120  24.254  0.00  0.00    +0.046 A 
ATOM      4  C   LIG    1       32.493  -1.603  25.342  0.00  0.00    +0.121 A 
ATOM      5  C   LIG    1       33.207  -2.789  25.178  0.00  0.00    +0.046 A 
ATOM      6  C   LIG    1       33.217  -3.447  23.933  0.00  0.00    +0.007 A 
ENDROOT
BRANCH   1   7
ATOM      7  C   LIG    1       32.505  -3.587  21.481  0.00  0.00    +0.056 C 
BRANCH   7  10
ATOM      8  S   LIG    1       31.233  -2.806  18.067  0.00  0.00    -0.039 S 
ATOM      9  C   LIG    1       32.614  -3.148  18.931  0.00  0.00    +0.069 C 
ATOM     10  C   LIG    1       32.941  -2.652  20.334  0.00  0.00    +0.112 C 
ATOM     11  S   LIG    1       34.787  -2.684  20.315  0.00  0.00    -0.057 S 
ATOM     12  C   LIG    1       34.863  -3.736  18.918  0.00  0.00    +0.277 C 
ATOM     13  O   LIG    1       35.886  -4.176  18.449  0.00  0.00    -0.263 OA
ATOM     14  N   LIG    1       33.619  -3.891  18.388  0.00  0.00    -0.273 N 
ATOM     15  H   LIG    1       33.548  -4.287  17.462  0.00  0.00    +0.156 HD
ENDBRANCH   7  10
ENDBRANCH   1   7
BRANCH   4  16
ATOM     16  O   LIG    1       32.565  -0.982  26.580  0.00  0.00    -0.490 OA
BRANCH  16  17
ATOM     17  C   LIG    1       32.595   0.445  26.454  0.00  0.00    +0.248 C 
BRANCH  17  18
ATOM     18  C   LIG    1       31.422   1.227  27.028  0.00  0.00    +0.147 C 
BRANCH  18  19
ATOM     19  N   LIG    1       30.523   0.449  27.937  0.00  0.00    -0.315 N 
ATOM     20  C   LIG    1       30.511   0.985  29.305  0.00  0.00    +0.131 C 
BRANCH  19  21
ATOM     21  C   LIG    1       29.248  -0.013  27.555  0.00  0.00    +0.121 A 
ATOM     22  C   LIG    1       28.087   0.736  27.769  0.00  0.00    +0.043 A 
ATOM     23  C   LIG    1       26.830   0.275  27.367  0.00  0.00    +0.005 A 
ATOM     24  C   LIG    1       26.745  -0.906  26.661  0.00  0.00    +0.020 A 
ATOM     25  C   LIG    1       27.926  -1.572  26.408  0.00  0.00    +0.113 A 
ATOM     26  N   LIG    1       29.143  -1.161  26.847  0.00  0.00    -0.240 NA
ENDBRANCH  19  21
ENDBRANCH  18  19
ENDBRANCH  17  18
ENDBRANCH  16  17
ENDBRANCH   4  16
TORSDOF 7
ENDMDL
MODEL 4
REMARK VINA RESULT:      -7.5      3.563      8.648
REMARK  Name = 
REMARK                            x       y       z     vdW  Elec       q    Type
REMARK                         _______ _______ _______ _____ _____    ______ ____
ROOT
ATOM      1  C   LIG    1       30.743  -1.076  25.753  0.00  0.00    -0.046 A 
ATOM      2  C   LIG    1       31.440  -2.107  26.373  0.00  0.00    +0.007 A 
ATOM      3  C   LIG    1       32.378  -2.850  25.666  0.00  0.00    +0.046 A 
ATOM      4  C   LIG    1       32.615  -2.629  24.304  0.00  0.00    +0.121 A 
ATOM      5  C   LIG    1       31.875  -1.639  23.660  0.00  0.00    +0.046 A 
ATOM      6  C   LIG    1       30.952  -0.858  24.382  0.00  0.00    +0.007 A 
ENDROOT
BRANCH   1   7
ATOM      7  C   LIG    1       29.792  -0.238  26.575  0.00  0.00    +0.056 C 
BRANCH   7  10
ATOM      8  S   LIG    1       33.076   1.493  26.241  0.00  0.00    -0.039 S 
ATOM      9  C   LIG    1       31.880   1.095  27.330  0.00  0.00    +0.069 C 
ATOM     10  C   LIG    1       30.381   1.103  27.059  0.00  0.00    +0.112 C 
ATOM     11  S   LIG    1       29.702   1.383  28.753  0.00  0.00    -0.057 S 
ATOM     12  C   LIG    1       31.195   0.928  29.545  0.00  0.00    +0.277 C 
ATOM     13  O   LIG    1       31.340   0.860  30.743  0.00  0.00    -0.263 OA
ATOM     14  N   LIG    1       32.180   0.772  28.619  0.00  0.00    -0.273 N 
ATOM     15  H   LIG    1       33.133   0.727  28.949  0.00  0.00    +0.156 HD
ENDBRANCH   7  10
ENDBRANCH   1   7
BRANCH   4  16
ATOM     16  O   LIG    1       33.541  -3.329  23.545  0.00  0.00    -0.490 OA
BRANCH  16  17
ATOM     17  C   LIG    1       32.902  -4.222  22.625  0.00  0.00    +0.248 C 
BRANCH  17  18
ATOM     18  C   LIG    1       33.562  -4.427  21.269  0.00  0.00    +0.147 C 
BRANCH  18  19
ATOM     19  N   LIG    1       33.684  -3.194  20.428  0.00  0.00    -0.315 N 
ATOM     20  C   LIG    1       35.071  -2.930  20.020  0.00  0.00    +0.131 C 
BRANCH  19  21
ATOM     21  C   LIG    1       32.775  -2.863  19.404  0.00  0.00    +0.121 A 
ATOM     22  C   LIG    1       31.400  -3.079  19.527  0.00  0.00    +0.043 A 
ATOM     23  C   LIG    1       30.506  -2.728  18.511  0.00  0.00    +0.005 A 
ATOM     24  C   LIG    1       30.984  -2.070  17.397  0.00  0.00    +0.020 A 
ATOM     25  C   LIG    1       32.338  -1.813  17.355  0.00  0.00    +0.113 A 
ATOM     26  N   LIG    1       33.221  -2.203  18.310  0.00  0.00    -0.240 NA
ENDBRANCH  19  21
ENDBRANCH  18  19
ENDBRANCH  17  18
ENDBRANCH  16  17
ENDBRANCH   4  16
TORSDOF 7
ENDMDL
MODEL 5
REMARK VINA RESULT:      -7.5      2.407      4.151
REMARK  Name = 
REMARK                            x       y       z     vdW  Elec       q    Type
REMARK                         _______ _______ _______ _____ _____    ______ ____
ROOT
ATOM      1  C   LIG    1       32.694  -2.384  23.043  0.00  0.00    -0.046 A 
ATOM      2  C   LIG    1       33.199  -3.360  23.895  0.00  0.00    +0.007 A 
ATOM      3  C   LIG    1       32.796  -3.415  25.224  0.00  0.00    +0.046 A 
ATOM      4  C   LIG    1       31.919  -2.467  25.765  0.00  0.00    +0.121 A 
ATOM      5  C   LIG    1       31.457  -1.448  24.933  0.00  0.00    +0.046 A 
ATOM      6  C   LIG    1       31.833  -1.412  23.576  0.00  0.00    +0.007 A 
ENDROOT
BRANCH   1   7
ATOM      7  C   LIG    1       33.093  -2.408  21.586  0.00  0.00    +0.056 C 
BRANCH   7  10
ATOM      8  S   LIG    1       34.313  -4.516  18.766  0.00  0.00    -0.039 S 
ATOM      9  C   LIG    1       32.985  -3.691  19.339  0.00  0.00    +0.069 C 
ATOM     10  C   LIG    1       32.539  -3.610  20.794  0.00  0.00    +0.112 C 
ATOM     11  S   LIG    1       30.726  -3.313  20.606  0.00  0.00    -0.057 S 
ATOM     12  C   LIG    1       30.869  -2.819  18.934  0.00  0.00    +0.277 C 
ATOM     13  O   LIG    1       29.950  -2.425  18.256  0.00  0.00    -0.263 OA
ATOM     14  N   LIG    1       32.136  -3.046  18.491  0.00  0.00    -0.273 N 
ATOM     15  H   LIG    1       32.300  -3.015  17.496  0.00  0.00    +0.156 HD
ENDBRANCH   7  10
ENDBRANCH   1   7
BRANCH   4  16
ATOM     16  O   LIG    1       31.472  -2.469  27.078  0.00  0.00    -0.490 OA
BRANCH  16  17
ATOM     17  C   LIG    1       30.216  -1.794  27.209  0.00  0.00    +0.248 C 
BRANCH  17  18
ATOM     18  C   LIG    1       30.111  -0.702  28.264  0.00  0.00    +0.147 C 
BRANCH  18  19
ATOM     19  N   LIG    1       30.522   0.664  27.809  0.00  0.00    -0.315 N 
ATOM     20  C   LIG    1       29.665   1.720  28.368  0.00  0.00    +0.131 C 
BRANCH  19  21
ATOM     21  C   LIG    1       31.864   1.082  27.726  0.00  0.00    +0.121 A 
ATOM     22  C   LIG    1       32.404   1.634  26.561  0.00  0.00    +0.043 A 
ATOM     23  C   LIG    1       33.733   2.063  26.498  0.00  0.00    +0.005 A 
ATOM     24  C   LIG    1       34.504   2.022  27.640  0.00  0.00    +0.020 A 
ATOM     25  C   LIG    1       33.905   1.538  28.784  0.00  0.00    +0.113 A 
ATOM     26  N   LIG    1       32.634   1.065  28.839  0.00  0.00    -0.240 NA
ENDBRANCH  19  21
ENDBRANCH  18  19
ENDBRANCH  17  18
ENDBRANCH  16  17
ENDBRANCH   4  16
TORSDOF 7
ENDMDL
MODEL 6
REMARK VINA RESULT:      -7.4      4.031      9.101
REMARK  Name = 
REMARK                            x       y       z     vdW  Elec       q    Type
REMARK                         _______ _______ _______ _____ _____    ______ ____
ROOT
ATOM      1  C   LIG    1       32.004  -1.507  26.137  0.00  0.00    -0.046 A 
ATOM      2  C   LIG    1       31.468  -0.726  25.119  0.00  0.00    +0.007 A 
ATOM      3  C   LIG    1       31.575  -1.126  23.792  0.00  0.00    +0.046 A 
ATOM      4  C   LIG    1       32.266  -2.288  23.429  0.00  0.00    +0.121 A 
ATOM      5  C   LIG    1       32.861  -3.043  24.439  0.00  0.00    +0.046 A 
ATOM      6  C   LIG    1       32.721  -2.661  25.787  0.00  0.00    +0.007 A 
ENDROOT
BRANCH   1   7
ATOM      7  C   LIG    1       31.796  -1.081  27.572  0.00  0.00    +0.056 C 
BRANCH   7  10
ATOM      8  S   LIG    1       33.637   2.001  26.573  0.00  0.00    -0.039 S 
ATOM      9  C   LIG    1       32.858   1.264  27.847  0.00  0.00    +0.069 C 
ATOM     10  C   LIG    1       31.583   0.435  27.761  0.00  0.00    +0.112 C 
ATOM     11  S   LIG    1       30.888   0.651  29.458  0.00  0.00    -0.057 S 
ATOM     12  C   LIG    1       32.406   1.210  30.126  0.00  0.00    +0.277 C 
ATOM     13  O   LIG    1       32.585   1.468  31.293  0.00  0.00    -0.263 OA
ATOM     14  N   LIG    1       33.306   1.410  29.126  0.00  0.00    -0.273 N 
ATOM     15  H   LIG    1       34.141   1.935  29.341  0.00  0.00    +0.156 HD
ENDBRANCH   7  10
ENDBRANCH   1   7
BRANCH   4  16
ATOM     16  O   LIG    1       32.403  -2.746  22.127  0.00  0.00    -0.490 OA
BRANCH  16  17
ATOM     17  C   LIG    1       33.591  -3.530  21.965  0.00  0.00    +0.248 C 
BRANCH  17  18
ATOM     18  C   LIG    1       34.605  -3.065  20.930  0.00  0.00    +0.147 C 
BRANCH  18  19
ATOM     19  N   LIG    1       34.023  -2.398  19.723  0.00  0.00    -0.315 N 
ATOM     20  C   LIG    1       34.991  -1.524  19.045  0.00  0.00    +0.131 C 
BRANCH  19  21
ATOM     21  C   LIG    1       33.193  -3.060  18.798  0.00  0.00    +0.121 A 
ATOM     22  C   LIG    1       32.024  -2.482  18.295  0.00  0.00    +0.043 A 
ATOM     23  C   LIG    1       31.219  -3.142  17.362  0.00  0.00    +0.005 A 
ATOM     24  C   LIG    1       31.637  -4.356  16.858  0.00  0.00    +0.020 A 
ATOM     25  C   LIG    1       32.834  -4.851  17.329  0.00  0.00    +0.113 A 
ATOM     26  N   LIG    1       33.591  -4.245  18.279  0.00  0.00    -0.240 NA
ENDBRANCH  19  21
ENDBRANCH  18  19
ENDBRANCH  17  18
ENDBRANCH  16  17
ENDBRANCH   4  16
TORSDOF 7
ENDMDL
MODEL 7
REMARK VINA RESULT:      -7.3      3.417      8.707
REMARK  Name = 
REMARK                            x       y       z     vdW  Elec       q    Type
REMARK                         _______ _______ _______ _____ _____    ______ ____
ROOT
ATOM      1  C   LIG    1       31.927  -0.657  25.575  0.00  0.00    -0.046 A 
ATOM      2  C   LIG    1       31.481  -0.719  24.259  0.00  0.00    +0.007 A 
ATOM      3  C   LIG    1       31.816  -1.798  23.450  0.00  0.00    +0.046 A 
ATOM      4  C   LIG    1       32.652  -2.825  23.904  0.00  0.00    +0.121 A 
ATOM      5  C   LIG    1       33.154  -2.738  25.201  0.00  0.00    +0.046 A 
ATOM      6  C   LIG    1       32.785  -1.667  26.037  0.00  0.00    +0.007 A 
ENDROOT
BRANCH   1   7
ATOM      7  C   LIG    1       31.474   0.489  26.447  0.00  0.00    +0.056 C 
BRANCH   7  10
ATOM      8  S   LIG    1       29.569  -2.552  27.453  0.00  0.00    -0.039 S 
ATOM      9  C   LIG    1       29.502  -0.889  27.408  0.00  0.00    +0.069 C 
ATOM     10  C   LIG    1       30.659   0.064  27.686  0.00  0.00    +0.112 C 
ATOM     11  S   LIG    1       29.763   1.574  28.258  0.00  0.00    -0.057 S 
ATOM     12  C   LIG    1       28.230   1.048  27.596  0.00  0.00    +0.277 C 
ATOM     13  O   LIG    1       27.216   1.704  27.617  0.00  0.00    -0.263 OA
ATOM     14  N   LIG    1       28.332  -0.237  27.158  0.00  0.00    -0.273 N 
ATOM     15  H   LIG    1       27.477  -0.735  26.958  0.00  0.00    +0.156 HD
ENDBRANCH   7  10
ENDBRANCH   1   7
BRANCH   4  16
ATOM     16  O   LIG    1       33.017  -3.931  23.151  0.00  0.00    -0.490 OA
BRANCH  16  17
ATOM     17  C   LIG    1       33.942  -3.580  22.114  0.00  0.00    +0.248 C 
BRANCH  17  18
ATOM     18  C   LIG    1       33.781  -4.268  20.766  0.00  0.00    +0.147 C 
BRANCH  18  19
ATOM     19  N   LIG    1       33.723  -3.349  19.586  0.00  0.00    -0.315 N 
ATOM     20  C   LIG    1       34.774  -3.637  18.600  0.00  0.00    +0.131 C 
BRANCH  19  21
ATOM     21  C   LIG    1       32.520  -2.970  18.958  0.00  0.00    +0.121 A 
ATOM     22  C   LIG    1       31.268  -3.254  19.511  0.00  0.00    +0.043 A 
ATOM     23  C   LIG    1       30.082  -2.854  18.888  0.00  0.00    +0.005 A 
ATOM     24  C   LIG    1       30.152  -2.084  17.746  0.00  0.00    +0.020 A 
ATOM     25  C   LIG    1       31.410  -1.767  17.281  0.00  0.00    +0.113 A 
ATOM     26  N   LIG    1       32.566  -2.201  17.846  0.00  0.00    -0.240 NA
ENDBRANCH  19  21
ENDBRANCH  18  19
ENDBRANCH  17  18
ENDBRANCH  16  17
ENDBRANCH   4  16
TORSDOF 7
ENDMDL
MODEL 8
REMARK VINA RESULT:      -7.2      3.565      9.178
REMARK  Name = 
REMARK                            x       y       z     vdW  Elec       q    Type
REMARK                         _______ _______ _______ _____ _____    ______ ____
ROOT
ATOM      1  C   LIG    1       31.840  -0.889  25.797  0.00  0.00    -0.046 A 
ATOM      2  C   LIG    1       32.519  -2.014  26.250  0.00  0.00    +0.007 A 
ATOM      3  C   LIG    1       32.925  -3.000  25.359  0.00  0.00    +0.046 A 
ATOM      4  C   LIG    1       32.621  -2.927  23.994  0.00  0.00    +0.121 A 
ATOM      5  C   LIG    1       31.885  -1.833  23.542  0.00  0.00    +0.046 A 
ATOM      6  C   LIG    1       31.506  -0.813  24.436  0.00  0.00    +0.007 A 
ENDROOT
BRANCH   1   7
ATOM      7  C   LIG    1       31.488   0.200  26.784  0.00  0.00    +0.056 C 
BRANCH   7  10
ATOM      8  S   LIG    1       29.233  -2.716  27.334  0.00  0.00    -0.039 S 
ATOM      9  C   LIG    1       29.315  -1.055  27.423  0.00  0.00    +0.069 C 
ATOM     10  C   LIG    1       30.512  -0.240  27.894  0.00  0.00    +0.112 C 
ATOM     11  S   LIG    1       29.693   1.300  28.501  0.00  0.00    -0.057 S 
ATOM     12  C   LIG    1       28.200   0.972  27.647  0.00  0.00    +0.277 C 
ATOM     13  O   LIG    1       27.249   1.717  27.622  0.00  0.00    -0.263 OA
ATOM     14  N   LIG    1       28.238  -0.280  27.114  0.00  0.00    -0.273 N 
ATOM     15  H   LIG    1       27.370  -0.679  26.788  0.00  0.00    +0.156 HD
ENDBRANCH   7  10
ENDBRANCH   1   7
BRANCH   4  16
ATOM     16  O   LIG    1       33.002  -3.872  23.053  0.00  0.00    -0.490 OA
BRANCH  16  17
ATOM     17  C   LIG    1       32.420  -3.605  21.772  0.00  0.00    +0.248 C 
BRANCH  17  18
ATOM     18  C   LIG    1       33.333  -3.675  20.556  0.00  0.00    +0.147 C 
BRANCH  18  19
ATOM     19  N   LIG    1       34.278  -2.524  20.402  0.00  0.00    -0.315 N 
ATOM     20  C   LIG    1       35.587  -2.789  21.016  0.00  0.00    +0.131 C 
BRANCH  19  21
ATOM     21  C   LIG    1       34.410  -1.785  19.210  0.00  0.00    +0.121 A 
ATOM     22  C   LIG    1       35.336  -0.747  19.073  0.00  0.00    +0.043 A 
ATOM     23  C   LIG    1       35.470  -0.034  17.879  0.00  0.00    +0.005 A 
ATOM     24  C   LIG    1       34.733  -0.424  16.780  0.00  0.00    +0.020 A 
ATOM     25  C   LIG    1       33.887  -1.500  16.943  0.00  0.00    +0.113 A 
ATOM     26  N   LIG    1       33.707  -2.160  18.116  0.00  0.00    -0.240 NA
ENDBRANCH  19  21
ENDBRANCH  18  19
ENDBRANCH  17  18
ENDBRANCH  16  17
ENDBRANCH   4  16
TORSDOF 7
ENDMDL
MODEL 9
REMARK VINA RESULT:      -7.2      3.606      9.255
REMARK  Name = 
REMARK                            x       y       z     vdW  Elec       q    Type
REMARK                         _______ _______ _______ _____ _____    ______ ____
ROOT
ATOM      1  C   LIG    1       31.223  -1.488  25.959  0.00  0.00    -0.046 A 
ATOM      2  C   LIG    1       32.030  -2.599  26.182  0.00  0.00    +0.007 A 
ATOM      3  C   LIG    1       32.796  -3.133  25.153  0.00  0.00    +0.046 A 
ATOM      4  C   LIG    1       32.744  -2.615  23.854  0.00  0.00    +0.121 A 
ATOM      5  C   LIG    1       31.890  -1.541  23.608  0.00  0.00    +0.046 A 
ATOM      6  C   LIG    1       31.141  -0.973  24.657  0.00  0.00    +0.007 A 
ENDROOT
BRANCH   1   7
ATOM      7  C   LIG    1       30.469  -0.887  27.122  0.00  0.00    +0.056 C 
BRANCH   7  10
ATOM      8  S   LIG    1       33.268   1.456  26.373  0.00  0.00    -0.039 S 
ATOM      9  C   LIG    1       32.190   1.000  27.556  0.00  0.00    +0.069 C 
ATOM     10  C   LIG    1       30.730   0.617  27.341  0.00  0.00    +0.112 C 
ATOM     11  S   LIG    1       29.994   1.036  28.982  0.00  0.00    -0.057 S 
ATOM     12  C   LIG    1       31.547   1.083  29.788  0.00  0.00    +0.277 C 
ATOM     13  O   LIG    1       31.696   1.266  30.973  0.00  0.00    -0.263 OA
ATOM     14  N   LIG    1       32.548   0.990  28.871  0.00  0.00    -0.273 N 
ATOM     15  H   LIG    1       33.483   1.224  29.169  0.00  0.00    +0.156 HD
ENDBRANCH   7  10
ENDBRANCH   1   7
BRANCH   4  16
ATOM     16  O   LIG    1       33.487  -3.096  22.786  0.00  0.00    -0.490 OA
BRANCH  16  17
ATOM     17  C   LIG    1       32.719  -3.119  21.577  0.00  0.00    +0.248 C 
BRANCH  17  18
ATOM     18  C   LIG    1       33.310  -3.857  20.383  0.00  0.00    +0.147 C 
BRANCH  18  19
ATOM     19  N   LIG    1       33.089  -3.199  19.056  0.00  0.00    -0.315 N 
ATOM     20  C   LIG    1       31.665  -2.962  18.780  0.00  0.00    +0.131 C 
BRANCH  19  21
ATOM     21  C   LIG    1       33.888  -2.145  18.572  0.00  0.00    +0.121 A 
ATOM     22  C   LIG    1       33.688  -1.574  17.312  0.00  0.00    +0.043 A 
ATOM     23  C   LIG    1       34.476  -0.515  16.851  0.00  0.00    +0.005 A 
ATOM     24  C   LIG    1       35.414   0.038  17.697  0.00  0.00    +0.020 A 
ATOM     25  C   LIG    1       35.523  -0.511  18.957  0.00  0.00    +0.113 A 
ATOM     26  N   LIG    1       34.804  -1.577  19.391  0.00  0.00    -0.240 NA
ENDBRANCH  19  21
ENDBRANCH  18  19
ENDBRANCH  17  18
ENDBRANCH  16  17
ENDBRANCH   4  16
TORSDOF 7
ENDMDL
