MODEL 1
REMARK VINA RESULT:      -7.3      0.000      0.000
REMARK  Name = 
REMARK                            x       y       z     vdW  Elec       q    Type
REMARK                         _______ _______ _______ _____ _____    ______ ____
ROOT
ATOM      1  C   LIG    1       67.139  46.611  94.591  0.00  0.00    -0.046 A 
ATOM      2  C   LIG    1       66.036  46.138  95.294  0.00  0.00    +0.007 A 
ATOM      3  C   LIG    1       66.201  45.481  96.508  0.00  0.00    +0.046 A 
ATOM      4  C   LIG    1       67.471  45.223  97.036  0.00  0.00    +0.121 A 
ATOM      5  C   LIG    1       68.584  45.637  96.306  0.00  0.00    +0.046 A 
ATOM      6  C   LIG    1       68.420  46.337  95.095  0.00  0.00    +0.007 A 
ENDROOT
BRANCH   1   7
ATOM      7  C   LIG    1       66.914  47.391  93.318  0.00  0.00    +0.056 C 
BRANCH   7  10
ATOM      8  S   LIG    1       69.948  49.545  93.112  0.00  0.00    -0.039 S 
ATOM      9  C   LIG    1       68.568  49.264  94.000  0.00  0.00    +0.069 C 
ATOM     10  C   LIG    1       67.199  48.902  93.439  0.00  0.00    +0.112 C 
ATOM     11  S   LIG    1       66.079  49.534  94.765  0.00  0.00    -0.057 S 
ATOM     12  C   LIG    1       67.362  49.629  95.952  0.00  0.00    +0.277 C 
ATOM     13  O   LIG    1       67.201  49.946  97.108  0.00  0.00    -0.263 OA
ATOM     14  N   LIG    1       68.563  49.399  95.356  0.00  0.00    -0.273 N 
ATOM     15  H   LIG    1       69.398  49.638  95.871  0.00  0.00    +0.156 HD
ENDBRANCH   7  10
ENDBRANCH   1   7
BRANCH   4  16
ATOM     16  O   LIG    1       67.703  44.580  98.243  0.00  0.00    -0.490 OA
BRANCH  16  17
ATOM     17  C   LIG    1       66.581  44.694  99.126  0.00  0.00    +0.248 C 
BRANCH  17  18
ATOM     18  C   LIG    1       66.285  46.065  99.715  0.00  0.00    +0.147 C 
BRANCH  18  19
ATOM     19  N   LIG    1       67.404  46.674 100.502  0.00  0.00    -0.315 N 
ATOM     20  C   LIG    1       68.229  45.662 101.176  0.00  0.00    +0.131 C 
BRANCH  19  21
ATOM     21  C   LIG    1       68.188  47.745 100.031  0.00  0.00    +0.121 A 
ATOM     22  C   LIG    1       68.101  49.030 100.574  0.00  0.00    +0.043 A 
ATOM     23  C   LIG    1       68.899  50.080 100.111  0.00  0.00    +0.005 A 
ATOM     24  C   LIG    1       69.859  49.820  99.157  0.00  0.00    +0.020 A 
ATOM     25  C   LIG    1       69.958  48.521  98.705  0.00  0.00    +0.113 A 
ATOM     26  N   LIG    1       69.147  47.509  99.106  0.00  0.00    -0.240 NA
ENDBRANCH  19  21
ENDBRANCH  18  19
ENDBRANCH  17  18
ENDBRANCH  16  17
ENDBRANCH   4  16
TORSDOF 7
ENDMDL
MODEL 2
REMARK VINA RESULT:      -7.1      2.101      3.982
REMARK  Name = 
REMARK                            x       y       z     vdW  Elec       q    Type
REMARK                         _______ _______ _______ _____ _____    ______ ____
ROOT
ATOM      1  C   LIG    1       69.648  48.826  96.025  0.00  0.00    -0.046 A 
ATOM      2  C   LIG    1       69.750  47.550  96.567  0.00  0.00    +0.007 A 
ATOM      3  C   LIG    1       69.558  47.344  97.929  0.00  0.00    +0.046 A 
ATOM      4  C   LIG    1       69.313  48.408  98.805  0.00  0.00    +0.121 A 
ATOM      5  C   LIG    1       69.272  49.698  98.277  0.00  0.00    +0.046 A 
ATOM      6  C   LIG    1       69.428  49.906  96.894  0.00  0.00    +0.007 A 
ENDROOT
BRANCH   1   7
ATOM      7  C   LIG    1       69.782  48.998  94.530  0.00  0.00    +0.056 C 
BRANCH   7  10
ATOM      8  S   LIG    1       66.503  50.335  95.689  0.00  0.00    -0.039 S 
ATOM      9  C   LIG    1       67.230  49.433  94.493  0.00  0.00    +0.069 C 
ATOM     10  C   LIG    1       68.588  49.710  93.861  0.00  0.00    +0.112 C 
ATOM     11  S   LIG    1       68.387  48.930  92.199  0.00  0.00    -0.057 S 
ATOM     12  C   LIG    1       67.000  47.983  92.691  0.00  0.00    +0.277 C 
ATOM     13  O   LIG    1       66.436  47.180  91.986  0.00  0.00    -0.263 OA
ATOM     14  N   LIG    1       66.597  48.364  93.934  0.00  0.00    -0.273 N 
ATOM     15  H   LIG    1       65.687  48.060  94.248  0.00  0.00    +0.156 HD
ENDBRANCH   7  10
ENDBRANCH   1   7
BRANCH   4  16
ATOM     16  O   LIG    1       69.105  48.270 100.169  0.00  0.00    -0.490 OA
BRANCH  16  17
ATOM     17  C   LIG    1       67.893  47.560 100.449  0.00  0.00    +0.248 C 
BRANCH  17  18
ATOM     18  C   LIG    1       67.979  46.046 100.579  0.00  0.00    +0.147 C 
BRANCH  18  19
ATOM     19  N   LIG    1       66.965  45.280  99.787  0.00  0.00    -0.315 N 
ATOM     20  C   LIG    1       65.636  45.297 100.415  0.00  0.00    +0.131 C 
BRANCH  19  21
ATOM     21  C   LIG    1       66.871  45.343  98.383  0.00  0.00    +0.121 A 
ATOM     22  C   LIG    1       66.117  46.320  97.728  0.00  0.00    +0.043 A 
ATOM     23  C   LIG    1       66.048  46.384  96.333  0.00  0.00    +0.005 A 
ATOM     24  C   LIG    1       66.816  45.517  95.585  0.00  0.00    +0.020 A 
ATOM     25  C   LIG    1       67.602  44.620  96.277  0.00  0.00    +0.113 A 
ATOM     26  N   LIG    1       67.629  44.512  97.630  0.00  0.00    -0.240 NA
ENDBRANCH  19  21
ENDBRANCH  18  19
ENDBRANCH  17  18
ENDBRANCH  16  17
ENDBRANCH   4  16
TORSDOF 7
ENDMDL
MODEL 3
REMARK VINA RESULT:      -7.0      1.921      2.669
REMARK  Name = 
REMARK                            x       y       z     vdW  Elec       q    Type
REMARK                         _______ _______ _______ _____ _____    ______ ____
ROOT
ATOM      1  C   LIG    1       67.429  46.087  95.976  0.00  0.00    -0.046 A 
ATOM      2  C   LIG    1       66.391  46.766  96.605  0.00  0.00    +0.007 A 
ATOM      3  C   LIG    1       65.962  46.384  97.871  0.00  0.00    +0.046 A 
ATOM      4  C   LIG    1       66.513  45.278  98.530  0.00  0.00    +0.121 A 
ATOM      5  C   LIG    1       67.510  44.554  97.879  0.00  0.00    +0.046 A 
ATOM      6  C   LIG    1       67.974  44.962  96.613  0.00  0.00    +0.007 A 
ENDROOT
BRANCH   1   7
ATOM      7  C   LIG    1       67.921  46.583  94.637  0.00  0.00    +0.056 C 
BRANCH   7  10
ATOM      8  S   LIG    1       66.185  49.876  94.811  0.00  0.00    -0.039 S 
ATOM      9  C   LIG    1       67.374  49.034  94.005  0.00  0.00    +0.069 C 
ATOM     10  C   LIG    1       68.365  48.060  94.630  0.00  0.00    +0.112 C 
ATOM     11  S   LIG    1       69.781  48.168  93.450  0.00  0.00    -0.057 S 
ATOM     12  C   LIG    1       68.813  48.894  92.185  0.00  0.00    +0.277 C 
ATOM     13  O   LIG    1       69.220  49.155  91.078  0.00  0.00    -0.263 OA
ATOM     14  N   LIG    1       67.582  49.213  92.670  0.00  0.00    -0.273 N 
ATOM     15  H   LIG    1       67.005  49.831  92.119  0.00  0.00    +0.156 HD
ENDBRANCH   7  10
ENDBRANCH   1   7
BRANCH   4  16
ATOM     16  O   LIG    1       66.136  44.850  99.794  0.00  0.00    -0.490 OA
BRANCH  16  17
ATOM     17  C   LIG    1       67.273  44.503 100.595  0.00  0.00    +0.248 C 
BRANCH  17  18
ATOM     18  C   LIG    1       67.954  45.622 101.370  0.00  0.00    +0.147 C 
BRANCH  18  19
ATOM     19  N   LIG    1       69.076  46.303 100.650  0.00  0.00    -0.315 N 
ATOM     20  C   LIG    1       70.022  45.347 100.057  0.00  0.00    +0.131 C 
BRANCH  19  21
ATOM     21  C   LIG    1       68.895  47.428  99.822  0.00  0.00    +0.121 A 
ATOM     22  C   LIG    1       69.619  47.610  98.641  0.00  0.00    +0.043 A 
ATOM     23  C   LIG    1       69.415  48.721  97.817  0.00  0.00    +0.005 A 
ATOM     24  C   LIG    1       68.411  49.613  98.133  0.00  0.00    +0.020 A 
ATOM     25  C   LIG    1       67.674  49.350  99.268  0.00  0.00    +0.113 A 
ATOM     26  N   LIG    1       67.905  48.306 100.105  0.00  0.00    -0.240 NA
ENDBRANCH  19  21
ENDBRANCH  18  19
ENDBRANCH  17  18
ENDBRANCH  16  17
ENDBRANCH   4  16
TORSDOF 7
ENDMDL
MODEL 4
REMARK VINA RESULT:      -7.0      2.902      6.340
REMARK  Name = 
REMARK                            x       y       z     vdW  Elec       q    Type
REMARK                         _______ _______ _______ _____ _____    ______ ____
ROOT
ATOM      1  C   LIG    1       69.560  47.775  96.951  0.00  0.00    -0.046 A 
ATOM      2  C   LIG    1       70.018  47.096  95.827  0.00  0.00    +0.007 A 
ATOM      3  C   LIG    1       70.142  47.753  94.608  0.00  0.00    +0.046 A 
ATOM      4  C   LIG    1       69.763  49.091  94.453  0.00  0.00    +0.121 A 
ATOM      5  C   LIG    1       69.243  49.760  95.560  0.00  0.00    +0.046 A 
ATOM      6  C   LIG    1       69.152  49.110  96.806  0.00  0.00    +0.007 A 
ENDROOT
BRANCH   1   7
ATOM      7  C   LIG    1       69.517  47.050  98.276  0.00  0.00    +0.056 C 
BRANCH   7  10
ATOM      8  S   LIG    1       68.780  49.607 100.883  0.00  0.00    -0.039 S 
ATOM      9  C   LIG    1       68.633  47.989 100.521  0.00  0.00    +0.069 C 
ATOM     10  C   LIG    1       68.300  47.402  99.155  0.00  0.00    +0.112 C 
ATOM     11  S   LIG    1       67.519  45.795  99.625  0.00  0.00    -0.057 S 
ATOM     12  C   LIG    1       68.168  45.832 101.250  0.00  0.00    +0.277 C 
ATOM     13  O   LIG    1       68.028  44.947 102.062  0.00  0.00    -0.263 OA
ATOM     14  N   LIG    1       68.754  47.037 101.488  0.00  0.00    -0.273 N 
ATOM     15  H   LIG    1       68.971  47.274 102.445  0.00  0.00    +0.156 HD
ENDBRANCH   7  10
ENDBRANCH   1   7
BRANCH   4  16
ATOM     16  O   LIG    1       69.868  49.805  93.269  0.00  0.00    -0.490 OA
BRANCH  16  17
ATOM     17  C   LIG    1       68.761  49.547  92.397  0.00  0.00    +0.248 C 
BRANCH  17  18
ATOM     18  C   LIG    1       68.275  48.109  92.282  0.00  0.00    +0.147 C 
BRANCH  18  19
ATOM     19  N   LIG    1       66.912  47.851  92.846  0.00  0.00    -0.315 N 
ATOM     20  C   LIG    1       65.992  47.289  91.847  0.00  0.00    +0.131 C 
BRANCH  19  21
ATOM     21  C   LIG    1       66.695  47.289  94.119  0.00  0.00    +0.121 A 
ATOM     22  C   LIG    1       66.195  48.036  95.189  0.00  0.00    +0.043 A 
ATOM     23  C   LIG    1       65.965  47.462  96.443  0.00  0.00    +0.005 A 
ATOM     24  C   LIG    1       66.151  46.105  96.601  0.00  0.00    +0.020 A 
ATOM     25  C   LIG    1       66.572  45.397  95.496  0.00  0.00    +0.113 A 
ATOM     26  N   LIG    1       66.855  45.957  94.292  0.00  0.00    -0.240 NA
ENDBRANCH  19  21
ENDBRANCH  18  19
ENDBRANCH  17  18
ENDBRANCH  16  17
ENDBRANCH   4  16
TORSDOF 7
ENDMDL
MODEL 5
REMARK VINA RESULT:      -6.8      2.211      4.132
REMARK  Name = 
REMARK                            x       y       z     vdW  Elec       q    Type
REMARK                         _______ _______ _______ _____ _____    ______ ____
ROOT
ATOM      1  C   LIG    1       68.339  49.032  96.980  0.00  0.00    -0.046 A 
ATOM      2  C   LIG    1       69.490  48.331  97.326  0.00  0.00    +0.007 A 
ATOM      3  C   LIG    1       69.682  47.890  98.630  0.00  0.00    +0.046 A 
ATOM      4  C   LIG    1       68.764  48.180  99.646  0.00  0.00    +0.121 A 
ATOM      5  C   LIG    1       67.639  48.936  99.320  0.00  0.00    +0.046 A 
ATOM      6  C   LIG    1       67.421  49.351  97.992  0.00  0.00    +0.007 A 
ENDROOT
BRANCH   1   7
ATOM      7  C   LIG    1       68.127  49.422  95.536  0.00  0.00    +0.056 C 
BRANCH   7  10
ATOM      8  S   LIG    1       70.951  47.234  94.474  0.00  0.00    -0.039 S 
ATOM      9  C   LIG    1       69.685  48.152  93.902  0.00  0.00    +0.069 C 
ATOM     10  C   LIG    1       68.302  48.264  94.532  0.00  0.00    +0.112 C 
ATOM     11  S   LIG    1       67.264  48.692  93.065  0.00  0.00    -0.057 S 
ATOM     12  C   LIG    1       68.639  49.176  92.097  0.00  0.00    +0.277 C 
ATOM     13  O   LIG    1       68.562  49.636  90.982  0.00  0.00    -0.263 OA
ATOM     14  N   LIG    1       69.795  48.858  92.742  0.00  0.00    -0.273 N 
ATOM     15  H   LIG    1       70.652  48.879  92.210  0.00  0.00    +0.156 HD
ENDBRANCH   7  10
ENDBRANCH   1   7
BRANCH   4  16
ATOM     16  O   LIG    1       68.893  47.764 100.963  0.00  0.00    -0.490 OA
BRANCH  16  17
ATOM     17  C   LIG    1       68.217  46.522 101.193  0.00  0.00    +0.248 C 
BRANCH  17  18
ATOM     18  C   LIG    1       68.375  45.430 100.144  0.00  0.00    +0.147 C 
BRANCH  18  19
ATOM     19  N   LIG    1       67.129  45.091  99.386  0.00  0.00    -0.315 N 
ATOM     20  C   LIG    1       65.910  45.412 100.141  0.00  0.00    +0.131 C 
BRANCH  19  21
ATOM     21  C   LIG    1       66.965  45.351  98.011  0.00  0.00    +0.121 A 
ATOM     22  C   LIG    1       67.680  44.659  97.030  0.00  0.00    +0.043 A 
ATOM     23  C   LIG    1       67.493  44.912  95.668  0.00  0.00    +0.005 A 
ATOM     24  C   LIG    1       66.515  45.803  95.281  0.00  0.00    +0.020 A 
ATOM     25  C   LIG    1       65.785  46.406  96.283  0.00  0.00    +0.113 A 
ATOM     26  N   LIG    1       66.000  46.210  97.609  0.00  0.00    -0.240 NA
ENDBRANCH  19  21
ENDBRANCH  18  19
ENDBRANCH  17  18
ENDBRANCH  16  17
ENDBRANCH   4  16
TORSDOF 7
ENDMDL
MODEL 6
REMARK VINA RESULT:      -6.7      1.633      1.891
REMARK  Name = 
REMARK                            x       y       z     vdW  Elec       q    Type
REMARK                         _______ _______ _______ _____ _____    ______ ____
ROOT
ATOM      1  C   LIG    1       66.659  46.934  95.167  0.00  0.00    -0.046 A 
ATOM      2  C   LIG    1       67.279  45.689  95.183  0.00  0.00    +0.007 A 
ATOM      3  C   LIG    1       67.259  44.905  96.331  0.00  0.00    +0.046 A 
ATOM      4  C   LIG    1       66.669  45.356  97.518  0.00  0.00    +0.121 A 
ATOM      5  C   LIG    1       66.101  46.629  97.527  0.00  0.00    +0.046 A 
ATOM      6  C   LIG    1       66.085  47.410  96.356  0.00  0.00    +0.007 A 
ENDROOT
BRANCH   1   7
ATOM      7  C   LIG    1       66.631  47.720  93.877  0.00  0.00    +0.056 C 
BRANCH   7  10
ATOM      8  S   LIG    1       68.732  49.313  91.245  0.00  0.00    -0.039 S 
ATOM      9  C   LIG    1       68.752  48.759  92.814  0.00  0.00    +0.069 C 
ATOM     10  C   LIG    1       67.624  48.899  93.829  0.00  0.00    +0.112 C 
ATOM     11  S   LIG    1       68.556  48.855  95.423  0.00  0.00    -0.057 S 
ATOM     12  C   LIG    1       69.991  48.170  94.691  0.00  0.00    +0.277 C 
ATOM     13  O   LIG    1       70.982  47.846  95.302  0.00  0.00    -0.263 OA
ATOM     14  N   LIG    1       69.859  48.159  93.336  0.00  0.00    -0.273 N 
ATOM     15  H   LIG    1       70.688  47.999  92.784  0.00  0.00    +0.156 HD
ENDBRANCH   7  10
ENDBRANCH   1   7
BRANCH   4  16
ATOM     16  O   LIG    1       66.609  44.621  98.693  0.00  0.00    -0.490 OA
BRANCH  16  17
ATOM     17  C   LIG    1       66.299  45.451  99.819  0.00  0.00    +0.248 C 
BRANCH  17  18
ATOM     18  C   LIG    1       67.344  45.560 100.921  0.00  0.00    +0.147 C 
BRANCH  18  19
ATOM     19  N   LIG    1       68.646  46.170 100.505  0.00  0.00    -0.315 N 
ATOM     20  C   LIG    1       69.493  45.228  99.759  0.00  0.00    +0.131 C 
BRANCH  19  21
ATOM     21  C   LIG    1       68.760  47.478  99.995  0.00  0.00    +0.121 A 
ATOM     22  C   LIG    1       68.092  48.564 100.566  0.00  0.00    +0.043 A 
ATOM     23  C   LIG    1       68.230  49.861 100.062  0.00  0.00    +0.005 A 
ATOM     24  C   LIG    1       69.117  50.087  99.031  0.00  0.00    +0.020 A 
ATOM     25  C   LIG    1       69.809  48.996  98.550  0.00  0.00    +0.113 A 
ATOM     26  N   LIG    1       69.637  47.725  98.994  0.00  0.00    -0.240 NA
ENDBRANCH  19  21
ENDBRANCH  18  19
ENDBRANCH  17  18
ENDBRANCH  16  17
ENDBRANCH   4  16
TORSDOF 7
ENDMDL
MODEL 7
REMARK VINA RESULT:      -6.7      2.598      5.714
REMARK  Name = 
REMARK                            x       y       z     vdW  Elec       q    Type
REMARK                         _______ _______ _______ _____ _____    ______ ____
ROOT
ATOM      1  C   LIG    1       66.298  45.947  98.231  0.00  0.00    -0.046 A 
ATOM      2  C   LIG    1       65.843  47.033  97.490  0.00  0.00    +0.007 A 
ATOM      3  C   LIG    1       65.988  47.056  96.108  0.00  0.00    +0.046 A 
ATOM      4  C   LIG    1       66.642  46.025  95.421  0.00  0.00    +0.121 A 
ATOM      5  C   LIG    1       67.157  44.964  96.164  0.00  0.00    +0.046 A 
ATOM      6  C   LIG    1       66.977  44.919  97.559  0.00  0.00    +0.007 A 
ENDROOT
BRANCH   1   7
ATOM      7  C   LIG    1       66.048  45.922  99.720  0.00  0.00    +0.056 C 
BRANCH   7  10
ATOM      8  S   LIG    1       67.742  49.236  99.535  0.00  0.00    -0.039 S 
ATOM      9  C   LIG    1       68.011  47.610  99.776  0.00  0.00    +0.069 C 
ATOM     10  C   LIG    1       67.113  46.659 100.557  0.00  0.00    +0.112 C 
ATOM     11  S   LIG    1       68.324  45.374 101.100  0.00  0.00    -0.057 S 
ATOM     12  C   LIG    1       69.527  45.855  99.924  0.00  0.00    +0.277 C 
ATOM     13  O   LIG    1       70.584  45.293  99.759  0.00  0.00    -0.263 OA
ATOM     14  N   LIG    1       69.140  47.006  99.310  0.00  0.00    -0.273 N 
ATOM     15  H   LIG    1       69.832  47.510  98.775  0.00  0.00    +0.156 HD
ENDBRANCH   7  10
ENDBRANCH   1   7
BRANCH   4  16
ATOM     16  O   LIG    1       66.813  45.984  94.046  0.00  0.00    -0.490 OA
BRANCH  16  17
ATOM     17  C   LIG    1       66.168  47.089  93.400  0.00  0.00    +0.248 C 
BRANCH  17  18
ATOM     18  C   LIG    1       66.915  47.776  92.267  0.00  0.00    +0.147 C 
BRANCH  18  19
ATOM     19  N   LIG    1       68.309  48.214  92.597  0.00  0.00    -0.315 N 
ATOM     20  C   LIG    1       68.785  49.282  91.706  0.00  0.00    +0.131 C 
BRANCH  19  21
ATOM     21  C   LIG    1       68.770  48.400  93.914  0.00  0.00    +0.121 A 
ATOM     22  C   LIG    1       69.749  47.582  94.486  0.00  0.00    +0.043 A 
ATOM     23  C   LIG    1       70.212  47.790  95.788  0.00  0.00    +0.005 A 
ATOM     24  C   LIG    1       69.757  48.884  96.494  0.00  0.00    +0.020 A 
ATOM     25  C   LIG    1       68.848  49.704  95.860  0.00  0.00    +0.113 A 
ATOM     26  N   LIG    1       68.348  49.476  94.619  0.00  0.00    -0.240 NA
ENDBRANCH  19  21
ENDBRANCH  18  19
ENDBRANCH  17  18
ENDBRANCH  16  17
ENDBRANCH   4  16
TORSDOF 7
ENDMDL
MODEL 8
REMARK VINA RESULT:      -6.5      1.769      2.462
REMARK  Name = 
REMARK                            x       y       z     vdW  Elec       q    Type
REMARK                         _______ _______ _______ _____ _____    ______ ____
ROOT
ATOM      1  C   LIG    1       69.602  47.430  95.378  0.00  0.00    -0.046 A 
ATOM      2  C   LIG    1       68.881  46.301  95.003  0.00  0.00    +0.007 A 
ATOM      3  C   LIG    1       68.356  45.447  95.966  0.00  0.00    +0.046 A 
ATOM      4  C   LIG    1       68.577  45.656  97.332  0.00  0.00    +0.121 A 
ATOM      5  C   LIG    1       69.352  46.750  97.713  0.00  0.00    +0.046 A 
ATOM      6  C   LIG    1       69.853  47.639  96.743  0.00  0.00    +0.007 A 
ENDROOT
BRANCH   1   7
ATOM      7  C   LIG    1       70.086  48.378  94.306  0.00  0.00    +0.056 C 
BRANCH   7  10
ATOM      8  S   LIG    1       67.279  50.266  95.869  0.00  0.00    -0.039 S 
ATOM      9  C   LIG    1       67.691  49.332  94.554  0.00  0.00    +0.069 C 
ATOM     10  C   LIG    1       69.018  49.371  93.806  0.00  0.00    +0.112 C 
ATOM     11  S   LIG    1       68.513  48.785  92.129  0.00  0.00    -0.057 S 
ATOM     12  C   LIG    1       67.004  48.109  92.701  0.00  0.00    +0.277 C 
ATOM     13  O   LIG    1       66.223  47.498  92.010  0.00  0.00    -0.263 OA
ATOM     14  N   LIG    1       66.800  48.464  93.999  0.00  0.00    -0.273 N 
ATOM     15  H   LIG    1       65.876  48.330  94.384  0.00  0.00    +0.156 HD
ENDBRANCH   7  10
ENDBRANCH   1   7
BRANCH   4  16
ATOM     16  O   LIG    1       68.076  44.847  98.341  0.00  0.00    -0.490 OA
BRANCH  16  17
ATOM     17  C   LIG    1       66.645  44.906  98.403  0.00  0.00    +0.248 C 
BRANCH  17  18
ATOM     18  C   LIG    1       66.015  45.313  99.728  0.00  0.00    +0.147 C 
BRANCH  18  19
ATOM     19  N   LIG    1       66.925  46.040 100.669  0.00  0.00    -0.315 N 
ATOM     20  C   LIG    1       67.924  45.151 101.279  0.00  0.00    +0.131 C 
BRANCH  19  21
ATOM     21  C   LIG    1       67.467  47.310 100.395  0.00  0.00    +0.121 A 
ATOM     22  C   LIG    1       68.690  47.731 100.924  0.00  0.00    +0.043 A 
ATOM     23  C   LIG    1       69.226  48.987 100.628  0.00  0.00    +0.005 A 
ATOM     24  C   LIG    1       68.575  49.796  99.721  0.00  0.00    +0.020 A 
ATOM     25  C   LIG    1       67.410  49.307  99.168  0.00  0.00    +0.113 A 
ATOM     26  N   LIG    1       66.852  48.113  99.495  0.00  0.00    -0.240 NA
ENDBRANCH  19  21
ENDBRANCH  18  19
ENDBRANCH  17  18
ENDBRANCH  16  17
ENDBRANCH   4  16
TORSDOF 7
ENDMDL
MODEL 9
REMARK VINA RESULT:      -6.1      2.843      5.792
REMARK  Name = 
REMARK                            x       y       z     vdW  Elec       q    Type
REMARK                         _______ _______ _______ _____ _____    ______ ____
ROOT
ATOM      1  C   LIG    1       68.153  45.924  97.531  0.00  0.00    -0.046 A 
ATOM      2  C   LIG    1       67.674  47.200  97.253  0.00  0.00    +0.007 A 
ATOM      3  C   LIG    1       66.797  47.410  96.196  0.00  0.00    +0.046 A 
ATOM      4  C   LIG    1       66.410  46.369  95.344  0.00  0.00    +0.121 A 
ATOM      5  C   LIG    1       66.935  45.099  95.578  0.00  0.00    +0.046 A 
ATOM      6  C   LIG    1       67.793  44.874  96.671  0.00  0.00    +0.007 A 
ENDROOT
BRANCH   1   7
ATOM      7  C   LIG    1       69.038  45.721  98.738  0.00  0.00    +0.056 C 
BRANCH   7  10
ATOM      8  S   LIG    1       65.639  45.064 100.115  0.00  0.00    -0.039 S 
ATOM      9  C   LIG    1       66.836  46.215 100.008  0.00  0.00    +0.069 C 
ATOM     10  C   LIG    1       68.336  45.961 100.090  0.00  0.00    +0.112 C 
ATOM     11  S   LIG    1       68.952  47.588 100.710  0.00  0.00    -0.057 S 
ATOM     12  C   LIG    1       67.480  48.432 100.279  0.00  0.00    +0.277 C 
ATOM     13  O   LIG    1       67.313  49.622 100.405  0.00  0.00    -0.263 OA
ATOM     14  N   LIG    1       66.532  47.538  99.887  0.00  0.00    -0.273 N 
ATOM     15  H   LIG    1       65.578  47.862  99.822  0.00  0.00    +0.156 HD
ENDBRANCH   7  10
ENDBRANCH   1   7
BRANCH   4  16
ATOM     16  O   LIG    1       65.534  46.511  94.278  0.00  0.00    -0.490 OA
BRANCH  16  17
ATOM     17  C   LIG    1       66.231  46.569  93.027  0.00  0.00    +0.248 C 
BRANCH  17  18
ATOM     18  C   LIG    1       66.620  47.944  92.503  0.00  0.00    +0.147 C 
BRANCH  18  19
ATOM     19  N   LIG    1       68.091  48.224  92.482  0.00  0.00    -0.315 N 
ATOM     20  C   LIG    1       68.454  49.230  91.474  0.00  0.00    +0.131 C 
BRANCH  19  21
ATOM     21  C   LIG    1       68.869  48.359  93.648  0.00  0.00    +0.121 A 
ATOM     22  C   LIG    1       69.814  47.403  94.031  0.00  0.00    +0.043 A 
ATOM     23  C   LIG    1       70.595  47.559  95.180  0.00  0.00    +0.005 A 
ATOM     24  C   LIG    1       70.493  48.729  95.904  0.00  0.00    +0.020 A 
ATOM     25  C   LIG    1       69.601  49.675  95.444  0.00  0.00    +0.113 A 
ATOM     26  N   LIG    1       68.797  49.505  94.364  0.00  0.00    -0.240 NA
ENDBRANCH  19  21
ENDBRANCH  18  19
ENDBRANCH  17  18
ENDBRANCH  16  17
ENDBRANCH   4  16
TORSDOF 7
ENDMDL
