MODEL 1
REMARK VINA RESULT:      -8.8      0.000      0.000
REMARK  Name = 
REMARK                            x       y       z     vdW  Elec       q    Type
REMARK                         _______ _______ _______ _____ _____    ______ ____
ROOT
ATOM      1  C   LIG    1       38.582  32.197   8.195  0.00  0.00    -0.046 A 
ATOM      2  C   LIG    1       39.158  32.810   7.088  0.00  0.00    +0.007 A 
ATOM      3  C   LIG    1       38.782  34.096   6.718  0.00  0.00    +0.046 A 
ATOM      4  C   LIG    1       37.779  34.794   7.403  0.00  0.00    +0.121 A 
ATOM      5  C   LIG    1       37.152  34.160   8.475  0.00  0.00    +0.046 A 
ATOM      6  C   LIG    1       37.558  32.873   8.876  0.00  0.00    +0.007 A 
ENDROOT
BRANCH   1   7
ATOM      7  C   LIG    1       39.076  30.832   8.614  0.00  0.00    +0.056 C 
BRANCH   7  10
ATOM      8  S   LIG    1       41.668  29.983   6.075  0.00  0.00    -0.039 S 
ATOM      9  C   LIG    1       41.170  29.667   7.633  0.00  0.00    +0.069 C 
ATOM     10  C   LIG    1       40.611  30.685   8.619  0.00  0.00    +0.112 C 
ATOM     11  S   LIG    1       41.050  29.909  10.237  0.00  0.00    -0.057 S 
ATOM     12  C   LIG    1       41.326  28.333   9.529  0.00  0.00    +0.277 C 
ATOM     13  O   LIG    1       41.602  27.339  10.159  0.00  0.00    -0.263 OA
ATOM     14  N   LIG    1       41.288  28.421   8.171  0.00  0.00    -0.273 N 
ATOM     15  H   LIG    1       41.645  27.642   7.638  0.00  0.00    +0.156 HD
ENDBRANCH   7  10
ENDBRANCH   1   7
BRANCH   4  16
ATOM     16  O   LIG    1       37.363  36.079   7.089  0.00  0.00    -0.490 OA
BRANCH  16  17
ATOM     17  C   LIG    1       37.725  36.439   5.750  0.00  0.00    +0.248 C 
BRANCH  17  18
ATOM     18  C   LIG    1       36.615  36.924   4.829  0.00  0.00    +0.147 C 
BRANCH  18  19
ATOM     19  N   LIG    1       36.246  35.982   3.726  0.00  0.00    -0.315 N 
ATOM     20  C   LIG    1       36.882  34.665   3.879  0.00  0.00    +0.131 C 
BRANCH  19  21
ATOM     21  C   LIG    1       34.940  35.865   3.211  0.00  0.00    +0.121 A 
ATOM     22  C   LIG    1       34.426  34.652   2.745  0.00  0.00    +0.043 A 
ATOM     23  C   LIG    1       33.121  34.545   2.255  0.00  0.00    +0.005 A 
ATOM     24  C   LIG    1       32.292  35.645   2.318  0.00  0.00    +0.020 A 
ATOM     25  C   LIG    1       32.820  36.799   2.855  0.00  0.00    +0.113 A 
ATOM     26  N   LIG    1       34.104  36.927   3.278  0.00  0.00    -0.240 NA
ENDBRANCH  19  21
ENDBRANCH  18  19
ENDBRANCH  17  18
ENDBRANCH  16  17
ENDBRANCH   4  16
TORSDOF 7
ENDMDL
MODEL 2
REMARK VINA RESULT:      -8.6      3.364      5.181
REMARK  Name = 
REMARK                            x       y       z     vdW  Elec       q    Type
REMARK                         _______ _______ _______ _____ _____    ______ ____
ROOT
ATOM      1  C   LIG    1       39.549  27.745  10.436  0.00  0.00    -0.046 A 
ATOM      2  C   LIG    1       38.503  27.386   9.592  0.00  0.00    +0.007 A 
ATOM      3  C   LIG    1       37.759  28.359   8.936  0.00  0.00    +0.046 A 
ATOM      4  C   LIG    1       37.992  29.724   9.141  0.00  0.00    +0.121 A 
ATOM      5  C   LIG    1       38.997  30.093  10.034  0.00  0.00    +0.046 A 
ATOM      6  C   LIG    1       39.779  29.109  10.670  0.00  0.00    +0.007 A 
ENDROOT
BRANCH   1   7
ATOM      7  C   LIG    1       40.387  26.658  11.065  0.00  0.00    +0.056 C 
BRANCH   7  10
ATOM      8  S   LIG    1       43.965  26.392  10.059  0.00  0.00    -0.039 S 
ATOM      9  C   LIG    1       42.928  26.250  11.353  0.00  0.00    +0.069 C 
ATOM     10  C   LIG    1       41.730  27.145  11.646  0.00  0.00    +0.112 C 
ATOM     11  S   LIG    1       41.589  26.983  13.480  0.00  0.00    -0.057 S 
ATOM     12  C   LIG    1       42.574  25.538  13.537  0.00  0.00    +0.277 C 
ATOM     13  O   LIG    1       42.797  24.902  14.541  0.00  0.00    -0.263 OA
ATOM     14  N   LIG    1       43.128  25.306  12.316  0.00  0.00    -0.273 N 
ATOM     15  H   LIG    1       43.885  24.641  12.261  0.00  0.00    +0.156 HD
ENDBRANCH   7  10
ENDBRANCH   1   7
BRANCH   4  16
ATOM     16  O   LIG    1       37.292  30.743   8.513  0.00  0.00    -0.490 OA
BRANCH  16  17
ATOM     17  C   LIG    1       37.826  32.031   8.842  0.00  0.00    +0.248 C 
BRANCH  17  18
ATOM     18  C   LIG    1       37.302  33.230   8.063  0.00  0.00    +0.147 C 
BRANCH  18  19
ATOM     19  N   LIG    1       38.298  33.885   7.158  0.00  0.00    -0.315 N 
ATOM     20  C   LIG    1       39.254  32.923   6.589  0.00  0.00    +0.131 C 
BRANCH  19  21
ATOM     21  C   LIG    1       37.957  34.883   6.224  0.00  0.00    +0.121 A 
ATOM     22  C   LIG    1       38.250  36.233   6.434  0.00  0.00    +0.043 A 
ATOM     23  C   LIG    1       37.923  37.212   5.490  0.00  0.00    +0.005 A 
ATOM     24  C   LIG    1       37.380  36.823   4.284  0.00  0.00    +0.020 A 
ATOM     25  C   LIG    1       37.178  35.472   4.094  0.00  0.00    +0.113 A 
ATOM     26  N   LIG    1       37.437  34.522   5.028  0.00  0.00    -0.240 NA
ENDBRANCH  19  21
ENDBRANCH  18  19
ENDBRANCH  17  18
ENDBRANCH  16  17
ENDBRANCH   4  16
TORSDOF 7
ENDMDL
MODEL 3
REMARK VINA RESULT:      -8.6      3.066      5.063
REMARK  Name = 
REMARK                            x       y       z     vdW  Elec       q    Type
REMARK                         _______ _______ _______ _____ _____    ______ ____
ROOT
ATOM      1  C   LIG    1       40.636  29.193  11.032  0.00  0.00    -0.046 A 
ATOM      2  C   LIG    1       39.365  28.629  11.039  0.00  0.00    +0.007 A 
ATOM      3  C   LIG    1       38.283  29.321  10.509  0.00  0.00    +0.046 A 
ATOM      4  C   LIG    1       38.417  30.620  10.004  0.00  0.00    +0.121 A 
ATOM      5  C   LIG    1       39.676  31.216  10.051  0.00  0.00    +0.046 A 
ATOM      6  C   LIG    1       40.782  30.504  10.552  0.00  0.00    +0.007 A 
ENDROOT
BRANCH   1   7
ATOM      7  C   LIG    1       41.801  28.378  11.541  0.00  0.00    +0.056 C 
BRANCH   7  10
ATOM      8  S   LIG    1       42.197  24.981  13.022  0.00  0.00    -0.039 S 
ATOM      9  C   LIG    1       42.722  25.970  11.790  0.00  0.00    +0.069 C 
ATOM     10  C   LIG    1       41.861  26.939  10.989  0.00  0.00    +0.112 C 
ATOM     11  S   LIG    1       42.797  27.035   9.399  0.00  0.00    -0.057 S 
ATOM     12  C   LIG    1       44.261  26.375  10.096  0.00  0.00    +0.277 C 
ATOM     13  O   LIG    1       45.305  26.249   9.501  0.00  0.00    -0.263 OA
ATOM     14  N   LIG    1       44.014  25.934  11.360  0.00  0.00    -0.273 N 
ATOM     15  H   LIG    1       44.703  25.337  11.793  0.00  0.00    +0.156 HD
ENDBRANCH   7  10
ENDBRANCH   1   7
BRANCH   4  16
ATOM     16  O   LIG    1       37.380  31.360   9.456  0.00  0.00    -0.490 OA
BRANCH  16  17
ATOM     17  C   LIG    1       37.729  32.744   9.331  0.00  0.00    +0.248 C 
BRANCH  17  18
ATOM     18  C   LIG    1       37.174  33.503   8.134  0.00  0.00    +0.147 C 
BRANCH  18  19
ATOM     19  N   LIG    1       38.205  34.082   7.215  0.00  0.00    -0.315 N 
ATOM     20  C   LIG    1       39.155  33.070   6.732  0.00  0.00    +0.131 C 
BRANCH  19  21
ATOM     21  C   LIG    1       37.906  35.026   6.213  0.00  0.00    +0.121 A 
ATOM     22  C   LIG    1       38.269  36.371   6.321  0.00  0.00    +0.043 A 
ATOM     23  C   LIG    1       37.983  37.293   5.310  0.00  0.00    +0.005 A 
ATOM     24  C   LIG    1       37.410  36.846   4.139  0.00  0.00    +0.020 A 
ATOM     25  C   LIG    1       37.138  35.497   4.049  0.00  0.00    +0.113 A 
ATOM     26  N   LIG    1       37.357  34.606   5.049  0.00  0.00    -0.240 NA
ENDBRANCH  19  21
ENDBRANCH  18  19
ENDBRANCH  17  18
ENDBRANCH  16  17
ENDBRANCH   4  16
TORSDOF 7
ENDMDL
MODEL 4
REMARK VINA RESULT:      -8.3      5.014     10.486
REMARK  Name = 
REMARK                            x       y       z     vdW  Elec       q    Type
REMARK                         _______ _______ _______ _____ _____    ______ ____
ROOT
ATOM      1  C   LIG    1       40.782  29.986  11.174  0.00  0.00    -0.046 A 
ATOM      2  C   LIG    1       42.168  29.881  11.158  0.00  0.00    +0.007 A 
ATOM      3  C   LIG    1       42.827  29.082  12.086  0.00  0.00    +0.046 A 
ATOM      4  C   LIG    1       42.132  28.406  13.096  0.00  0.00    +0.121 A 
ATOM      5  C   LIG    1       40.748  28.557  13.157  0.00  0.00    +0.046 A 
ATOM      6  C   LIG    1       40.074  29.333  12.195  0.00  0.00    +0.007 A 
ENDROOT
BRANCH   1   7
ATOM      7  C   LIG    1       40.098  30.797  10.099  0.00  0.00    +0.056 C 
BRANCH   7  10
ATOM      8  S   LIG    1       37.226  28.563   9.294  0.00  0.00    -0.039 S 
ATOM      9  C   LIG    1       37.767  30.133   9.185  0.00  0.00    +0.069 C 
ATOM     10  C   LIG    1       38.565  30.883  10.245  0.00  0.00    +0.112 C 
ATOM     11  S   LIG    1       38.109  32.635   9.878  0.00  0.00    -0.057 S 
ATOM     12  C   LIG    1       37.510  32.258   8.277  0.00  0.00    +0.277 C 
ATOM     13  O   LIG    1       37.107  33.079   7.487  0.00  0.00    -0.263 OA
ATOM     14  N   LIG    1       37.468  30.908   8.105  0.00  0.00    -0.273 N 
ATOM     15  H   LIG    1       36.942  30.550   7.321  0.00  0.00    +0.156 HD
ENDBRANCH   7  10
ENDBRANCH   1   7
BRANCH   4  16
ATOM     16  O   LIG    1       42.728  27.589  14.046  0.00  0.00    -0.490 OA
BRANCH  16  17
ATOM     17  C   LIG    1       42.063  26.324  14.145  0.00  0.00    +0.248 C 
BRANCH  17  18
ATOM     18  C   LIG    1       42.536  25.207  13.226  0.00  0.00    +0.147 C 
BRANCH  18  19
ATOM     19  N   LIG    1       41.737  25.033  11.972  0.00  0.00    -0.315 N 
ATOM     20  C   LIG    1       40.292  24.965  12.235  0.00  0.00    +0.131 C 
BRANCH  19  21
ATOM     21  C   LIG    1       42.009  25.728  10.778  0.00  0.00    +0.121 A 
ATOM     22  C   LIG    1       41.016  26.402  10.062  0.00  0.00    +0.043 A 
ATOM     23  C   LIG    1       41.304  27.105   8.888  0.00  0.00    +0.005 A 
ATOM     24  C   LIG    1       42.615  27.210   8.476  0.00  0.00    +0.020 A 
ATOM     25  C   LIG    1       43.569  26.591   9.255  0.00  0.00    +0.113 A 
ATOM     26  N   LIG    1       43.291  25.857  10.363  0.00  0.00    -0.240 NA
ENDBRANCH  19  21
ENDBRANCH  18  19
ENDBRANCH  17  18
ENDBRANCH  16  17
ENDBRANCH   4  16
TORSDOF 7
ENDMDL
MODEL 5
REMARK VINA RESULT:      -8.3      3.111      4.972
REMARK  Name = 
REMARK                            x       y       z     vdW  Elec       q    Type
REMARK                         _______ _______ _______ _____ _____    ______ ____
ROOT
ATOM      1  C   LIG    1       41.343  28.655   9.717  0.00  0.00    -0.046 A 
ATOM      2  C   LIG    1       41.287  29.490  10.829  0.00  0.00    +0.007 A 
ATOM      3  C   LIG    1       40.387  30.548  10.873  0.00  0.00    +0.046 A 
ATOM      4  C   LIG    1       39.550  30.845   9.791  0.00  0.00    +0.121 A 
ATOM      5  C   LIG    1       39.644  30.052   8.649  0.00  0.00    +0.046 A 
ATOM      6  C   LIG    1       40.527  28.956   8.615  0.00  0.00    +0.007 A 
ENDROOT
BRANCH   1   7
ATOM      7  C   LIG    1       42.276  27.468   9.740  0.00  0.00    +0.056 C 
BRANCH   7  10
ATOM      8  S   LIG    1       38.759  26.265  10.003  0.00  0.00    -0.039 S 
ATOM      9  C   LIG    1       40.234  26.255  10.774  0.00  0.00    +0.069 C 
ATOM     10  C   LIG    1       41.596  26.131  10.104  0.00  0.00    +0.112 C 
ATOM     11  S   LIG    1       42.608  25.390  11.459  0.00  0.00    -0.057 S 
ATOM     12  C   LIG    1       41.457  25.825  12.703  0.00  0.00    +0.277 C 
ATOM     13  O   LIG    1       41.623  25.633  13.885  0.00  0.00    -0.263 OA
ATOM     14  N   LIG    1       40.319  26.307  12.133  0.00  0.00    -0.273 N 
ATOM     15  H   LIG    1       39.499  26.388  12.716  0.00  0.00    +0.156 HD
ENDBRANCH   7  10
ENDBRANCH   1   7
BRANCH   4  16
ATOM     16  O   LIG    1       38.626  31.880   9.775  0.00  0.00    -0.490 OA
BRANCH  16  17
ATOM     17  C   LIG    1       37.840  31.866   8.577  0.00  0.00    +0.248 C 
BRANCH  17  18
ATOM     18  C   LIG    1       37.377  33.207   8.024  0.00  0.00    +0.147 C 
BRANCH  18  19
ATOM     19  N   LIG    1       38.339  33.878   7.094  0.00  0.00    -0.315 N 
ATOM     20  C   LIG    1       39.294  32.932   6.500  0.00  0.00    +0.131 C 
BRANCH  19  21
ATOM     21  C   LIG    1       37.958  34.871   6.172  0.00  0.00    +0.121 A 
ATOM     22  C   LIG    1       38.230  36.227   6.379  0.00  0.00    +0.043 A 
ATOM     23  C   LIG    1       37.864  37.201   5.445  0.00  0.00    +0.005 A 
ATOM     24  C   LIG    1       37.302  36.805   4.250  0.00  0.00    +0.020 A 
ATOM     25  C   LIG    1       37.122  35.452   4.060  0.00  0.00    +0.113 A 
ATOM     26  N   LIG    1       37.420  34.504   4.986  0.00  0.00    -0.240 NA
ENDBRANCH  19  21
ENDBRANCH  18  19
ENDBRANCH  17  18
ENDBRANCH  16  17
ENDBRANCH   4  16
TORSDOF 7
ENDMDL
MODEL 6
REMARK VINA RESULT:      -8.2      3.440     10.445
REMARK  Name = 
REMARK                            x       y       z     vdW  Elec       q    Type
REMARK                         _______ _______ _______ _____ _____    ______ ____
ROOT
ATOM      1  C   LIG    1       38.181  33.477   7.185  0.00  0.00    -0.046 A 
ATOM      2  C   LIG    1       39.360  33.063   6.573  0.00  0.00    +0.007 A 
ATOM      3  C   LIG    1       39.921  31.830   6.884  0.00  0.00    +0.046 A 
ATOM      4  C   LIG    1       39.360  30.992   7.855  0.00  0.00    +0.121 A 
ATOM      5  C   LIG    1       38.214  31.428   8.518  0.00  0.00    +0.046 A 
ATOM      6  C   LIG    1       37.621  32.659   8.178  0.00  0.00    +0.007 A 
ENDROOT
BRANCH   1   7
ATOM      7  C   LIG    1       37.558  34.786   6.761  0.00  0.00    +0.056 C 
BRANCH   7  10
ATOM      8  S   LIG    1       38.676  38.029   5.306  0.00  0.00    -0.039 S 
ATOM      9  C   LIG    1       37.668  36.729   5.052  0.00  0.00    +0.069 C 
ATOM     10  C   LIG    1       37.988  35.272   5.362  0.00  0.00    +0.112 C 
ATOM     11  S   LIG    1       36.902  34.392   4.154  0.00  0.00    -0.057 S 
ATOM     12  C   LIG    1       35.899  35.797   3.867  0.00  0.00    +0.277 C 
ATOM     13  O   LIG    1       34.919  35.804   3.160  0.00  0.00    -0.263 OA
ATOM     14  N   LIG    1       36.446  36.887   4.470  0.00  0.00    -0.273 N 
ATOM     15  H   LIG    1       36.096  37.797   4.206  0.00  0.00    +0.156 HD
ENDBRANCH   7  10
ENDBRANCH   1   7
BRANCH   4  16
ATOM     16  O   LIG    1       39.866  29.749   8.206  0.00  0.00    -0.490 OA
BRANCH  16  17
ATOM     17  C   LIG    1       39.817  29.540   9.622  0.00  0.00    +0.248 C 
BRANCH  17  18
ATOM     18  C   LIG    1       41.068  28.995  10.296  0.00  0.00    +0.147 C 
BRANCH  18  19
ATOM     19  N   LIG    1       41.110  27.506  10.453  0.00  0.00    -0.315 N 
ATOM     20  C   LIG    1       41.981  26.864   9.458  0.00  0.00    +0.131 C 
BRANCH  19  21
ATOM     21  C   LIG    1       41.193  26.861  11.702  0.00  0.00    +0.121 A 
ATOM     22  C   LIG    1       41.323  25.475  11.819  0.00  0.00    +0.043 A 
ATOM     23  C   LIG    1       41.425  24.848  13.065  0.00  0.00    +0.005 A 
ATOM     24  C   LIG    1       41.488  25.626  14.202  0.00  0.00    +0.020 A 
ATOM     25  C   LIG    1       41.431  26.993  14.030  0.00  0.00    +0.113 A 
ATOM     26  N   LIG    1       41.272  27.606  12.829  0.00  0.00    -0.240 NA
ENDBRANCH  19  21
ENDBRANCH  18  19
ENDBRANCH  17  18
ENDBRANCH  16  17
ENDBRANCH   4  16
TORSDOF 7
ENDMDL
MODEL 7
REMARK VINA RESULT:      -8.1      4.725     10.600
REMARK  Name = 
REMARK                            x       y       z     vdW  Elec       q    Type
REMARK                         _______ _______ _______ _____ _____    ______ ____
ROOT
ATOM      1  C   LIG    1       40.656  30.368  11.010  0.00  0.00    -0.046 A 
ATOM      2  C   LIG    1       39.842  29.640  11.871  0.00  0.00    +0.007 A 
ATOM      3  C   LIG    1       40.398  28.770  12.801  0.00  0.00    +0.046 A 
ATOM      4  C   LIG    1       41.780  28.551  12.868  0.00  0.00    +0.121 A 
ATOM      5  C   LIG    1       42.597  29.230  11.966  0.00  0.00    +0.046 A 
ATOM      6  C   LIG    1       42.041  30.142  11.049  0.00  0.00    +0.007 A 
ENDROOT
BRANCH   1   7
ATOM      7  C   LIG    1       40.020  31.365  10.070  0.00  0.00    +0.056 C 
BRANCH   7  10
ATOM      8  S   LIG    1       41.457  29.581   7.131  0.00  0.00    -0.039 S 
ATOM      9  C   LIG    1       40.390  30.780   7.575  0.00  0.00    +0.069 C 
ATOM     10  C   LIG    1       39.453  30.747   8.776  0.00  0.00    +0.112 C 
ATOM     11  S   LIG    1       38.099  31.872   8.217  0.00  0.00    -0.057 S 
ATOM     12  C   LIG    1       39.069  32.586   6.947  0.00  0.00    +0.277 C 
ATOM     13  O   LIG    1       38.703  33.490   6.233  0.00  0.00    -0.263 OA
ATOM     14  N   LIG    1       40.240  31.904   6.820  0.00  0.00    -0.273 N 
ATOM     15  H   LIG    1       40.792  32.066   5.991  0.00  0.00    +0.156 HD
ENDBRANCH   7  10
ENDBRANCH   1   7
BRANCH   4  16
ATOM     16  O   LIG    1       42.397  27.704  13.776  0.00  0.00    -0.490 OA
BRANCH  16  17
ATOM     17  C   LIG    1       41.556  26.596  14.120  0.00  0.00    +0.248 C 
BRANCH  17  18
ATOM     18  C   LIG    1       41.900  25.239  13.523  0.00  0.00    +0.147 C 
BRANCH  18  19
ATOM     19  N   LIG    1       41.592  25.089  12.065  0.00  0.00    -0.315 N 
ATOM     20  C   LIG    1       40.157  25.233  11.779  0.00  0.00    +0.131 C 
BRANCH  19  21
ATOM     21  C   LIG    1       42.379  25.657  11.045  0.00  0.00    +0.121 A 
ATOM     22  C   LIG    1       43.767  25.782  11.154  0.00  0.00    +0.043 A 
ATOM     23  C   LIG    1       44.539  26.331  10.126  0.00  0.00    +0.005 A 
ATOM     24  C   LIG    1       43.927  26.673   8.939  0.00  0.00    +0.020 A 
ATOM     25  C   LIG    1       42.567  26.462   8.852  0.00  0.00    +0.113 A 
ATOM     26  N   LIG    1       41.801  25.986   9.867  0.00  0.00    -0.240 NA
ENDBRANCH  19  21
ENDBRANCH  18  19
ENDBRANCH  17  18
ENDBRANCH  16  17
ENDBRANCH   4  16
TORSDOF 7
ENDMDL
MODEL 8
REMARK VINA RESULT:      -8.0      3.361     10.286
REMARK  Name = 
REMARK                            x       y       z     vdW  Elec       q    Type
REMARK                         _______ _______ _______ _____ _____    ______ ____
ROOT
ATOM      1  C   LIG    1       38.829  32.981   6.660  0.00  0.00    -0.046 A 
ATOM      2  C   LIG    1       39.946  32.152   6.642  0.00  0.00    +0.007 A 
ATOM      3  C   LIG    1       40.150  31.220   7.653  0.00  0.00    +0.046 A 
ATOM      4  C   LIG    1       39.280  31.119   8.745  0.00  0.00    +0.121 A 
ATOM      5  C   LIG    1       38.193  31.990   8.802  0.00  0.00    +0.046 A 
ATOM      6  C   LIG    1       37.961  32.909   7.760  0.00  0.00    +0.007 A 
ENDROOT
BRANCH   1   7
ATOM      7  C   LIG    1       38.599  33.923   5.501  0.00  0.00    +0.056 C 
BRANCH   7  10
ATOM      8  S   LIG    1       35.695  34.948   3.404  0.00  0.00    -0.039 S 
ATOM      9  C   LIG    1       36.892  35.531   4.403  0.00  0.00    +0.069 C 
ATOM     10  C   LIG    1       37.395  34.870   5.681  0.00  0.00    +0.112 C 
ATOM     11  S   LIG    1       38.020  36.327   6.628  0.00  0.00    -0.057 S 
ATOM     12  C   LIG    1       38.079  37.357   5.214  0.00  0.00    +0.277 C 
ATOM     13  O   LIG    1       38.495  38.492   5.212  0.00  0.00    -0.263 OA
ATOM     14  N   LIG    1       37.493  36.729   4.159  0.00  0.00    -0.273 N 
ATOM     15  H   LIG    1       37.261  37.286   3.349  0.00  0.00    +0.156 HD
ENDBRANCH   7  10
ENDBRANCH   1   7
BRANCH   4  16
ATOM     16  O   LIG    1       39.423  30.208   9.781  0.00  0.00    -0.490 OA
BRANCH  16  17
ATOM     17  C   LIG    1       40.419  30.630  10.720  0.00  0.00    +0.248 C 
BRANCH  17  18
ATOM     18  C   LIG    1       41.615  29.714  10.936  0.00  0.00    +0.147 C 
BRANCH  18  19
ATOM     19  N   LIG    1       41.340  28.254  10.749  0.00  0.00    -0.315 N 
ATOM     20  C   LIG    1       41.991  27.712   9.547  0.00  0.00    +0.131 C 
BRANCH  19  21
ATOM     21  C   LIG    1       41.353  27.322  11.805  0.00  0.00    +0.121 A 
ATOM     22  C   LIG    1       41.548  27.704  13.135  0.00  0.00    +0.043 A 
ATOM     23  C   LIG    1       41.539  26.771  14.177  0.00  0.00    +0.005 A 
ATOM     24  C   LIG    1       41.241  25.455  13.894  0.00  0.00    +0.020 A 
ATOM     25  C   LIG    1       40.982  25.140  12.577  0.00  0.00    +0.113 A 
ATOM     26  N   LIG    1       41.048  26.028  11.552  0.00  0.00    -0.240 NA
ENDBRANCH  19  21
ENDBRANCH  18  19
ENDBRANCH  17  18
ENDBRANCH  16  17
ENDBRANCH   4  16
TORSDOF 7
ENDMDL
MODEL 9
REMARK VINA RESULT:      -7.7      4.160      6.468
REMARK  Name = 
REMARK                            x       y       z     vdW  Elec       q    Type
REMARK                         _______ _______ _______ _____ _____    ______ ____
ROOT
ATOM      1  C   LIG    1       42.496  27.611  10.214  0.00  0.00    -0.046 A 
ATOM      2  C   LIG    1       42.191  28.757  10.941  0.00  0.00    +0.007 A 
ATOM      3  C   LIG    1       41.538  29.824  10.336  0.00  0.00    +0.046 A 
ATOM      4  C   LIG    1       41.215  29.810   8.974  0.00  0.00    +0.121 A 
ATOM      5  C   LIG    1       41.575  28.691   8.224  0.00  0.00    +0.046 A 
ATOM      6  C   LIG    1       42.202  27.593   8.842  0.00  0.00    +0.007 A 
ENDROOT
BRANCH   1   7
ATOM      7  C   LIG    1       43.133  26.441  10.927  0.00  0.00    +0.056 C 
BRANCH   7  10
ATOM      8  S   LIG    1       39.474  25.859  10.524  0.00  0.00    -0.039 S 
ATOM      9  C   LIG    1       40.714  25.845  11.635  0.00  0.00    +0.069 C 
ATOM     10  C   LIG    1       42.136  25.357  11.387  0.00  0.00    +0.112 C 
ATOM     11  S   LIG    1       42.658  24.863  13.088  0.00  0.00    -0.057 S 
ATOM     12  C   LIG    1       41.376  25.769  13.862  0.00  0.00    +0.277 C 
ATOM     13  O   LIG    1       41.239  25.873  15.058  0.00  0.00    -0.263 OA
ATOM     14  N   LIG    1       40.510  26.239  12.923  0.00  0.00    -0.273 N 
ATOM     15  H   LIG    1       39.616  26.586  13.239  0.00  0.00    +0.156 HD
ENDBRANCH   7  10
ENDBRANCH   1   7
BRANCH   4  16
ATOM     16  O   LIG    1       40.558  30.837   8.312  0.00  0.00    -0.490 OA
BRANCH  16  17
ATOM     17  C   LIG    1       39.388  30.364   7.634  0.00  0.00    +0.248 C 
BRANCH  17  18
ATOM     18  C   LIG    1       38.048  30.547   8.332  0.00  0.00    +0.147 C 
BRANCH  18  19
ATOM     19  N   LIG    1       37.825  31.897   8.938  0.00  0.00    -0.315 N 
ATOM     20  C   LIG    1       38.526  32.057  10.220  0.00  0.00    +0.131 C 
BRANCH  19  21
ATOM     21  C   LIG    1       37.839  33.092   8.192  0.00  0.00    +0.121 A 
ATOM     22  C   LIG    1       37.403  34.309   8.723  0.00  0.00    +0.043 A 
ATOM     23  C   LIG    1       37.441  35.492   7.979  0.00  0.00    +0.005 A 
ATOM     24  C   LIG    1       38.005  35.473   6.721  0.00  0.00    +0.020 A 
ATOM     25  C   LIG    1       38.489  34.264   6.269  0.00  0.00    +0.113 A 
ATOM     26  N   LIG    1       38.402  33.100   6.962  0.00  0.00    -0.240 NA
ENDBRANCH  19  21
ENDBRANCH  18  19
ENDBRANCH  17  18
ENDBRANCH  16  17
ENDBRANCH   4  16
TORSDOF 7
ENDMDL
