MODEL 1
REMARK VINA RESULT:      -7.8      0.000      0.000
REMARK  Name = 
REMARK                            x       y       z     vdW  Elec       q    Type
REMARK                         _______ _______ _______ _____ _____    ______ ____
ROOT
ATOM      1  C   LIG    1        7.177  -2.409  20.514  0.00  0.00    -0.046 A 
ATOM      2  C   LIG    1        6.120  -3.095  21.102  0.00  0.00    +0.007 A 
ATOM      3  C   LIG    1        4.806  -2.736  20.828  0.00  0.00    +0.046 A 
ATOM      4  C   LIG    1        4.499  -1.646  20.004  0.00  0.00    +0.121 A 
ATOM      5  C   LIG    1        5.555  -0.914  19.462  0.00  0.00    +0.046 A 
ATOM      6  C   LIG    1        6.887  -1.299  19.706  0.00  0.00    +0.007 A 
ENDROOT
BRANCH   1   7
ATOM      7  C   LIG    1        8.589  -2.882  20.772  0.00  0.00    +0.056 C 
BRANCH   7  10
ATOM      8  S   LIG    1        8.318  -3.925  24.339  0.00  0.00    -0.039 S 
ATOM      9  C   LIG    1        9.224  -4.120  22.956  0.00  0.00    +0.069 C 
ATOM     10  C   LIG    1        8.683  -4.219  21.535  0.00  0.00    +0.112 C 
ATOM     11  S   LIG    1       10.010  -5.196  20.703  0.00  0.00    -0.057 S 
ATOM     12  C   LIG    1       11.183  -4.882  21.964  0.00  0.00    +0.277 C 
ATOM     13  O   LIG    1       12.334  -5.247  21.933  0.00  0.00    -0.263 OA
ATOM     14  N   LIG    1       10.578  -4.265  23.015  0.00  0.00    -0.273 N 
ATOM     15  H   LIG    1       11.080  -4.224  23.890  0.00  0.00    +0.156 HD
ENDBRANCH   7  10
ENDBRANCH   1   7
BRANCH   4  16
ATOM     16  O   LIG    1        3.212  -1.241  19.685  0.00  0.00    -0.490 OA
BRANCH  16  17
ATOM     17  C   LIG    1        2.227  -2.082  20.297  0.00  0.00    +0.248 C 
BRANCH  17  18
ATOM     18  C   LIG    1        1.224  -1.424  21.234  0.00  0.00    +0.147 C 
BRANCH  18  19
ATOM     19  N   LIG    1        1.689  -1.254  22.646  0.00  0.00    -0.315 N 
ATOM     20  C   LIG    1        1.902   0.158  22.998  0.00  0.00    +0.131 C 
BRANCH  19  21
ATOM     21  C   LIG    1        1.157  -1.979  23.730  0.00  0.00    +0.121 A 
ATOM     22  C   LIG    1        0.406  -1.370  24.740  0.00  0.00    +0.043 A 
ATOM     23  C   LIG    1       -0.134  -2.105  25.800  0.00  0.00    +0.005 A 
ATOM     24  C   LIG    1        0.001  -3.477  25.800  0.00  0.00    +0.020 A 
ATOM     25  C   LIG    1        0.685  -4.039  24.743  0.00  0.00    +0.113 A 
ATOM     26  N   LIG    1        1.264  -3.328  23.742  0.00  0.00    -0.240 NA
ENDBRANCH  19  21
ENDBRANCH  18  19
ENDBRANCH  17  18
ENDBRANCH  16  17
ENDBRANCH   4  16
TORSDOF 7
ENDMDL
MODEL 2
REMARK VINA RESULT:      -7.6      4.799      7.452
REMARK  Name = 
REMARK                            x       y       z     vdW  Elec       q    Type
REMARK                         _______ _______ _______ _____ _____    ______ ____
ROOT
ATOM      1  C   LIG    1       10.316  -3.872  24.965  0.00  0.00    -0.046 A 
ATOM      2  C   LIG    1        8.935  -3.714  25.003  0.00  0.00    +0.007 A 
ATOM      3  C   LIG    1        8.163  -3.978  23.878  0.00  0.00    +0.046 A 
ATOM      4  C   LIG    1        8.743  -4.355  22.661  0.00  0.00    +0.121 A 
ATOM      5  C   LIG    1       10.132  -4.454  22.598  0.00  0.00    +0.046 A 
ATOM      6  C   LIG    1       10.915  -4.225  23.746  0.00  0.00    +0.007 A 
ENDROOT
BRANCH   1   7
ATOM      7  C   LIG    1       11.112  -3.655  26.230  0.00  0.00    +0.056 C 
BRANCH   7  10
ATOM      8  S   LIG    1       14.238  -2.243  24.773  0.00  0.00    -0.039 S 
ATOM      9  C   LIG    1       13.358  -2.366  26.181  0.00  0.00    +0.069 C 
ATOM     10  C   LIG    1       11.840  -2.297  26.299  0.00  0.00    +0.112 C 
ATOM     11  S   LIG    1       11.634  -1.688  28.030  0.00  0.00    -0.057 S 
ATOM     12  C   LIG    1       13.270  -2.108  28.489  0.00  0.00    +0.277 C 
ATOM     13  O   LIG    1       13.720  -1.984  29.604  0.00  0.00    -0.263 OA
ATOM     14  N   LIG    1       13.975  -2.488  27.389  0.00  0.00    -0.273 N 
ATOM     15  H   LIG    1       14.980  -2.544  27.471  0.00  0.00    +0.156 HD
ENDBRANCH   7  10
ENDBRANCH   1   7
BRANCH   4  16
ATOM     16  O   LIG    1        8.030  -4.639  21.506  0.00  0.00    -0.490 OA
BRANCH  16  17
ATOM     17  C   LIG    1        6.690  -4.137  21.577  0.00  0.00    +0.248 C 
BRANCH  17  18
ATOM     18  C   LIG    1        6.097  -3.536  20.310  0.00  0.00    +0.147 C 
BRANCH  18  19
ATOM     19  N   LIG    1        6.561  -2.150  19.985  0.00  0.00    -0.315 N 
ATOM     20  C   LIG    1        6.298  -1.202  21.077  0.00  0.00    +0.131 C 
BRANCH  19  21
ATOM     21  C   LIG    1        7.787  -1.874  19.350  0.00  0.00    +0.121 A 
ATOM     22  C   LIG    1        8.448  -0.652  19.500  0.00  0.00    +0.043 A 
ATOM     23  C   LIG    1        9.674  -0.397  18.879  0.00  0.00    +0.005 A 
ATOM     24  C   LIG    1       10.290  -1.410  18.174  0.00  0.00    +0.020 A 
ATOM     25  C   LIG    1        9.635  -2.621  18.116  0.00  0.00    +0.113 A 
ATOM     26  N   LIG    1        8.416  -2.858  18.666  0.00  0.00    -0.240 NA
ENDBRANCH  19  21
ENDBRANCH  18  19
ENDBRANCH  17  18
ENDBRANCH  16  17
ENDBRANCH   4  16
TORSDOF 7
ENDMDL
MODEL 3
REMARK VINA RESULT:      -7.5      5.963      9.129
REMARK  Name = 
REMARK                            x       y       z     vdW  Elec       q    Type
REMARK                         _______ _______ _______ _____ _____    ______ ____
ROOT
ATOM      1  C   LIG    1        9.729  -4.209  27.587  0.00  0.00    -0.046 A 
ATOM      2  C   LIG    1       10.566  -3.749  26.576  0.00  0.00    +0.007 A 
ATOM      3  C   LIG    1       10.066  -3.505  25.302  0.00  0.00    +0.046 A 
ATOM      4  C   LIG    1        8.729  -3.762  24.976  0.00  0.00    +0.121 A 
ATOM      5  C   LIG    1        7.899  -4.282  25.967  0.00  0.00    +0.046 A 
ATOM      6  C   LIG    1        8.392  -4.495  27.269  0.00  0.00    +0.007 A 
ENDROOT
BRANCH   1   7
ATOM      7  C   LIG    1       10.291  -4.384  28.978  0.00  0.00    +0.056 C 
BRANCH   7  10
ATOM      8  S   LIG    1       11.397  -0.850  29.395  0.00  0.00    -0.039 S 
ATOM      9  C   LIG    1       11.092  -2.261  30.225  0.00  0.00    +0.069 C 
ATOM     10  C   LIG    1        9.953  -3.236  29.950  0.00  0.00    +0.112 C 
ATOM     11  S   LIG    1        9.726  -4.014  31.610  0.00  0.00    -0.057 S 
ATOM     12  C   LIG    1       11.288  -3.481  32.193  0.00  0.00    +0.277 C 
ATOM     13  O   LIG    1       11.746  -3.764  33.276  0.00  0.00    -0.263 OA
ATOM     14  N   LIG    1       11.850  -2.626  31.297  0.00  0.00    -0.273 N 
ATOM     15  H   LIG    1       12.640  -2.077  31.601  0.00  0.00    +0.156 HD
ENDBRANCH   7  10
ENDBRANCH   1   7
BRANCH   4  16
ATOM     16  O   LIG    1        8.168  -3.533  23.729  0.00  0.00    -0.490 OA
BRANCH  16  17
ATOM     17  C   LIG    1        7.694  -4.746  23.133  0.00  0.00    +0.248 C 
BRANCH  17  18
ATOM     18  C   LIG    1        8.449  -5.277  21.923  0.00  0.00    +0.147 C 
BRANCH  18  19
ATOM     19  N   LIG    1        9.589  -4.425  21.460  0.00  0.00    -0.315 N 
ATOM     20  C   LIG    1       10.896  -5.007  21.797  0.00  0.00    +0.131 C 
BRANCH  19  21
ATOM     21  C   LIG    1        9.619  -3.788  20.204  0.00  0.00    +0.121 A 
ATOM     22  C   LIG    1        8.618  -2.905  19.789  0.00  0.00    +0.043 A 
ATOM     23  C   LIG    1        8.670  -2.264  18.548  0.00  0.00    +0.005 A 
ATOM     24  C   LIG    1        9.782  -2.438  17.751  0.00  0.00    +0.020 A 
ATOM     25  C   LIG    1       10.778  -3.260  18.236  0.00  0.00    +0.113 A 
ATOM     26  N   LIG    1       10.708  -3.932  19.413  0.00  0.00    -0.240 NA
ENDBRANCH  19  21
ENDBRANCH  18  19
ENDBRANCH  17  18
ENDBRANCH  16  17
ENDBRANCH   4  16
TORSDOF 7
ENDMDL
MODEL 4
REMARK VINA RESULT:      -7.5      3.297      4.408
REMARK  Name = 
REMARK                            x       y       z     vdW  Elec       q    Type
REMARK                         _______ _______ _______ _____ _____    ______ ____
ROOT
ATOM      1  C   LIG    1        8.729  -4.106  22.999  0.00  0.00    -0.046 A 
ATOM      2  C   LIG    1        8.056  -5.183  22.432  0.00  0.00    +0.007 A 
ATOM      3  C   LIG    1        7.026  -4.972  21.523  0.00  0.00    +0.046 A 
ATOM      4  C   LIG    1        6.593  -3.684  21.189  0.00  0.00    +0.121 A 
ATOM      5  C   LIG    1        7.221  -2.600  21.801  0.00  0.00    +0.046 A 
ATOM      6  C   LIG    1        8.290  -2.808  22.693  0.00  0.00    +0.007 A 
ENDROOT
BRANCH   1   7
ATOM      7  C   LIG    1        9.897  -4.375  23.918  0.00  0.00    +0.056 C 
BRANCH   7  10
ATOM      8  S   LIG    1       12.796  -2.462  25.266  0.00  0.00    -0.039 S 
ATOM      9  C   LIG    1       11.454  -3.342  25.710  0.00  0.00    +0.069 C 
ATOM     10  C   LIG    1       10.096  -3.315  25.021  0.00  0.00    +0.112 C 
ATOM     11  S   LIG    1        8.971  -3.794  26.406  0.00  0.00    -0.057 S 
ATOM     12  C   LIG    1       10.272  -4.440  27.383  0.00  0.00    +0.277 C 
ATOM     13  O   LIG    1       10.119  -4.983  28.452  0.00  0.00    -0.263 OA
ATOM     14  N   LIG    1       11.471  -4.145  26.811  0.00  0.00    -0.273 N 
ATOM     15  H   LIG    1       12.302  -4.262  27.373  0.00  0.00    +0.156 HD
ENDBRANCH   7  10
ENDBRANCH   1   7
BRANCH   4  16
ATOM     16  O   LIG    1        5.578  -3.406  20.286  0.00  0.00    -0.490 OA
BRANCH  16  17
ATOM     17  C   LIG    1        4.629  -2.478  20.827  0.00  0.00    +0.248 C 
BRANCH  17  18
ATOM     18  C   LIG    1        3.871  -1.595  19.846  0.00  0.00    +0.147 C 
BRANCH  18  19
ATOM     19  N   LIG    1        3.943  -0.126  20.126  0.00  0.00    -0.315 N 
ATOM     20  C   LIG    1        3.736   0.684  18.917  0.00  0.00    +0.131 C 
BRANCH  19  21
ATOM     21  C   LIG    1        3.355   0.477  21.254  0.00  0.00    +0.121 A 
ATOM     22  C   LIG    1        2.230  -0.059  21.887  0.00  0.00    +0.043 A 
ATOM     23  C   LIG    1        1.668   0.538  23.019  0.00  0.00    +0.005 A 
ATOM     24  C   LIG    1        2.293   1.632  23.578  0.00  0.00    +0.020 A 
ATOM     25  C   LIG    1        3.443   2.080  22.962  0.00  0.00    +0.113 A 
ATOM     26  N   LIG    1        3.961   1.542  21.829  0.00  0.00    -0.240 NA
ENDBRANCH  19  21
ENDBRANCH  18  19
ENDBRANCH  17  18
ENDBRANCH  16  17
ENDBRANCH   4  16
TORSDOF 7
ENDMDL
MODEL 5
REMARK VINA RESULT:      -7.5      4.225      6.817
REMARK  Name = 
REMARK                            x       y       z     vdW  Elec       q    Type
REMARK                         _______ _______ _______ _____ _____    ______ ____
ROOT
ATOM      1  C   LIG    1       10.337  -3.722  25.679  0.00  0.00    -0.046 A 
ATOM      2  C   LIG    1        8.946  -3.715  25.705  0.00  0.00    +0.007 A 
ATOM      3  C   LIG    1        8.217  -4.025  24.564  0.00  0.00    +0.046 A 
ATOM      4  C   LIG    1        8.845  -4.298  23.343  0.00  0.00    +0.121 A 
ATOM      5  C   LIG    1       10.237  -4.245  23.293  0.00  0.00    +0.046 A 
ATOM      6  C   LIG    1       10.980  -3.970  24.456  0.00  0.00    +0.007 A 
ENDROOT
BRANCH   1   7
ATOM      7  C   LIG    1       11.094  -3.461  26.959  0.00  0.00    +0.056 C 
BRANCH   7  10
ATOM      8  S   LIG    1       14.156  -2.087  25.340  0.00  0.00    -0.039 S 
ATOM      9  C   LIG    1       13.351  -2.202  26.793  0.00  0.00    +0.069 C 
ATOM     10  C   LIG    1       11.843  -2.113  26.992  0.00  0.00    +0.112 C 
ATOM     11  S   LIG    1       11.737  -1.506  28.733  0.00  0.00    -0.057 S 
ATOM     12  C   LIG    1       13.389  -1.949  29.103  0.00  0.00    +0.277 C 
ATOM     13  O   LIG    1       13.900  -1.835  30.192  0.00  0.00    -0.263 OA
ATOM     14  N   LIG    1       14.030  -2.336  27.967  0.00  0.00    -0.273 N 
ATOM     15  H   LIG    1       15.037  -2.406  27.994  0.00  0.00    +0.156 HD
ENDBRANCH   7  10
ENDBRANCH   1   7
BRANCH   4  16
ATOM     16  O   LIG    1        8.176  -4.621  22.171  0.00  0.00    -0.490 OA
BRANCH  16  17
ATOM     17  C   LIG    1        7.135  -3.680  21.882  0.00  0.00    +0.248 C 
BRANCH  17  18
ATOM     18  C   LIG    1        7.533  -2.221  21.710  0.00  0.00    +0.147 C 
BRANCH  18  19
ATOM     19  N   LIG    1        7.195  -1.622  20.381  0.00  0.00    -0.315 N 
ATOM     20  C   LIG    1        8.001  -2.190  19.290  0.00  0.00    +0.131 C 
BRANCH  19  21
ATOM     21  C   LIG    1        5.876  -1.359  19.962  0.00  0.00    +0.121 A 
ATOM     22  C   LIG    1        5.353  -1.877  18.774  0.00  0.00    +0.043 A 
ATOM     23  C   LIG    1        4.035  -1.625  18.380  0.00  0.00    +0.005 A 
ATOM     24  C   LIG    1        3.205  -0.923  19.229  0.00  0.00    +0.020 A 
ATOM     25  C   LIG    1        3.746  -0.497  20.423  0.00  0.00    +0.113 A 
ATOM     26  N   LIG    1        5.041  -0.686  20.786  0.00  0.00    -0.240 NA
ENDBRANCH  19  21
ENDBRANCH  18  19
ENDBRANCH  17  18
ENDBRANCH  16  17
ENDBRANCH   4  16
TORSDOF 7
ENDMDL
MODEL 6
REMARK VINA RESULT:      -7.4      5.143      7.777
REMARK  Name = 
REMARK                            x       y       z     vdW  Elec       q    Type
REMARK                         _______ _______ _______ _____ _____    ______ ____
ROOT
ATOM      1  C   LIG    1        9.864  -4.184  27.459  0.00  0.00    -0.046 A 
ATOM      2  C   LIG    1        8.533  -4.315  27.079  0.00  0.00    +0.007 A 
ATOM      3  C   LIG    1        8.162  -4.177  25.747  0.00  0.00    +0.046 A 
ATOM      4  C   LIG    1        9.095  -3.849  24.755  0.00  0.00    +0.121 A 
ATOM      5  C   LIG    1       10.421  -3.654  25.138  0.00  0.00    +0.046 A 
ATOM      6  C   LIG    1       10.806  -3.832  26.481  0.00  0.00    +0.007 A 
ENDROOT
BRANCH   1   7
ATOM      7  C   LIG    1       10.239  -4.423  28.903  0.00  0.00    +0.056 C 
BRANCH   7  10
ATOM      8  S   LIG    1       11.416  -0.905  29.259  0.00  0.00    -0.039 S 
ATOM      9  C   LIG    1       11.071  -2.291  30.115  0.00  0.00    +0.069 C 
ATOM     10  C   LIG    1        9.915  -3.247  29.847  0.00  0.00    +0.112 C 
ATOM     11  S   LIG    1        9.653  -3.985  31.520  0.00  0.00    -0.057 S 
ATOM     12  C   LIG    1       11.219  -3.473  32.110  0.00  0.00    +0.277 C 
ATOM     13  O   LIG    1       11.659  -3.743  33.203  0.00  0.00    -0.263 OA
ATOM     14  N   LIG    1       11.810  -2.649  31.203  0.00  0.00    -0.273 N 
ATOM     15  H   LIG    1       12.608  -2.111  31.505  0.00  0.00    +0.156 HD
ENDBRANCH   7  10
ENDBRANCH   1   7
BRANCH   4  16
ATOM     16  O   LIG    1        8.792  -3.704  23.410  0.00  0.00    -0.490 OA
BRANCH  16  17
ATOM     17  C   LIG    1        7.636  -4.468  23.044  0.00  0.00    +0.248 C 
BRANCH  17  18
ATOM     18  C   LIG    1        7.210  -4.444  21.583  0.00  0.00    +0.147 C 
BRANCH  18  19
ATOM     19  N   LIG    1        7.174  -3.087  20.953  0.00  0.00    -0.315 N 
ATOM     20  C   LIG    1        8.370  -2.812  20.145  0.00  0.00    +0.131 C 
BRANCH  19  21
ATOM     21  C   LIG    1        6.018  -2.538  20.363  0.00  0.00    +0.121 A 
ATOM     22  C   LIG    1        5.995  -2.096  19.037  0.00  0.00    +0.043 A 
ATOM     23  C   LIG    1        4.836  -1.571  18.457  0.00  0.00    +0.005 A 
ATOM     24  C   LIG    1        3.664  -1.575  19.184  0.00  0.00    +0.020 A 
ATOM     25  C   LIG    1        3.720  -2.091  20.461  0.00  0.00    +0.113 A 
ATOM     26  N   LIG    1        4.854  -2.546  21.052  0.00  0.00    -0.240 NA
ENDBRANCH  19  21
ENDBRANCH  18  19
ENDBRANCH  17  18
ENDBRANCH  16  17
ENDBRANCH   4  16
TORSDOF 7
ENDMDL
MODEL 7
REMARK VINA RESULT:      -7.2      5.601      9.045
REMARK  Name = 
REMARK                            x       y       z     vdW  Elec       q    Type
REMARK                         _______ _______ _______ _____ _____    ______ ____
ROOT
ATOM      1  C   LIG    1        9.747  -4.345  27.812  0.00  0.00    -0.046 A 
ATOM      2  C   LIG    1        8.525  -4.471  27.160  0.00  0.00    +0.007 A 
ATOM      3  C   LIG    1        8.439  -4.300  25.783  0.00  0.00    +0.046 A 
ATOM      4  C   LIG    1        9.554  -3.942  25.016  0.00  0.00    +0.121 A 
ATOM      5  C   LIG    1       10.769  -3.752  25.672  0.00  0.00    +0.046 A 
ATOM      6  C   LIG    1       10.869  -3.963  27.061  0.00  0.00    +0.007 A 
ENDROOT
BRANCH   1   7
ATOM      7  C   LIG    1        9.815  -4.620  29.296  0.00  0.00    +0.056 C 
BRANCH   7  10
ATOM      8  S   LIG    1       11.691  -2.838  31.977  0.00  0.00    -0.039 S 
ATOM      9  C   LIG    1       10.192  -3.435  31.567  0.00  0.00    +0.069 C 
ATOM     10  C   LIG    1        9.555  -3.387  30.184  0.00  0.00    +0.112 C 
ATOM     11  S   LIG    1        7.757  -3.424  30.606  0.00  0.00    -0.057 S 
ATOM     12  C   LIG    1        8.040  -4.007  32.232  0.00  0.00    +0.277 C 
ATOM     13  O   LIG    1        7.166  -4.293  33.017  0.00  0.00    -0.263 OA
ATOM     14  N   LIG    1        9.372  -3.987  32.506  0.00  0.00    -0.273 N 
ATOM     15  H   LIG    1        9.657  -4.085  33.469  0.00  0.00    +0.156 HD
ENDBRANCH   7  10
ENDBRANCH   1   7
BRANCH   4  16
ATOM     16  O   LIG    1        9.537  -3.763  23.641  0.00  0.00    -0.490 OA
BRANCH  16  17
ATOM     17  C   LIG    1        8.245  -4.044  23.089  0.00  0.00    +0.248 C 
BRANCH  17  18
ATOM     18  C   LIG    1        7.536  -2.918  22.350  0.00  0.00    +0.147 C 
BRANCH  18  19
ATOM     19  N   LIG    1        7.505  -3.057  20.859  0.00  0.00    -0.315 N 
ATOM     20  C   LIG    1        6.138  -3.003  20.321  0.00  0.00    +0.131 C 
BRANCH  19  21
ATOM     21  C   LIG    1        8.420  -2.414  20.003  0.00  0.00    +0.121 A 
ATOM     22  C   LIG    1        9.328  -3.124  19.212  0.00  0.00    +0.043 A 
ATOM     23  C   LIG    1       10.218  -2.474  18.351  0.00  0.00    +0.005 A 
ATOM     24  C   LIG    1       10.135  -1.105  18.212  0.00  0.00    +0.020 A 
ATOM     25  C   LIG    1        9.173  -0.456  18.957  0.00  0.00    +0.113 A 
ATOM     26  N   LIG    1        8.346  -1.073  19.840  0.00  0.00    -0.240 NA
ENDBRANCH  19  21
ENDBRANCH  18  19
ENDBRANCH  17  18
ENDBRANCH  16  17
ENDBRANCH   4  16
TORSDOF 7
ENDMDL
MODEL 8
REMARK VINA RESULT:      -7.2      3.905      7.982
REMARK  Name = 
REMARK                            x       y       z     vdW  Elec       q    Type
REMARK                         _______ _______ _______ _____ _____    ______ ____
ROOT
ATOM      1  C   LIG    1        4.409  -0.741  20.171  0.00  0.00    -0.046 A 
ATOM      2  C   LIG    1        5.505  -0.763  21.027  0.00  0.00    +0.007 A 
ATOM      3  C   LIG    1        6.682  -1.401  20.650  0.00  0.00    +0.046 A 
ATOM      4  C   LIG    1        6.789  -2.085  19.433  0.00  0.00    +0.121 A 
ATOM      5  C   LIG    1        5.673  -2.121  18.599  0.00  0.00    +0.046 A 
ATOM      6  C   LIG    1        4.493  -1.443  18.959  0.00  0.00    +0.007 A 
ENDROOT
BRANCH   1   7
ATOM      7  C   LIG    1        3.178   0.032  20.581  0.00  0.00    +0.056 C 
BRANCH   7  10
ATOM      8  S   LIG    1        1.111  -0.809  23.566  0.00  0.00    -0.039 S 
ATOM      9  C   LIG    1        1.789   0.458  22.725  0.00  0.00    +0.069 C 
ATOM     10  C   LIG    1        3.161   0.463  22.062  0.00  0.00    +0.112 C 
ATOM     11  S   LIG    1        3.571   2.264  22.081  0.00  0.00    -0.057 S 
ATOM     12  C   LIG    1        1.914   2.750  22.360  0.00  0.00    +0.277 C 
ATOM     13  O   LIG    1        1.537   3.897  22.409  0.00  0.00    -0.263 OA
ATOM     14  N   LIG    1        1.147   1.655  22.617  0.00  0.00    -0.273 N 
ATOM     15  H   LIG    1        0.229   1.805  23.009  0.00  0.00    +0.156 HD
ENDBRANCH   7  10
ENDBRANCH   1   7
BRANCH   4  16
ATOM     16  O   LIG    1        7.934  -2.734  18.996  0.00  0.00    -0.490 OA
BRANCH  16  17
ATOM     17  C   LIG    1        8.898  -2.868  20.047  0.00  0.00    +0.248 C 
BRANCH  17  18
ATOM     18  C   LIG    1        9.047  -4.237  20.695  0.00  0.00    +0.147 C 
BRANCH  18  19
ATOM     19  N   LIG    1        8.281  -4.426  21.967  0.00  0.00    -0.315 N 
ATOM     20  C   LIG    1        7.413  -5.612  21.926  0.00  0.00    +0.131 C 
BRANCH  19  21
ATOM     21  C   LIG    1        8.844  -4.245  23.245  0.00  0.00    +0.121 A 
ATOM     22  C   LIG    1       10.224  -4.148  23.445  0.00  0.00    +0.043 A 
ATOM     23  C   LIG    1       10.770  -3.949  24.717  0.00  0.00    +0.005 A 
ATOM     24  C   LIG    1        9.922  -3.754  25.786  0.00  0.00    +0.020 A 
ATOM     25  C   LIG    1        8.568  -3.785  25.526  0.00  0.00    +0.113 A 
ATOM     26  N   LIG    1        8.030  -4.037  24.305  0.00  0.00    -0.240 NA
ENDBRANCH  19  21
ENDBRANCH  18  19
ENDBRANCH  17  18
ENDBRANCH  16  17
ENDBRANCH   4  16
TORSDOF 7
ENDMDL
MODEL 9
REMARK VINA RESULT:      -7.1      1.591      3.181
REMARK  Name = 
REMARK                            x       y       z     vdW  Elec       q    Type
REMARK                         _______ _______ _______ _____ _____    ______ ____
ROOT
ATOM      1  C   LIG    1        7.173  -2.434  20.352  0.00  0.00    -0.046 A 
ATOM      2  C   LIG    1        6.120  -3.313  20.579  0.00  0.00    +0.007 A 
ATOM      3  C   LIG    1        4.824  -2.971  20.211  0.00  0.00    +0.046 A 
ATOM      4  C   LIG    1        4.523  -1.722  19.656  0.00  0.00    +0.121 A 
ATOM      5  C   LIG    1        5.565  -0.811  19.484  0.00  0.00    +0.046 A 
ATOM      6  C   LIG    1        6.884  -1.168  19.820  0.00  0.00    +0.007 A 
ENDROOT
BRANCH   1   7
ATOM      7  C   LIG    1        8.578  -2.874  20.691  0.00  0.00    +0.056 C 
BRANCH   7  10
ATOM      8  S   LIG    1        8.193  -4.009  24.219  0.00  0.00    -0.039 S 
ATOM      9  C   LIG    1        9.150  -4.158  22.865  0.00  0.00    +0.069 C 
ATOM     10  C   LIG    1        8.662  -4.228  21.424  0.00  0.00    +0.112 C 
ATOM     11  S   LIG    1       10.031  -5.169  20.616  0.00  0.00    -0.057 S 
ATOM     12  C   LIG    1       11.153  -4.872  21.926  0.00  0.00    +0.277 C 
ATOM     13  O   LIG    1       12.310  -5.223  21.928  0.00  0.00    -0.263 OA
ATOM     14  N   LIG    1       10.503  -4.289  22.970  0.00  0.00    -0.273 N 
ATOM     15  H   LIG    1       10.973  -4.264  23.863  0.00  0.00    +0.156 HD
ENDBRANCH   7  10
ENDBRANCH   1   7
BRANCH   4  16
ATOM     16  O   LIG    1        3.255  -1.323  19.261  0.00  0.00    -0.490 OA
BRANCH  16  17
ATOM     17  C   LIG    1        2.268  -1.652  20.245  0.00  0.00    +0.248 C 
BRANCH  17  18
ATOM     18  C   LIG    1        2.558  -1.267  21.689  0.00  0.00    +0.147 C 
BRANCH  18  19
ATOM     19  N   LIG    1        1.736  -0.135  22.223  0.00  0.00    -0.315 N 
ATOM     20  C   LIG    1        1.029  -0.493  23.461  0.00  0.00    +0.131 C 
BRANCH  19  21
ATOM     21  C   LIG    1        2.184   1.199  22.254  0.00  0.00    +0.121 A 
ATOM     22  C   LIG    1        1.327   2.270  22.525  0.00  0.00    +0.043 A 
ATOM     23  C   LIG    1        1.789   3.588  22.573  0.00  0.00    +0.005 A 
ATOM     24  C   LIG    1        3.140   3.829  22.438  0.00  0.00    +0.020 A 
ATOM     25  C   LIG    1        3.956   2.734  22.247  0.00  0.00    +0.113 A 
ATOM     26  N   LIG    1        3.508   1.457  22.140  0.00  0.00    -0.240 NA
ENDBRANCH  19  21
ENDBRANCH  18  19
ENDBRANCH  17  18
ENDBRANCH  16  17
ENDBRANCH   4  16
TORSDOF 7
ENDMDL
