MODEL 1
REMARK VINA RESULT:      -8.6      0.000      0.000
REMARK  Name = 
REMARK                            x       y       z     vdW  Elec       q    Type
REMARK                         _______ _______ _______ _____ _____    ______ ____
ROOT
ATOM      1  C   LIG    1        9.961   1.015  31.195  0.00  0.00    -0.046 A 
ATOM      2  C   LIG    1        8.611   0.870  30.892  0.00  0.00    +0.007 A 
ATOM      3  C   LIG    1        8.176   0.906  29.572  0.00  0.00    +0.046 A 
ATOM      4  C   LIG    1        9.061   1.143  28.514  0.00  0.00    +0.121 A 
ATOM      5  C   LIG    1       10.406   1.352  28.815  0.00  0.00    +0.046 A 
ATOM      6  C   LIG    1       10.856   1.277  30.147  0.00  0.00    +0.007 A 
ENDROOT
BRANCH   1   7
ATOM      7  C   LIG    1       10.405   0.888  32.633  0.00  0.00    +0.056 C 
BRANCH   7  10
ATOM      8  S   LIG    1       12.298   4.081  32.313  0.00  0.00    -0.039 S 
ATOM      9  C   LIG    1       11.796   2.930  33.406  0.00  0.00    +0.069 C 
ATOM     10  C   LIG    1       10.447   2.221  33.407  0.00  0.00    +0.112 C 
ATOM     11  S   LIG    1       10.259   1.789  35.192  0.00  0.00    -0.057 S 
ATOM     12  C   LIG    1       11.959   2.022  35.539  0.00  0.00    +0.277 C 
ATOM     13  O   LIG    1       12.472   1.813  36.613  0.00  0.00    -0.263 OA
ATOM     14  N   LIG    1       12.581   2.569  34.460  0.00  0.00    -0.273 N 
ATOM     15  H   LIG    1       13.503   2.957  34.594  0.00  0.00    +0.156 HD
ENDBRANCH   7  10
ENDBRANCH   1   7
BRANCH   4  16
ATOM     16  O   LIG    1        8.693   1.184  27.177  0.00  0.00    -0.490 OA
BRANCH  16  17
ATOM     17  C   LIG    1        7.373   1.715  27.009  0.00  0.00    +0.248 C 
BRANCH  17  18
ATOM     18  C   LIG    1        7.242   3.078  26.346  0.00  0.00    +0.147 C 
BRANCH  18  19
ATOM     19  N   LIG    1        7.509   4.249  27.240  0.00  0.00    -0.315 N 
ATOM     20  C   LIG    1        8.834   4.841  27.005  0.00  0.00    +0.131 C 
BRANCH  19  21
ATOM     21  C   LIG    1        6.549   5.238  27.528  0.00  0.00    +0.121 A 
ATOM     22  C   LIG    1        5.365   4.952  28.213  0.00  0.00    +0.043 A 
ATOM     23  C   LIG    1        4.428   5.946  28.511  0.00  0.00    +0.005 A 
ATOM     24  C   LIG    1        4.723   7.257  28.200  0.00  0.00    +0.020 A 
ATOM     25  C   LIG    1        5.936   7.499  27.592  0.00  0.00    +0.113 A 
ATOM     26  N   LIG    1        6.824   6.532  27.246  0.00  0.00    -0.240 NA
ENDBRANCH  19  21
ENDBRANCH  18  19
ENDBRANCH  17  18
ENDBRANCH  16  17
ENDBRANCH   4  16
TORSDOF 7
ENDMDL
MODEL 2
REMARK VINA RESULT:      -8.0      1.033      2.667
REMARK  Name = 
REMARK                            x       y       z     vdW  Elec       q    Type
REMARK                         _______ _______ _______ _____ _____    ______ ____
ROOT
ATOM      1  C   LIG    1       10.066   0.955  31.141  0.00  0.00    -0.046 A 
ATOM      2  C   LIG    1       10.862   1.391  30.087  0.00  0.00    +0.007 A 
ATOM      3  C   LIG    1       10.326   1.547  28.815  0.00  0.00    +0.046 A 
ATOM      4  C   LIG    1        8.994   1.221  28.534  0.00  0.00    +0.121 A 
ATOM      5  C   LIG    1        8.206   0.723  29.571  0.00  0.00    +0.046 A 
ATOM      6  C   LIG    1        8.736   0.601  30.870  0.00  0.00    +0.007 A 
ENDROOT
BRANCH   1   7
ATOM      7  C   LIG    1       10.664   0.877  32.526  0.00  0.00    +0.056 C 
BRANCH   7  10
ATOM      8  S   LIG    1       12.481   4.126  32.354  0.00  0.00    -0.039 S 
ATOM      9  C   LIG    1       11.946   2.949  33.403  0.00  0.00    +0.069 C 
ATOM     10  C   LIG    1       10.621   2.202  33.314  0.00  0.00    +0.112 C 
ATOM     11  S   LIG    1       10.336   1.744  35.080  0.00  0.00    -0.057 S 
ATOM     12  C   LIG    1       12.004   2.021  35.533  0.00  0.00    +0.277 C 
ATOM     13  O   LIG    1       12.456   1.814  36.635  0.00  0.00    -0.263 OA
ATOM     14  N   LIG    1       12.675   2.598  34.500  0.00  0.00    -0.273 N 
ATOM     15  H   LIG    1       13.576   3.010  34.694  0.00  0.00    +0.156 HD
ENDBRANCH   7  10
ENDBRANCH   1   7
BRANCH   4  16
ATOM     16  O   LIG    1        8.397   1.361  27.290  0.00  0.00    -0.490 OA
BRANCH  16  17
ATOM     17  C   LIG    1        7.002   1.665  27.406  0.00  0.00    +0.248 C 
BRANCH  17  18
ATOM     18  C   LIG    1        6.623   3.017  27.993  0.00  0.00    +0.147 C 
BRANCH  18  19
ATOM     19  N   LIG    1        6.938   4.198  27.128  0.00  0.00    -0.315 N 
ATOM     20  C   LIG    1        6.102   5.364  27.448  0.00  0.00    +0.131 C 
BRANCH  19  21
ATOM     21  C   LIG    1        8.250   4.583  26.791  0.00  0.00    +0.121 A 
ATOM     22  C   LIG    1        8.598   5.004  25.505  0.00  0.00    +0.043 A 
ATOM     23  C   LIG    1        9.900   5.403  25.188  0.00  0.00    +0.005 A 
ATOM     24  C   LIG    1       10.842   5.467  26.193  0.00  0.00    +0.020 A 
ATOM     25  C   LIG    1       10.432   5.113  27.461  0.00  0.00    +0.113 A 
ATOM     26  N   LIG    1        9.186   4.668  27.764  0.00  0.00    -0.240 NA
ENDBRANCH  19  21
ENDBRANCH  18  19
ENDBRANCH  17  18
ENDBRANCH  16  17
ENDBRANCH   4  16
TORSDOF 7
ENDMDL
MODEL 3
REMARK VINA RESULT:      -7.8      3.032      7.879
REMARK  Name = 
REMARK                            x       y       z     vdW  Elec       q    Type
REMARK                         _______ _______ _______ _____ _____    ______ ____
ROOT
ATOM      1  C   LIG    1        7.708   2.480  26.922  0.00  0.00    -0.046 A 
ATOM      2  C   LIG    1        7.175   2.609  28.200  0.00  0.00    +0.007 A 
ATOM      3  C   LIG    1        7.639   1.814  29.242  0.00  0.00    +0.046 A 
ATOM      4  C   LIG    1        8.609   0.825  29.035  0.00  0.00    +0.121 A 
ATOM      5  C   LIG    1        9.102   0.648  27.743  0.00  0.00    +0.046 A 
ATOM      6  C   LIG    1        8.662   1.477  26.694  0.00  0.00    +0.007 A 
ENDROOT
BRANCH   1   7
ATOM      7  C   LIG    1        7.236   3.418  25.836  0.00  0.00    +0.056 C 
BRANCH   7  10
ATOM      8  S   LIG    1       10.504   4.577  27.201  0.00  0.00    -0.039 S 
ATOM      9  C   LIG    1        8.963   5.078  26.820  0.00  0.00    +0.069 C 
ATOM     10  C   LIG    1        8.150   4.639  25.608  0.00  0.00    +0.112 C 
ATOM     11  S   LIG    1        7.028   6.087  25.373  0.00  0.00    -0.057 S 
ATOM     12  C   LIG    1        7.314   6.708  26.984  0.00  0.00    +0.277 C 
ATOM     13  O   LIG    1        6.763   7.677  27.451  0.00  0.00    -0.263 OA
ATOM     14  N   LIG    1        8.315   6.005  27.580  0.00  0.00    -0.273 N 
ATOM     15  H   LIG    1        8.729   6.392  28.415  0.00  0.00    +0.156 HD
ENDBRANCH   7  10
ENDBRANCH   1   7
BRANCH   4  16
ATOM     16  O   LIG    1        9.119   0.006  30.031  0.00  0.00    -0.490 OA
BRANCH  16  17
ATOM     17  C   LIG    1        9.421   0.745  31.220  0.00  0.00    +0.248 C 
BRANCH  17  18
ATOM     18  C   LIG    1       10.818   0.598  31.804  0.00  0.00    +0.147 C 
BRANCH  18  19
ATOM     19  N   LIG    1       11.317   1.785  32.568  0.00  0.00    -0.315 N 
ATOM     20  C   LIG    1       11.014   3.054  31.890  0.00  0.00    +0.131 C 
BRANCH  19  21
ATOM     21  C   LIG    1       11.204   1.910  33.966  0.00  0.00    +0.121 A 
ATOM     22  C   LIG    1       12.060   2.721  34.715  0.00  0.00    +0.043 A 
ATOM     23  C   LIG    1       11.924   2.852  36.101  0.00  0.00    +0.005 A 
ATOM     24  C   LIG    1       10.863   2.235  36.730  0.00  0.00    +0.020 A 
ATOM     25  C   LIG    1       10.002   1.507  35.937  0.00  0.00    +0.113 A 
ATOM     26  N   LIG    1       10.161   1.326  34.601  0.00  0.00    -0.240 NA
ENDBRANCH  19  21
ENDBRANCH  18  19
ENDBRANCH  17  18
ENDBRANCH  16  17
ENDBRANCH   4  16
TORSDOF 7
ENDMDL
MODEL 4
REMARK VINA RESULT:      -7.8      5.763      8.675
REMARK  Name = 
REMARK                            x       y       z     vdW  Elec       q    Type
REMARK                         _______ _______ _______ _____ _____    ______ ____
ROOT
ATOM      1  C   LIG    1       15.970   2.919  28.602  0.00  0.00    -0.046 A 
ATOM      2  C   LIG    1       15.265   2.032  27.796  0.00  0.00    +0.007 A 
ATOM      3  C   LIG    1       13.921   1.774  28.037  0.00  0.00    +0.046 A 
ATOM      4  C   LIG    1       13.247   2.345  29.123  0.00  0.00    +0.121 A 
ATOM      5  C   LIG    1       13.964   3.186  29.974  0.00  0.00    +0.046 A 
ATOM      6  C   LIG    1       15.316   3.480  29.709  0.00  0.00    +0.007 A 
ENDROOT
BRANCH   1   7
ATOM      7  C   LIG    1       17.406   3.237  28.258  0.00  0.00    +0.056 C 
BRANCH   7  10
ATOM      8  S   LIG    1       19.201   4.627  25.303  0.00  0.00    -0.039 S 
ATOM      9  C   LIG    1       18.943   4.847  26.933  0.00  0.00    +0.069 C 
ATOM     10  C   LIG    1       17.623   4.645  27.668  0.00  0.00    +0.112 C 
ATOM     11  S   LIG    1       17.825   5.784  29.107  0.00  0.00    -0.057 S 
ATOM     12  C   LIG    1       19.560   5.898  28.912  0.00  0.00    +0.277 C 
ATOM     13  O   LIG    1       20.293   6.505  29.657  0.00  0.00    -0.263 OA
ATOM     14  N   LIG    1       19.936   5.297  27.750  0.00  0.00    -0.273 N 
ATOM     15  H   LIG    1       20.867   5.479  27.406  0.00  0.00    +0.156 HD
ENDBRANCH   7  10
ENDBRANCH   1   7
BRANCH   4  16
ATOM     16  O   LIG    1       11.908   2.135  29.415  0.00  0.00    -0.490 OA
BRANCH  16  17
ATOM     17  C   LIG    1       11.433   3.054  30.406  0.00  0.00    +0.248 C 
BRANCH  17  18
ATOM     18  C   LIG    1       10.926   2.474  31.719  0.00  0.00    +0.147 C 
BRANCH  18  19
ATOM     19  N   LIG    1       11.797   2.736  32.908  0.00  0.00    -0.315 N 
ATOM     20  C   LIG    1       12.326   4.108  32.922  0.00  0.00    +0.131 C 
BRANCH  19  21
ATOM     21  C   LIG    1       11.487   2.292  34.208  0.00  0.00    +0.121 A 
ATOM     22  C   LIG    1       12.350   2.485  35.290  0.00  0.00    +0.043 A 
ATOM     23  C   LIG    1       12.021   2.056  36.579  0.00  0.00    +0.005 A 
ATOM     24  C   LIG    1       10.775   1.510  36.805  0.00  0.00    +0.020 A 
ATOM     25  C   LIG    1        9.930   1.408  35.721  0.00  0.00    +0.113 A 
ATOM     26  N   LIG    1       10.264   1.767  34.455  0.00  0.00    -0.240 NA
ENDBRANCH  19  21
ENDBRANCH  18  19
ENDBRANCH  17  18
ENDBRANCH  16  17
ENDBRANCH   4  16
TORSDOF 7
ENDMDL
MODEL 5
REMARK VINA RESULT:      -7.7      2.970      7.760
REMARK  Name = 
REMARK                            x       y       z     vdW  Elec       q    Type
REMARK                         _______ _______ _______ _____ _____    ______ ____
ROOT
ATOM      1  C   LIG    1        8.012   1.560  27.894  0.00  0.00    -0.046 A 
ATOM      2  C   LIG    1        7.849   1.462  29.271  0.00  0.00    +0.007 A 
ATOM      3  C   LIG    1        8.954   1.376  30.109  0.00  0.00    +0.046 A 
ATOM      4  C   LIG    1       10.258   1.330  29.602  0.00  0.00    +0.121 A 
ATOM      5  C   LIG    1       10.427   1.364  28.219  0.00  0.00    +0.046 A 
ATOM      6  C   LIG    1        9.312   1.490  27.369  0.00  0.00    +0.007 A 
ENDROOT
BRANCH   1   7
ATOM      7  C   LIG    1        6.790   1.734  27.023  0.00  0.00    +0.056 C 
BRANCH   7  10
ATOM      8  S   LIG    1        9.015   4.706  26.701  0.00  0.00    -0.039 S 
ATOM      9  C   LIG    1        7.449   4.239  27.017  0.00  0.00    +0.069 C 
ATOM     10  C   LIG    1        6.694   3.109  26.329  0.00  0.00    +0.112 C 
ATOM     11  S   LIG    1        4.943   3.663  26.524  0.00  0.00    -0.057 S 
ATOM     12  C   LIG    1        5.332   4.805  27.792  0.00  0.00    +0.277 C 
ATOM     13  O   LIG    1        4.516   5.467  28.390  0.00  0.00    -0.263 OA
ATOM     14  N   LIG    1        6.683   4.909  27.923  0.00  0.00    -0.273 N 
ATOM     15  H   LIG    1        7.045   5.685  28.457  0.00  0.00    +0.156 HD
ENDBRANCH   7  10
ENDBRANCH   1   7
BRANCH   4  16
ATOM     16  O   LIG    1       11.402   1.252  30.382  0.00  0.00    -0.490 OA
BRANCH  16  17
ATOM     17  C   LIG    1       12.104   2.501  30.416  0.00  0.00    +0.248 C 
BRANCH  17  18
ATOM     18  C   LIG    1       11.671   3.524  31.456  0.00  0.00    +0.147 C 
BRANCH  18  19
ATOM     19  N   LIG    1       12.360   3.415  32.781  0.00  0.00    -0.315 N 
ATOM     20  C   LIG    1       13.151   4.612  33.100  0.00  0.00    +0.131 C 
BRANCH  19  21
ATOM     21  C   LIG    1       11.747   2.882  33.931  0.00  0.00    +0.121 A 
ATOM     22  C   LIG    1       10.639   2.033  33.862  0.00  0.00    +0.043 A 
ATOM     23  C   LIG    1       10.051   1.495  35.011  0.00  0.00    +0.005 A 
ATOM     24  C   LIG    1       10.635   1.737  36.237  0.00  0.00    +0.020 A 
ATOM     25  C   LIG    1       11.770   2.519  36.247  0.00  0.00    +0.113 A 
ATOM     26  N   LIG    1       12.312   3.094  35.142  0.00  0.00    -0.240 NA
ENDBRANCH  19  21
ENDBRANCH  18  19
ENDBRANCH  17  18
ENDBRANCH  16  17
ENDBRANCH   4  16
TORSDOF 7
ENDMDL
MODEL 6
REMARK VINA RESULT:      -7.5      5.994      8.826
REMARK  Name = 
REMARK                            x       y       z     vdW  Elec       q    Type
REMARK                         _______ _______ _______ _____ _____    ______ ____
ROOT
ATOM      1  C   LIG    1       10.892   2.222  29.151  0.00  0.00    -0.046 A 
ATOM      2  C   LIG    1       11.270   2.994  30.245  0.00  0.00    +0.007 A 
ATOM      3  C   LIG    1       12.604   3.332  30.443  0.00  0.00    +0.046 A 
ATOM      4  C   LIG    1       13.614   2.867  29.592  0.00  0.00    +0.121 A 
ATOM      5  C   LIG    1       13.250   2.040  28.530  0.00  0.00    +0.046 A 
ATOM      6  C   LIG    1       11.896   1.728  28.304  0.00  0.00    +0.007 A 
ENDROOT
BRANCH   1   7
ATOM      7  C   LIG    1        9.425   1.945  28.924  0.00  0.00    +0.056 C 
BRANCH   7  10
ATOM      8  S   LIG    1        9.783   4.923  26.713  0.00  0.00    -0.039 S 
ATOM      9  C   LIG    1        8.679   3.833  27.317  0.00  0.00    +0.069 C 
ATOM     10  C   LIG    1        8.911   2.342  27.525  0.00  0.00    +0.112 C 
ATOM     11  S   LIG    1        7.192   1.680  27.399  0.00  0.00    -0.057 S 
ATOM     12  C   LIG    1        6.454   3.247  27.649  0.00  0.00    +0.277 C 
ATOM     13  O   LIG    1        5.263   3.437  27.730  0.00  0.00    -0.263 OA
ATOM     14  N   LIG    1        7.409   4.217  27.630  0.00  0.00    -0.273 N 
ATOM     15  H   LIG    1        7.105   5.175  27.541  0.00  0.00    +0.156 HD
ENDBRANCH   7  10
ENDBRANCH   1   7
BRANCH   4  16
ATOM     16  O   LIG    1       14.959   3.173  29.730  0.00  0.00    -0.490 OA
BRANCH  16  17
ATOM     17  C   LIG    1       15.706   2.808  28.563  0.00  0.00    +0.248 C 
BRANCH  17  18
ATOM     18  C   LIG    1       17.007   3.553  28.299  0.00  0.00    +0.147 C 
BRANCH  18  19
ATOM     19  N   LIG    1       17.038   4.350  27.032  0.00  0.00    -0.315 N 
ATOM     20  C   LIG    1       17.885   5.546  27.144  0.00  0.00    +0.131 C 
BRANCH  19  21
ATOM     21  C   LIG    1       17.138   3.767  25.754  0.00  0.00    +0.121 A 
ATOM     22  C   LIG    1       16.027   3.592  24.923  0.00  0.00    +0.043 A 
ATOM     23  C   LIG    1       16.143   3.031  23.648  0.00  0.00    +0.005 A 
ATOM     24  C   LIG    1       17.397   2.725  23.164  0.00  0.00    +0.020 A 
ATOM     25  C   LIG    1       18.469   2.984  23.991  0.00  0.00    +0.113 A 
ATOM     26  N   LIG    1       18.360   3.474  25.252  0.00  0.00    -0.240 NA
ENDBRANCH  19  21
ENDBRANCH  18  19
ENDBRANCH  17  18
ENDBRANCH  16  17
ENDBRANCH   4  16
TORSDOF 7
ENDMDL
MODEL 7
REMARK VINA RESULT:      -7.3     10.146     13.271
REMARK  Name = 
REMARK                            x       y       z     vdW  Elec       q    Type
REMARK                         _______ _______ _______ _____ _____    ______ ____
ROOT
ATOM      1  C   LIG    1       18.674   4.532  26.363  0.00  0.00    -0.046 A 
ATOM      2  C   LIG    1       17.922   3.740  27.223  0.00  0.00    +0.007 A 
ATOM      3  C   LIG    1       17.366   4.281  28.376  0.00  0.00    +0.046 A 
ATOM      4  C   LIG    1       17.585   5.615  28.741  0.00  0.00    +0.121 A 
ATOM      5  C   LIG    1       18.390   6.398  27.916  0.00  0.00    +0.046 A 
ATOM      6  C   LIG    1       18.923   5.864  26.728  0.00  0.00    +0.007 A 
ENDROOT
BRANCH   1   7
ATOM      7  C   LIG    1       19.193   3.929  25.079  0.00  0.00    +0.056 C 
BRANCH   7  10
ATOM      8  S   LIG    1       15.646   3.731  23.954  0.00  0.00    -0.039 S 
ATOM      9  C   LIG    1       17.218   3.481  23.465  0.00  0.00    +0.069 C 
ATOM     10  C   LIG    1       18.416   4.354  23.816  0.00  0.00    +0.112 C 
ATOM     11  S   LIG    1       19.539   4.030  22.386  0.00  0.00    -0.057 S 
ATOM     12  C   LIG    1       18.686   2.580  21.905  0.00  0.00    +0.277 C 
ATOM     13  O   LIG    1       19.026   1.856  20.999  0.00  0.00    -0.263 OA
ATOM     14  N   LIG    1       17.541   2.454  22.630  0.00  0.00    -0.273 N 
ATOM     15  H   LIG    1       16.851   1.792  22.308  0.00  0.00    +0.156 HD
ENDBRANCH   7  10
ENDBRANCH   1   7
BRANCH   4  16
ATOM     16  O   LIG    1       17.053   6.216  29.872  0.00  0.00    -0.490 OA
BRANCH  16  17
ATOM     17  C   LIG    1       17.335   7.621  29.904  0.00  0.00    +0.248 C 
BRANCH  17  18
ATOM     18  C   LIG    1       17.654   8.243  31.256  0.00  0.00    +0.147 C 
BRANCH  18  19
ATOM     19  N   LIG    1       18.986   8.922  31.346  0.00  0.00    -0.315 N 
ATOM     20  C   LIG    1       18.868  10.387  31.320  0.00  0.00    +0.131 C 
BRANCH  19  21
ATOM     21  C   LIG    1       20.011   8.504  32.216  0.00  0.00    +0.121 A 
ATOM     22  C   LIG    1       20.464   9.298  33.273  0.00  0.00    +0.043 A 
ATOM     23  C   LIG    1       21.469   8.863  34.142  0.00  0.00    +0.005 A 
ATOM     24  C   LIG    1       21.962   7.582  34.006  0.00  0.00    +0.020 A 
ATOM     25  C   LIG    1       21.431   6.810  32.995  0.00  0.00    +0.113 A 
ATOM     26  N   LIG    1       20.498   7.246  32.110  0.00  0.00    -0.240 NA
ENDBRANCH  19  21
ENDBRANCH  18  19
ENDBRANCH  17  18
ENDBRANCH  16  17
ENDBRANCH   4  16
TORSDOF 7
ENDMDL
MODEL 8
REMARK VINA RESULT:      -7.2      5.638      6.898
REMARK  Name = 
REMARK                            x       y       z     vdW  Elec       q    Type
REMARK                         _______ _______ _______ _____ _____    ______ ____
ROOT
ATOM      1  C   LIG    1       15.622   2.973  28.837  0.00  0.00    -0.046 A 
ATOM      2  C   LIG    1       15.222   3.601  30.012  0.00  0.00    +0.007 A 
ATOM      3  C   LIG    1       13.928   3.439  30.493  0.00  0.00    +0.046 A 
ATOM      4  C   LIG    1       12.972   2.694  29.793  0.00  0.00    +0.121 A 
ATOM      5  C   LIG    1       13.348   2.114  28.582  0.00  0.00    +0.046 A 
ATOM      6  C   LIG    1       14.669   2.243  28.112  0.00  0.00    +0.007 A 
ENDROOT
BRANCH   1   7
ATOM      7  C   LIG    1       17.059   3.105  28.391  0.00  0.00    +0.056 C 
BRANCH   7  10
ATOM      8  S   LIG    1       18.877   3.912  25.240  0.00  0.00    -0.039 S 
ATOM      9  C   LIG    1       18.676   4.384  26.824  0.00  0.00    +0.069 C 
ATOM     10  C   LIG    1       17.364   4.393  27.598  0.00  0.00    +0.112 C 
ATOM     11  S   LIG    1       17.685   5.709  28.853  0.00  0.00    -0.057 S 
ATOM     12  C   LIG    1       19.419   5.661  28.618  0.00  0.00    +0.277 C 
ATOM     13  O   LIG    1       20.213   6.311  29.256  0.00  0.00    -0.263 OA
ATOM     14  N   LIG    1       19.720   4.871  27.552  0.00  0.00    -0.273 N 
ATOM     15  H   LIG    1       20.653   4.930  27.171  0.00  0.00    +0.156 HD
ENDBRANCH   7  10
ENDBRANCH   1   7
BRANCH   4  16
ATOM     16  O   LIG    1       11.669   2.489  30.221  0.00  0.00    -0.490 OA
BRANCH  16  17
ATOM     17  C   LIG    1       11.090   1.328  29.613  0.00  0.00    +0.248 C 
BRANCH  17  18
ATOM     18  C   LIG    1        9.572   1.264  29.521  0.00  0.00    +0.147 C 
BRANCH  18  19
ATOM     19  N   LIG    1        9.030   0.966  28.157  0.00  0.00    -0.315 N 
ATOM     20  C   LIG    1        8.627  -0.440  28.011  0.00  0.00    +0.131 C 
BRANCH  19  21
ATOM     21  C   LIG    1        8.153   1.826  27.468  0.00  0.00    +0.121 A 
ATOM     22  C   LIG    1        6.803   1.518  27.275  0.00  0.00    +0.043 A 
ATOM     23  C   LIG    1        5.938   2.389  26.606  0.00  0.00    +0.005 A 
ATOM     24  C   LIG    1        6.409   3.623  26.207  0.00  0.00    +0.020 A 
ATOM     25  C   LIG    1        7.727   3.911  26.487  0.00  0.00    +0.113 A 
ATOM     26  N   LIG    1        8.589   3.047  27.082  0.00  0.00    -0.240 NA
ENDBRANCH  19  21
ENDBRANCH  18  19
ENDBRANCH  17  18
ENDBRANCH  16  17
ENDBRANCH   4  16
TORSDOF 7
ENDMDL
MODEL 9
REMARK VINA RESULT:      -7.2      3.496      8.527
REMARK  Name = 
REMARK                            x       y       z     vdW  Elec       q    Type
REMARK                         _______ _______ _______ _____ _____    ______ ____
ROOT
ATOM      1  C   LIG    1        8.171   4.817  27.262  0.00  0.00    -0.046 A 
ATOM      2  C   LIG    1        9.532   4.963  27.504  0.00  0.00    +0.007 A 
ATOM      3  C   LIG    1       10.286   3.891  27.967  0.00  0.00    +0.046 A 
ATOM      4  C   LIG    1        9.701   2.653  28.258  0.00  0.00    +0.121 A 
ATOM      5  C   LIG    1        8.325   2.518  28.077  0.00  0.00    +0.046 A 
ATOM      6  C   LIG    1        7.565   3.590  27.572  0.00  0.00    +0.007 A 
ENDROOT
BRANCH   1   7
ATOM      7  C   LIG    1        7.402   5.981  26.681  0.00  0.00    +0.056 C 
BRANCH   7  10
ATOM      8  S   LIG    1        4.393   6.265  28.860  0.00  0.00    -0.039 S 
ATOM      9  C   LIG    1        5.381   7.122  27.830  0.00  0.00    +0.069 C 
ATOM     10  C   LIG    1        6.896   6.995  27.727  0.00  0.00    +0.112 C 
ATOM     11  S   LIG    1        7.363   8.666  27.095  0.00  0.00    -0.057 S 
ATOM     12  C   LIG    1        5.737   9.041  26.568  0.00  0.00    +0.277 C 
ATOM     13  O   LIG    1        5.424  10.052  25.984  0.00  0.00    -0.263 OA
ATOM     14  N   LIG    1        4.876   8.082  27.005  0.00  0.00    -0.273 N 
ATOM     15  H   LIG    1        3.888   8.283  26.964  0.00  0.00    +0.156 HD
ENDBRANCH   7  10
ENDBRANCH   1   7
BRANCH   4  16
ATOM     16  O   LIG    1       10.397   1.544  28.714  0.00  0.00    -0.490 OA
BRANCH  16  17
ATOM     17  C   LIG    1       11.340   1.896  29.734  0.00  0.00    +0.248 C 
BRANCH  17  18
ATOM     18  C   LIG    1       10.965   1.584  31.176  0.00  0.00    +0.147 C 
BRANCH  18  19
ATOM     19  N   LIG    1       11.562   2.499  32.200  0.00  0.00    -0.315 N 
ATOM     20  C   LIG    1       11.528   3.907  31.779  0.00  0.00    +0.131 C 
BRANCH  19  21
ATOM     21  C   LIG    1       11.327   2.371  33.583  0.00  0.00    +0.121 A 
ATOM     22  C   LIG    1       10.260   1.627  34.094  0.00  0.00    +0.043 A 
ATOM     23  C   LIG    1       10.050   1.491  35.469  0.00  0.00    +0.005 A 
ATOM     24  C   LIG    1       10.971   2.030  36.343  0.00  0.00    +0.020 A 
ATOM     25  C   LIG    1       12.047   2.690  35.790  0.00  0.00    +0.113 A 
ATOM     26  N   LIG    1       12.226   2.878  34.458  0.00  0.00    -0.240 NA
ENDBRANCH  19  21
ENDBRANCH  18  19
ENDBRANCH  17  18
ENDBRANCH  16  17
ENDBRANCH   4  16
TORSDOF 7
ENDMDL
