MODEL 1
REMARK VINA RESULT:      -2.3      0.000      0.000
REMARK  Name = 
REMARK                            x       y       z     vdW  Elec       q    Type
REMARK                         _______ _______ _______ _____ _____    ______ ____
ROOT
ATOM      1  C   LIG    1       16.917   3.408  51.809  0.00  0.00    -0.046 A 
ATOM      2  C   LIG    1       17.857   2.687  51.080  0.00  0.00    +0.007 A 
ATOM      3  C   LIG    1       18.925   3.334  50.471  0.00  0.00    +0.046 A 
ATOM      4  C   LIG    1       19.064   4.726  50.518  0.00  0.00    +0.121 A 
ATOM      5  C   LIG    1       18.091   5.461  51.193  0.00  0.00    +0.046 A 
ATOM      6  C   LIG    1       17.029   4.806  51.844  0.00  0.00    +0.007 A 
ENDROOT
BRANCH   1   7
ATOM      7  C   LIG    1       15.817   2.660  52.525  0.00  0.00    +0.056 C 
BRANCH   7  10
ATOM      8  S   LIG    1       13.477   0.776  50.320  0.00  0.00    -0.039 S 
ATOM      9  C   LIG    1       14.233   0.742  51.803  0.00  0.00    +0.069 C 
ATOM     10  C   LIG    1       15.661   1.188  52.093  0.00  0.00    +0.112 C 
ATOM     11  S   LIG    1       16.072   0.167  53.576  0.00  0.00    -0.057 S 
ATOM     12  C   LIG    1       14.396  -0.200  53.922  0.00  0.00    +0.277 C 
ATOM     13  O   LIG    1       14.018  -0.831  54.881  0.00  0.00    -0.263 OA
ATOM     14  N   LIG    1       13.607   0.236  52.902  0.00  0.00    -0.273 N 
ATOM     15  H   LIG    1       12.656  -0.101  52.865  0.00  0.00    +0.156 HD
ENDBRANCH   7  10
ENDBRANCH   1   7
BRANCH   4  16
ATOM     16  O   LIG    1       20.108   5.431  49.938  0.00  0.00    -0.490 OA
BRANCH  16  17
ATOM     17  C   LIG    1       20.804   6.231  50.902  0.00  0.00    +0.248 C 
BRANCH  17  18
ATOM     18  C   LIG    1       21.861   5.545  51.755  0.00  0.00    +0.147 C 
BRANCH  18  19
ATOM     19  N   LIG    1       21.453   5.261  53.167  0.00  0.00    -0.315 N 
ATOM     20  C   LIG    1       20.824   6.423  53.812  0.00  0.00    +0.131 C 
BRANCH  19  21
ATOM     21  C   LIG    1       20.842   4.057  53.569  0.00  0.00    +0.121 A 
ATOM     22  C   LIG    1       19.673   4.032  54.336  0.00  0.00    +0.043 A 
ATOM     23  C   LIG    1       19.066   2.830  54.711  0.00  0.00    +0.005 A 
ATOM     24  C   LIG    1       19.582   1.643  54.237  0.00  0.00    +0.020 A 
ATOM     25  C   LIG    1       20.692   1.723  53.423  0.00  0.00    +0.113 A 
ATOM     26  N   LIG    1       21.322   2.881  53.103  0.00  0.00    -0.240 NA
ENDBRANCH  19  21
ENDBRANCH  18  19
ENDBRANCH  17  18
ENDBRANCH  16  17
ENDBRANCH   4  16
TORSDOF 7
ENDMDL
MODEL 2
REMARK VINA RESULT:      -2.2      2.057      3.270
REMARK  Name = 
REMARK                            x       y       z     vdW  Elec       q    Type
REMARK                         _______ _______ _______ _____ _____    ______ ____
ROOT
ATOM      1  C   LIG    1       18.357   2.652  52.315  0.00  0.00    -0.046 A 
ATOM      2  C   LIG    1       19.536   2.740  53.048  0.00  0.00    +0.007 A 
ATOM      3  C   LIG    1       20.688   3.260  52.471  0.00  0.00    +0.046 A 
ATOM      4  C   LIG    1       20.722   3.659  51.129  0.00  0.00    +0.121 A 
ATOM      5  C   LIG    1       19.561   3.515  50.371  0.00  0.00    +0.046 A 
ATOM      6  C   LIG    1       18.381   3.025  50.963  0.00  0.00    +0.007 A 
ENDROOT
BRANCH   1   7
ATOM      7  C   LIG    1       17.105   2.158  53.001  0.00  0.00    +0.056 C 
BRANCH   7  10
ATOM      8  S   LIG    1       14.020   4.176  53.549  0.00  0.00    -0.039 S 
ATOM      9  C   LIG    1       14.569   2.681  53.063  0.00  0.00    +0.069 C 
ATOM     10  C   LIG    1       15.804   2.412  52.212  0.00  0.00    +0.112 C 
ATOM     11  S   LIG    1       15.361   0.804  51.418  0.00  0.00    -0.057 S 
ATOM     12  C   LIG    1       14.092   0.460  52.573  0.00  0.00    +0.277 C 
ATOM     13  O   LIG    1       13.442  -0.559  52.590  0.00  0.00    -0.263 OA
ATOM     14  N   LIG    1       13.881   1.545  53.367  0.00  0.00    -0.273 N 
ATOM     15  H   LIG    1       13.039   1.564  53.924  0.00  0.00    +0.156 HD
ENDBRANCH   7  10
ENDBRANCH   1   7
BRANCH   4  16
ATOM     16  O   LIG    1       21.835   4.192  50.497  0.00  0.00    -0.490 OA
BRANCH  16  17
ATOM     17  C   LIG    1       22.243   5.427  51.098  0.00  0.00    +0.248 C 
BRANCH  17  18
ATOM     18  C   LIG    1       21.771   6.718  50.444  0.00  0.00    +0.147 C 
BRANCH  18  19
ATOM     19  N   LIG    1       20.739   7.481  51.215  0.00  0.00    -0.315 N 
ATOM     20  C   LIG    1       20.747   8.915  50.892  0.00  0.00    +0.131 C 
BRANCH  19  21
ATOM     21  C   LIG    1       19.430   7.010  51.432  0.00  0.00    +0.121 A 
ATOM     22  C   LIG    1       18.971   6.633  52.697  0.00  0.00    +0.043 A 
ATOM     23  C   LIG    1       17.662   6.186  52.902  0.00  0.00    +0.005 A 
ATOM     24  C   LIG    1       16.776   6.204  51.845  0.00  0.00    +0.020 A 
ATOM     25  C   LIG    1       17.255   6.655  50.633  0.00  0.00    +0.113 A 
ATOM     26  N   LIG    1       18.540   7.034  50.412  0.00  0.00    -0.240 NA
ENDBRANCH  19  21
ENDBRANCH  18  19
ENDBRANCH  17  18
ENDBRANCH  16  17
ENDBRANCH   4  16
TORSDOF 7
ENDMDL
MODEL 3
REMARK VINA RESULT:      -2.2      1.989      3.726
REMARK  Name = 
REMARK                            x       y       z     vdW  Elec       q    Type
REMARK                         _______ _______ _______ _____ _____    ______ ____
ROOT
ATOM      1  C   LIG    1       17.908   2.824  52.931  0.00  0.00    -0.046 A 
ATOM      2  C   LIG    1       17.752   4.025  53.616  0.00  0.00    +0.007 A 
ATOM      3  C   LIG    1       18.837   4.628  54.241  0.00  0.00    +0.046 A 
ATOM      4  C   LIG    1       20.103   4.029  54.254  0.00  0.00    +0.121 A 
ATOM      5  C   LIG    1       20.252   2.794  53.623  0.00  0.00    +0.046 A 
ATOM      6  C   LIG    1       19.164   2.200  52.956  0.00  0.00    +0.007 A 
ENDROOT
BRANCH   1   7
ATOM      7  C   LIG    1       16.723   2.243  52.196  0.00  0.00    +0.056 C 
BRANCH   7  10
ATOM      8  S   LIG    1       17.066  -0.631  54.542  0.00  0.00    -0.039 S 
ATOM      9  C   LIG    1       16.144  -0.030  53.293  0.00  0.00    +0.069 C 
ATOM     10  C   LIG    1       15.760   1.429  53.083  0.00  0.00    +0.112 C 
ATOM     11  S   LIG    1       14.191   1.262  52.123  0.00  0.00    -0.057 S 
ATOM     12  C   LIG    1       14.511  -0.400  51.681  0.00  0.00    +0.277 C 
ATOM     13  O   LIG    1       13.806  -1.062  50.956  0.00  0.00    -0.263 OA
ATOM     14  N   LIG    1       15.600  -0.858  52.357  0.00  0.00    -0.273 N 
ATOM     15  H   LIG    1       15.764  -1.853  52.367  0.00  0.00    +0.156 HD
ENDBRANCH   7  10
ENDBRANCH   1   7
BRANCH   4  16
ATOM     16  O   LIG    1       21.226   4.580  54.851  0.00  0.00    -0.490 OA
BRANCH  16  17
ATOM     17  C   LIG    1       22.320   4.676  53.931  0.00  0.00    +0.248 C 
BRANCH  17  18
ATOM     18  C   LIG    1       22.400   5.923  53.062  0.00  0.00    +0.147 C 
BRANCH  18  19
ATOM     19  N   LIG    1       22.029   5.723  51.626  0.00  0.00    -0.315 N 
ATOM     20  C   LIG    1       22.795   4.637  50.997  0.00  0.00    +0.131 C 
BRANCH  19  21
ATOM     21  C   LIG    1       20.701   5.754  51.158  0.00  0.00    +0.121 A 
ATOM     22  C   LIG    1       20.160   4.728  50.379  0.00  0.00    +0.043 A 
ATOM     23  C   LIG    1       18.834   4.760  49.938  0.00  0.00    +0.005 A 
ATOM     24  C   LIG    1       18.014   5.787  50.357  0.00  0.00    +0.020 A 
ATOM     25  C   LIG    1       18.574   6.737  51.185  0.00  0.00    +0.113 A 
ATOM     26  N   LIG    1       19.876   6.744  51.570  0.00  0.00    -0.240 NA
ENDBRANCH  19  21
ENDBRANCH  18  19
ENDBRANCH  17  18
ENDBRANCH  16  17
ENDBRANCH   4  16
TORSDOF 7
ENDMDL
MODEL 4
REMARK VINA RESULT:      -2.0      2.558      3.744
REMARK  Name = 
REMARK                            x       y       z     vdW  Elec       q    Type
REMARK                         _______ _______ _______ _____ _____    ______ ____
ROOT
ATOM      1  C   LIG    1       16.151   3.802  53.252  0.00  0.00    -0.046 A 
ATOM      2  C   LIG    1       16.769   4.985  52.861  0.00  0.00    +0.007 A 
ATOM      3  C   LIG    1       17.265   5.869  53.811  0.00  0.00    +0.046 A 
ATOM      4  C   LIG    1       17.114   5.634  55.183  0.00  0.00    +0.121 A 
ATOM      5  C   LIG    1       16.440   4.481  55.582  0.00  0.00    +0.046 A 
ATOM      6  C   LIG    1       15.970   3.564  54.623  0.00  0.00    +0.007 A 
ENDROOT
BRANCH   1   7
ATOM      7  C   LIG    1       15.699   2.827  52.189  0.00  0.00    +0.056 C 
BRANCH   7  10
ATOM      8  S   LIG    1       16.568  -0.185  54.203  0.00  0.00    -0.039 S 
ATOM      9  C   LIG    1       15.737   0.325  52.853  0.00  0.00    +0.069 C 
ATOM     10  C   LIG    1       14.925   1.608  52.731  0.00  0.00    +0.112 C 
ATOM     11  S   LIG    1       13.704   1.149  51.424  0.00  0.00    -0.057 S 
ATOM     12  C   LIG    1       14.642  -0.224  50.878  0.00  0.00    +0.277 C 
ATOM     13  O   LIG    1       14.346  -0.924  49.938  0.00  0.00    -0.263 OA
ATOM     14  N   LIG    1       15.682  -0.442  51.728  0.00  0.00    -0.273 N 
ATOM     15  H   LIG    1       16.169  -1.323  51.660  0.00  0.00    +0.156 HD
ENDBRANCH   7  10
ENDBRANCH   1   7
BRANCH   4  16
ATOM     16  O   LIG    1       17.591   6.471  56.180  0.00  0.00    -0.490 OA
BRANCH  16  17
ATOM     17  C   LIG    1       18.482   5.782  57.066  0.00  0.00    +0.248 C 
BRANCH  17  18
ATOM     18  C   LIG    1       19.911   5.559  56.594  0.00  0.00    +0.147 C 
BRANCH  18  19
ATOM     19  N   LIG    1       20.222   4.164  56.147  0.00  0.00    -0.315 N 
ATOM     20  C   LIG    1       19.669   3.149  57.055  0.00  0.00    +0.131 C 
BRANCH  19  21
ATOM     21  C   LIG    1       20.148   3.747  54.804  0.00  0.00    +0.121 A 
ATOM     22  C   LIG    1       19.519   2.558  54.424  0.00  0.00    +0.043 A 
ATOM     23  C   LIG    1       19.435   2.165  53.085  0.00  0.00    +0.005 A 
ATOM     24  C   LIG    1       19.905   3.016  52.107  0.00  0.00    +0.020 A 
ATOM     25  C   LIG    1       20.450   4.212  52.526  0.00  0.00    +0.113 A 
ATOM     26  N   LIG    1       20.590   4.574  53.827  0.00  0.00    -0.240 NA
ENDBRANCH  19  21
ENDBRANCH  18  19
ENDBRANCH  17  18
ENDBRANCH  16  17
ENDBRANCH   4  16
TORSDOF 7
ENDMDL
MODEL 5
REMARK VINA RESULT:      -2.0      2.483      3.973
REMARK  Name = 
REMARK                            x       y       z     vdW  Elec       q    Type
REMARK                         _______ _______ _______ _____ _____    ______ ____
ROOT
ATOM      1  C   LIG    1       19.090   3.683  51.096  0.00  0.00    -0.046 A 
ATOM      2  C   LIG    1       20.001   3.770  52.143  0.00  0.00    +0.007 A 
ATOM      3  C   LIG    1       21.018   4.717  52.117  0.00  0.00    +0.046 A 
ATOM      4  C   LIG    1       21.198   5.571  51.022  0.00  0.00    +0.121 A 
ATOM      5  C   LIG    1       20.327   5.446  49.941  0.00  0.00    +0.046 A 
ATOM      6  C   LIG    1       19.271   4.515  49.981  0.00  0.00    +0.007 A 
ENDROOT
BRANCH   1   7
ATOM      7  C   LIG    1       17.950   2.697  51.200  0.00  0.00    +0.056 C 
BRANCH   7  10
ATOM      8  S   LIG    1       18.777   0.923  54.371  0.00  0.00    -0.039 S 
ATOM      9  C   LIG    1       17.531   1.278  53.326  0.00  0.00    +0.069 C 
ATOM     10  C   LIG    1       17.316   2.602  52.603  0.00  0.00    +0.112 C 
ATOM     11  S   LIG    1       15.487   2.588  52.343  0.00  0.00    -0.057 S 
ATOM     12  C   LIG    1       15.351   0.867  52.631  0.00  0.00    +0.277 C 
ATOM     13  O   LIG    1       14.325   0.237  52.533  0.00  0.00    -0.263 OA
ATOM     14  N   LIG    1       16.539   0.377  53.079  0.00  0.00    -0.273 N 
ATOM     15  H   LIG    1       16.544  -0.545  53.489  0.00  0.00    +0.156 HD
ENDBRANCH   7  10
ENDBRANCH   1   7
BRANCH   4  16
ATOM     16  O   LIG    1       22.186   6.540  50.936  0.00  0.00    -0.490 OA
BRANCH  16  17
ATOM     17  C   LIG    1       21.646   7.813  50.562  0.00  0.00    +0.248 C 
BRANCH  17  18
ATOM     18  C   LIG    1       21.250   8.766  51.681  0.00  0.00    +0.147 C 
BRANCH  18  19
ATOM     19  N   LIG    1       19.798   9.128  51.725  0.00  0.00    -0.315 N 
ATOM     20  C   LIG    1       19.468  10.227  50.806  0.00  0.00    +0.131 C 
BRANCH  19  21
ATOM     21  C   LIG    1       18.764   8.173  51.778  0.00  0.00    +0.121 A 
ATOM     22  C   LIG    1       18.534   7.383  52.907  0.00  0.00    +0.043 A 
ATOM     23  C   LIG    1       17.491   6.453  52.953  0.00  0.00    +0.005 A 
ATOM     24  C   LIG    1       16.613   6.378  51.893  0.00  0.00    +0.020 A 
ATOM     25  C   LIG    1       16.837   7.231  50.833  0.00  0.00    +0.113 A 
ATOM     26  N   LIG    1       17.882   8.095  50.754  0.00  0.00    -0.240 NA
ENDBRANCH  19  21
ENDBRANCH  18  19
ENDBRANCH  17  18
ENDBRANCH  16  17
ENDBRANCH   4  16
TORSDOF 7
ENDMDL
MODEL 6
REMARK VINA RESULT:      -1.9      2.868      6.720
REMARK  Name = 
REMARK                            x       y       z     vdW  Elec       q    Type
REMARK                         _______ _______ _______ _____ _____    ______ ____
ROOT
ATOM      1  C   LIG    1       16.356   3.803  52.321  0.00  0.00    -0.046 A 
ATOM      2  C   LIG    1       15.143   3.988  52.976  0.00  0.00    +0.007 A 
ATOM      3  C   LIG    1       14.288   2.914  53.194  0.00  0.00    +0.046 A 
ATOM      4  C   LIG    1       14.584   1.631  52.719  0.00  0.00    +0.121 A 
ATOM      5  C   LIG    1       15.769   1.451  52.006  0.00  0.00    +0.046 A 
ATOM      6  C   LIG    1       16.656   2.527  51.817  0.00  0.00    +0.007 A 
ENDROOT
BRANCH   1   7
ATOM      7  C   LIG    1       17.295   4.977  52.176  0.00  0.00    +0.056 C 
BRANCH   7  10
ATOM      8  S   LIG    1       20.624   3.758  51.026  0.00  0.00    -0.039 S 
ATOM      9  C   LIG    1       19.593   5.065  50.984  0.00  0.00    +0.069 C 
ATOM     10  C   LIG    1       18.076   5.007  50.846  0.00  0.00    +0.112 C 
ATOM     11  S   LIG    1       17.714   6.644  50.072  0.00  0.00    -0.057 S 
ATOM     12  C   LIG    1       19.270   7.317  50.510  0.00  0.00    +0.277 C 
ATOM     13  O   LIG    1       19.603   8.460  50.301  0.00  0.00    -0.263 OA
ATOM     14  N   LIG    1       20.070   6.341  51.017  0.00  0.00    -0.273 N 
ATOM     15  H   LIG    1       21.056   6.538  51.104  0.00  0.00    +0.156 HD
ENDBRANCH   7  10
ENDBRANCH   1   7
BRANCH   4  16
ATOM     16  O   LIG    1       13.778   0.518  52.909  0.00  0.00    -0.490 OA
BRANCH  16  17
ATOM     17  C   LIG    1       14.478  -0.529  53.593  0.00  0.00    +0.248 C 
BRANCH  17  18
ATOM     18  C   LIG    1       14.726  -0.352  55.084  0.00  0.00    +0.147 C 
BRANCH  18  19
ATOM     19  N   LIG    1       16.148  -0.082  55.465  0.00  0.00    -0.315 N 
ATOM     20  C   LIG    1       17.096  -0.927  54.724  0.00  0.00    +0.131 C 
BRANCH  19  21
ATOM     21  C   LIG    1       16.663   1.214  55.664  0.00  0.00    +0.121 A 
ATOM     22  C   LIG    1       17.886   1.623  55.125  0.00  0.00    +0.043 A 
ATOM     23  C   LIG    1       18.376   2.919  55.315  0.00  0.00    +0.005 A 
ATOM     24  C   LIG    1       17.592   3.842  55.973  0.00  0.00    +0.020 A 
ATOM     25  C   LIG    1       16.361   3.411  56.422  0.00  0.00    +0.113 A 
ATOM     26  N   LIG    1       15.903   2.140  56.294  0.00  0.00    -0.240 NA
ENDBRANCH  19  21
ENDBRANCH  18  19
ENDBRANCH  17  18
ENDBRANCH  16  17
ENDBRANCH   4  16
TORSDOF 7
ENDMDL
MODEL 7
REMARK VINA RESULT:      -1.8      3.180      4.632
REMARK  Name = 
REMARK                            x       y       z     vdW  Elec       q    Type
REMARK                         _______ _______ _______ _____ _____    ______ ____
ROOT
ATOM      1  C   LIG    1       18.528   4.358  51.488  0.00  0.00    -0.046 A 
ATOM      2  C   LIG    1       19.188   5.063  52.489  0.00  0.00    +0.007 A 
ATOM      3  C   LIG    1       19.442   6.422  52.346  0.00  0.00    +0.046 A 
ATOM      4  C   LIG    1       19.098   7.114  51.178  0.00  0.00    +0.121 A 
ATOM      5  C   LIG    1       18.493   6.400  50.145  0.00  0.00    +0.046 A 
ATOM      6  C   LIG    1       18.199   5.032  50.302  0.00  0.00    +0.007 A 
ENDROOT
BRANCH   1   7
ATOM      7  C   LIG    1       18.197   2.902  51.715  0.00  0.00    +0.056 C 
BRANCH   7  10
ATOM      8  S   LIG    1       18.506   1.085  54.954  0.00  0.00    -0.039 S 
ATOM      9  C   LIG    1       17.504   1.320  53.645  0.00  0.00    +0.069 C 
ATOM     10  C   LIG    1       17.271   2.640  52.920  0.00  0.00    +0.112 C 
ATOM     11  S   LIG    1       15.579   2.384  52.224  0.00  0.00    -0.057 S 
ATOM     12  C   LIG    1       15.638   0.647  52.433  0.00  0.00    +0.277 C 
ATOM     13  O   LIG    1       14.770  -0.114  52.076  0.00  0.00    -0.263 OA
ATOM     14  N   LIG    1       16.746   0.304  53.146  0.00  0.00    -0.273 N 
ATOM     15  H   LIG    1       16.791  -0.630  53.526  0.00  0.00    +0.156 HD
ENDBRANCH   7  10
ENDBRANCH   1   7
BRANCH   4  16
ATOM     16  O   LIG    1       19.316   8.469  50.976  0.00  0.00    -0.490 OA
BRANCH  16  17
ATOM     17  C   LIG    1       18.280   9.057  50.179  0.00  0.00    +0.248 C 
BRANCH  17  18
ATOM     18  C   LIG    1       17.203   9.852  50.903  0.00  0.00    +0.147 C 
BRANCH  18  19
ATOM     19  N   LIG    1       16.016   9.056  51.350  0.00  0.00    -0.315 N 
ATOM     20  C   LIG    1       15.259   8.498  50.221  0.00  0.00    +0.131 C 
BRANCH  19  21
ATOM     21  C   LIG    1       16.050   8.162  52.438  0.00  0.00    +0.121 A 
ATOM     22  C   LIG    1       15.569   6.853  52.345  0.00  0.00    +0.043 A 
ATOM     23  C   LIG    1       15.626   5.970  53.427  0.00  0.00    +0.005 A 
ATOM     24  C   LIG    1       16.254   6.372  54.587  0.00  0.00    +0.020 A 
ATOM     25  C   LIG    1       16.780   7.647  54.605  0.00  0.00    +0.113 A 
ATOM     26  N   LIG    1       16.676   8.531  53.580  0.00  0.00    -0.240 NA
ENDBRANCH  19  21
ENDBRANCH  18  19
ENDBRANCH  17  18
ENDBRANCH  16  17
ENDBRANCH   4  16
TORSDOF 7
ENDMDL
MODEL 8
REMARK VINA RESULT:      -1.8      3.054      7.301
REMARK  Name = 
REMARK                            x       y       z     vdW  Elec       q    Type
REMARK                         _______ _______ _______ _____ _____    ______ ____
ROOT
ATOM      1  C   LIG    1       20.193   2.965  54.040  0.00  0.00    -0.046 A 
ATOM      2  C   LIG    1       20.181   1.656  53.569  0.00  0.00    +0.007 A 
ATOM      3  C   LIG    1       19.136   0.799  53.894  0.00  0.00    +0.046 A 
ATOM      4  C   LIG    1       18.096   1.197  54.743  0.00  0.00    +0.121 A 
ATOM      5  C   LIG    1       18.135   2.487  55.270  0.00  0.00    +0.046 A 
ATOM      6  C   LIG    1       19.171   3.370  54.913  0.00  0.00    +0.007 A 
ENDROOT
BRANCH   1   7
ATOM      7  C   LIG    1       21.302   3.890  53.599  0.00  0.00    +0.056 C 
BRANCH   7  10
ATOM      8  S   LIG    1       23.505   2.059  51.215  0.00  0.00    -0.039 S 
ATOM      9  C   LIG    1       22.951   3.574  51.627  0.00  0.00    +0.069 C 
ATOM     10  C   LIG    1       21.537   3.921  52.075  0.00  0.00    +0.112 C 
ATOM     11  S   LIG    1       21.415   5.694  51.570  0.00  0.00    -0.057 S 
ATOM     12  C   LIG    1       23.149   5.880  51.412  0.00  0.00    +0.277 C 
ATOM     13  O   LIG    1       23.702   6.919  51.143  0.00  0.00    -0.263 OA
ATOM     14  N   LIG    1       23.757   4.668  51.532  0.00  0.00    -0.273 N 
ATOM     15  H   LIG    1       24.722   4.596  51.246  0.00  0.00    +0.156 HD
ENDBRANCH   7  10
ENDBRANCH   1   7
BRANCH   4  16
ATOM     16  O   LIG    1       17.023   0.394  55.099  0.00  0.00    -0.490 OA
BRANCH  16  17
ATOM     17  C   LIG    1       16.321  -0.089  53.948  0.00  0.00    +0.248 C 
BRANCH  17  18
ATOM     18  C   LIG    1       15.061   0.655  53.528  0.00  0.00    +0.147 C 
BRANCH  18  19
ATOM     19  N   LIG    1       15.198   1.492  52.294  0.00  0.00    -0.315 N 
ATOM     20  C   LIG    1       13.917   1.676  51.599  0.00  0.00    +0.131 C 
BRANCH  19  21
ATOM     21  C   LIG    1       15.988   2.656  52.232  0.00  0.00    +0.121 A 
ATOM     22  C   LIG    1       17.150   2.731  51.459  0.00  0.00    +0.043 A 
ATOM     23  C   LIG    1       17.915   3.899  51.391  0.00  0.00    +0.005 A 
ATOM     24  C   LIG    1       17.462   5.033  52.030  0.00  0.00    +0.020 A 
ATOM     25  C   LIG    1       16.272   4.931  52.719  0.00  0.00    +0.113 A 
ATOM     26  N   LIG    1       15.555   3.785  52.840  0.00  0.00    -0.240 NA
ENDBRANCH  19  21
ENDBRANCH  18  19
ENDBRANCH  17  18
ENDBRANCH  16  17
ENDBRANCH   4  16
TORSDOF 7
ENDMDL
MODEL 9
REMARK VINA RESULT:      -1.7      3.914      7.224
REMARK  Name = 
REMARK                            x       y       z     vdW  Elec       q    Type
REMARK                         _______ _______ _______ _____ _____    ______ ____
ROOT
ATOM      1  C   LIG    1       20.783   3.457  51.351  0.00  0.00    -0.046 A 
ATOM      2  C   LIG    1       20.399   3.023  52.616  0.00  0.00    +0.007 A 
ATOM      3  C   LIG    1       19.090   2.622  52.857  0.00  0.00    +0.046 A 
ATOM      4  C   LIG    1       18.106   2.691  51.864  0.00  0.00    +0.121 A 
ATOM      5  C   LIG    1       18.469   3.185  50.612  0.00  0.00    +0.046 A 
ATOM      6  C   LIG    1       19.802   3.556  50.353  0.00  0.00    +0.007 A 
ENDROOT
BRANCH   1   7
ATOM      7  C   LIG    1       22.232   3.806  51.107  0.00  0.00    +0.056 C 
BRANCH   7  10
ATOM      8  S   LIG    1       23.882   3.433  54.427  0.00  0.00    -0.039 S 
ATOM      9  C   LIG    1       24.162   3.406  52.786  0.00  0.00    +0.069 C 
ATOM     10  C   LIG    1       23.239   2.816  51.728  0.00  0.00    +0.112 C 
ATOM     11  S   LIG    1       24.437   2.391  50.389  0.00  0.00    -0.057 S 
ATOM     12  C   LIG    1       25.695   3.420  51.039  0.00  0.00    +0.277 C 
ATOM     13  O   LIG    1       26.768   3.602  50.514  0.00  0.00    -0.263 OA
ATOM     14  N   LIG    1       25.324   3.888  52.262  0.00  0.00    -0.273 N 
ATOM     15  H   LIG    1       26.036   4.308  52.841  0.00  0.00    +0.156 HD
ENDBRANCH   7  10
ENDBRANCH   1   7
BRANCH   4  16
ATOM     16  O   LIG    1       16.787   2.300  52.038  0.00  0.00    -0.490 OA
BRANCH  16  17
ATOM     17  C   LIG    1       16.207   2.903  53.201  0.00  0.00    +0.248 C 
BRANCH  17  18
ATOM     18  C   LIG    1       15.553   4.267  53.034  0.00  0.00    +0.147 C 
BRANCH  18  19
ATOM     19  N   LIG    1       16.398   5.433  53.444  0.00  0.00    -0.315 N 
ATOM     20  C   LIG    1       16.964   5.267  54.790  0.00  0.00    +0.131 C 
BRANCH  19  21
ATOM     21  C   LIG    1       17.308   6.071  52.579  0.00  0.00    +0.121 A 
ATOM     22  C   LIG    1       18.637   6.314  52.940  0.00  0.00    +0.043 A 
ATOM     23  C   LIG    1       19.536   6.930  52.064  0.00  0.00    +0.005 A 
ATOM     24  C   LIG    1       19.125   7.224  50.781  0.00  0.00    +0.020 A 
ATOM     25  C   LIG    1       17.827   6.897  50.448  0.00  0.00    +0.113 A 
ATOM     26  N   LIG    1       16.931   6.354  51.311  0.00  0.00    -0.240 NA
ENDBRANCH  19  21
ENDBRANCH  18  19
ENDBRANCH  17  18
ENDBRANCH  16  17
ENDBRANCH   4  16
TORSDOF 7
ENDMDL
