MODEL 1
REMARK VINA RESULT:      -8.4      0.000      0.000
REMARK  Name = 
REMARK                            x       y       z     vdW  Elec       q    Type
REMARK                         _______ _______ _______ _____ _____    ______ ____
ROOT
ATOM      1  C   LIG    1       27.522  -0.391  19.858  0.00  0.00    -0.046 A 
ATOM      2  C   LIG    1       27.265  -1.157  18.726  0.00  0.00    +0.007 A 
ATOM      3  C   LIG    1       26.655  -0.590  17.613  0.00  0.00    +0.046 A 
ATOM      4  C   LIG    1       26.230   0.743  17.608  0.00  0.00    +0.121 A 
ATOM      5  C   LIG    1       26.427   1.500  18.762  0.00  0.00    +0.046 A 
ATOM      6  C   LIG    1       27.079   0.941  19.877  0.00  0.00    +0.007 A 
ENDROOT
BRANCH   1   7
ATOM      7  C   LIG    1       28.260  -1.021  21.015  0.00  0.00    +0.056 C 
BRANCH   7  10
ATOM      8  S   LIG    1       30.561   1.907  21.140  0.00  0.00    -0.039 S 
ATOM      9  C   LIG    1       30.126   0.516  21.944  0.00  0.00    +0.069 C 
ATOM     10  C   LIG    1       28.710  -0.024  22.102  0.00  0.00    +0.112 C 
ATOM     11  S   LIG    1       28.858  -0.996  23.665  0.00  0.00    -0.057 S 
ATOM     12  C   LIG    1       30.606  -1.051  23.592  0.00  0.00    +0.277 C 
ATOM     13  O   LIG    1       31.305  -1.647  24.378  0.00  0.00    -0.263 OA
ATOM     14  N   LIG    1       31.053  -0.242  22.593  0.00  0.00    -0.273 N 
ATOM     15  H   LIG    1       32.035  -0.009  22.580  0.00  0.00    +0.156 HD
ENDBRANCH   7  10
ENDBRANCH   1   7
BRANCH   4  16
ATOM     16  O   LIG    1       25.624   1.370  16.530  0.00  0.00    -0.490 OA
BRANCH  16  17
ATOM     17  C   LIG    1       25.658   2.796  16.661  0.00  0.00    +0.248 C 
BRANCH  17  18
ATOM     18  C   LIG    1       24.395   3.566  16.300  0.00  0.00    +0.147 C 
BRANCH  18  19
ATOM     19  N   LIG    1       23.952   3.430  14.876  0.00  0.00    -0.315 N 
ATOM     20  C   LIG    1       22.587   3.931  14.665  0.00  0.00    +0.131 C 
BRANCH  19  21
ATOM     21  C   LIG    1       24.782   3.720  13.776  0.00  0.00    +0.121 A 
ATOM     22  C   LIG    1       25.864   4.601  13.867  0.00  0.00    +0.043 A 
ATOM     23  C   LIG    1       26.692   4.865  12.773  0.00  0.00    +0.005 A 
ATOM     24  C   LIG    1       26.490   4.171  11.599  0.00  0.00    +0.020 A 
ATOM     25  C   LIG    1       25.458   3.258  11.580  0.00  0.00    +0.113 A 
ATOM     26  N   LIG    1       24.612   3.039  12.619  0.00  0.00    -0.240 NA
ENDBRANCH  19  21
ENDBRANCH  18  19
ENDBRANCH  17  18
ENDBRANCH  16  17
ENDBRANCH   4  16
TORSDOF 7
ENDMDL
MODEL 2
REMARK VINA RESULT:      -7.3      3.550      9.790
REMARK  Name = 
REMARK                            x       y       z     vdW  Elec       q    Type
REMARK                         _______ _______ _______ _____ _____    ______ ____
ROOT
ATOM      1  C   LIG    1       25.847   2.099  16.881  0.00  0.00    -0.046 A 
ATOM      2  C   LIG    1       25.747   3.241  17.668  0.00  0.00    +0.007 A 
ATOM      3  C   LIG    1       26.021   3.187  19.030  0.00  0.00    +0.046 A 
ATOM      4  C   LIG    1       26.350   1.983  19.665  0.00  0.00    +0.121 A 
ATOM      5  C   LIG    1       26.390   0.822  18.894  0.00  0.00    +0.046 A 
ATOM      6  C   LIG    1       26.151   0.880  17.507  0.00  0.00    +0.007 A 
ENDROOT
BRANCH   1   7
ATOM      7  C   LIG    1       25.621   2.215  15.392  0.00  0.00    +0.056 C 
BRANCH   7  10
ATOM      8  S   LIG    1       22.447   3.934  14.468  0.00  0.00    -0.039 S 
ATOM      9  C   LIG    1       24.025   3.701  13.994  0.00  0.00    +0.069 C 
ATOM     10  C   LIG    1       25.238   3.631  14.915  0.00  0.00    +0.112 C 
ATOM     11  S   LIG    1       26.591   4.179  13.784  0.00  0.00    -0.057 S 
ATOM     12  C   LIG    1       25.645   3.896  12.339  0.00  0.00    +0.277 C 
ATOM     13  O   LIG    1       26.061   4.034  11.212  0.00  0.00    -0.263 OA
ATOM     14  N   LIG    1       24.359   3.606  12.676  0.00  0.00    -0.273 N 
ATOM     15  H   LIG    1       23.662   3.638  11.947  0.00  0.00    +0.156 HD
ENDBRANCH   7  10
ENDBRANCH   1   7
BRANCH   4  16
ATOM     16  O   LIG    1       26.642   1.862  21.015  0.00  0.00    -0.490 OA
BRANCH  16  17
ATOM     17  C   LIG    1       27.742   0.972  21.240  0.00  0.00    +0.248 C 
BRANCH  17  18
ATOM     18  C   LIG    1       29.137   1.578  21.291  0.00  0.00    +0.147 C 
BRANCH  18  19
ATOM     19  N   LIG    1       30.260   0.588  21.310  0.00  0.00    -0.315 N 
ATOM     20  C   LIG    1       31.564   1.226  21.542  0.00  0.00    +0.131 C 
BRANCH  19  21
ATOM     21  C   LIG    1       30.179  -0.663  21.952  0.00  0.00    +0.121 A 
ATOM     22  C   LIG    1       30.614  -1.844  21.345  0.00  0.00    +0.043 A 
ATOM     23  C   LIG    1       30.547  -3.076  22.001  0.00  0.00    +0.005 A 
ATOM     24  C   LIG    1       30.123  -3.114  23.312  0.00  0.00    +0.020 A 
ATOM     25  C   LIG    1       29.775  -1.913  23.893  0.00  0.00    +0.113 A 
ATOM     26  N   LIG    1       29.781  -0.720  23.244  0.00  0.00    -0.240 NA
ENDBRANCH  19  21
ENDBRANCH  18  19
ENDBRANCH  17  18
ENDBRANCH  16  17
ENDBRANCH   4  16
TORSDOF 7
ENDMDL
MODEL 3
REMARK VINA RESULT:      -6.4      3.748      9.862
REMARK  Name = 
REMARK                            x       y       z     vdW  Elec       q    Type
REMARK                         _______ _______ _______ _____ _____    ______ ____
ROOT
ATOM      1  C   LIG    1       25.925   2.475  16.076  0.00  0.00    -0.046 A 
ATOM      2  C   LIG    1       26.082   1.206  16.624  0.00  0.00    +0.007 A 
ATOM      3  C   LIG    1       26.163   1.037  18.001  0.00  0.00    +0.046 A 
ATOM      4  C   LIG    1       26.146   2.129  18.878  0.00  0.00    +0.121 A 
ATOM      5  C   LIG    1       26.052   3.408  18.332  0.00  0.00    +0.046 A 
ATOM      6  C   LIG    1       25.931   3.581  16.940  0.00  0.00    +0.007 A 
ENDROOT
BRANCH   1   7
ATOM      7  C   LIG    1       25.758   2.610  14.581  0.00  0.00    +0.056 C 
BRANCH   7  10
ATOM      8  S   LIG    1       22.478   4.073  15.576  0.00  0.00    -0.039 S 
ATOM      9  C   LIG    1       23.411   3.657  14.261  0.00  0.00    +0.069 C 
ATOM     10  C   LIG    1       24.920   3.828  14.141  0.00  0.00    +0.112 C 
ATOM     11  S   LIG    1       25.131   3.966  12.312  0.00  0.00    -0.057 S 
ATOM     12  C   LIG    1       23.552   3.293  11.970  0.00  0.00    +0.277 C 
ATOM     13  O   LIG    1       23.130   3.072  10.859  0.00  0.00    -0.263 OA
ATOM     14  N   LIG    1       22.846   3.160  13.125  0.00  0.00    -0.273 N 
ATOM     15  H   LIG    1       21.853   2.993  13.053  0.00  0.00    +0.156 HD
ENDBRANCH   7  10
ENDBRANCH   1   7
BRANCH   4  16
ATOM     16  O   LIG    1       26.215   2.028  20.259  0.00  0.00    -0.490 OA
BRANCH  16  17
ATOM     17  C   LIG    1       27.462   2.523  20.762  0.00  0.00    +0.248 C 
BRANCH  17  18
ATOM     18  C   LIG    1       28.678   1.615  20.647  0.00  0.00    +0.147 C 
BRANCH  18  19
ATOM     19  N   LIG    1       28.510   0.249  21.237  0.00  0.00    -0.315 N 
ATOM     20  C   LIG    1       28.259  -0.775  20.213  0.00  0.00    +0.131 C 
BRANCH  19  21
ATOM     21  C   LIG    1       29.318  -0.250  22.276  0.00  0.00    +0.121 A 
ATOM     22  C   LIG    1       28.796  -0.992  23.339  0.00  0.00    +0.043 A 
ATOM     23  C   LIG    1       29.612  -1.499  24.354  0.00  0.00    +0.005 A 
ATOM     24  C   LIG    1       30.979  -1.340  24.256  0.00  0.00    +0.020 A 
ATOM     25  C   LIG    1       31.453  -0.666  23.150  0.00  0.00    +0.113 A 
ATOM     26  N   LIG    1       30.663  -0.119  22.192  0.00  0.00    -0.240 NA
ENDBRANCH  19  21
ENDBRANCH  18  19
ENDBRANCH  17  18
ENDBRANCH  16  17
ENDBRANCH   4  16
TORSDOF 7
ENDMDL
MODEL 4
REMARK VINA RESULT:      -6.1      3.158      9.515
REMARK  Name = 
REMARK                            x       y       z     vdW  Elec       q    Type
REMARK                         _______ _______ _______ _____ _____    ______ ____
ROOT
ATOM      1  C   LIG    1       26.083   3.249  19.102  0.00  0.00    -0.046 A 
ATOM      2  C   LIG    1       27.390   3.723  19.085  0.00  0.00    +0.007 A 
ATOM      3  C   LIG    1       28.356   3.161  19.911  0.00  0.00    +0.046 A 
ATOM      4  C   LIG    1       28.042   2.146  20.822  0.00  0.00    +0.121 A 
ATOM      5  C   LIG    1       26.720   1.708  20.890  0.00  0.00    +0.046 A 
ATOM      6  C   LIG    1       25.747   2.248  20.027  0.00  0.00    +0.007 A 
ENDROOT
BRANCH   1   7
ATOM      7  C   LIG    1       25.081   3.829  18.131  0.00  0.00    +0.056 C 
BRANCH   7  10
ATOM      8  S   LIG    1       26.364   0.607  16.768  0.00  0.00    -0.039 S 
ATOM      9  C   LIG    1       25.791   2.108  16.331  0.00  0.00    +0.069 C 
ATOM     10  C   LIG    1       24.654   2.866  17.005  0.00  0.00    +0.112 C 
ATOM     11  S   LIG    1       24.047   3.926  15.621  0.00  0.00    -0.057 S 
ATOM     12  C   LIG    1       25.502   3.711  14.673  0.00  0.00    +0.277 C 
ATOM     13  O   LIG    1       25.717   4.257  13.616  0.00  0.00    -0.263 OA
ATOM     14  N   LIG    1       26.295   2.767  15.250  0.00  0.00    -0.273 N 
ATOM     15  H   LIG    1       27.052   2.388  14.700  0.00  0.00    +0.156 HD
ENDBRANCH   7  10
ENDBRANCH   1   7
BRANCH   4  16
ATOM     16  O   LIG    1       28.959   1.539  21.667  0.00  0.00    -0.490 OA
BRANCH  16  17
ATOM     17  C   LIG    1       30.283   2.044  21.459  0.00  0.00    +0.248 C 
BRANCH  17  18
ATOM     18  C   LIG    1       31.341   1.065  20.971  0.00  0.00    +0.147 C 
BRANCH  18  19
ATOM     19  N   LIG    1       31.844   0.105  22.004  0.00  0.00    -0.315 N 
ATOM     20  C   LIG    1       32.467   0.788  23.146  0.00  0.00    +0.131 C 
BRANCH  19  21
ATOM     21  C   LIG    1       31.127  -1.036  22.415  0.00  0.00    +0.121 A 
ATOM     22  C   LIG    1       31.198  -2.251  21.729  0.00  0.00    +0.043 A 
ATOM     23  C   LIG    1       30.497  -3.381  22.159  0.00  0.00    +0.005 A 
ATOM     24  C   LIG    1       29.789  -3.319  23.341  0.00  0.00    +0.020 A 
ATOM     25  C   LIG    1       29.809  -2.120  24.022  0.00  0.00    +0.113 A 
ATOM     26  N   LIG    1       30.439  -1.001  23.580  0.00  0.00    -0.240 NA
ENDBRANCH  19  21
ENDBRANCH  18  19
ENDBRANCH  17  18
ENDBRANCH  16  17
ENDBRANCH   4  16
TORSDOF 7
ENDMDL
MODEL 5
REMARK VINA RESULT:      -6.0      3.085      8.462
REMARK  Name = 
REMARK                            x       y       z     vdW  Elec       q    Type
REMARK                         _______ _______ _______ _____ _____    ______ ____
ROOT
ATOM      1  C   LIG    1       25.962   3.717  18.890  0.00  0.00    -0.046 A 
ATOM      2  C   LIG    1       27.298   3.989  18.616  0.00  0.00    +0.007 A 
ATOM      3  C   LIG    1       28.298   3.563  19.483  0.00  0.00    +0.046 A 
ATOM      4  C   LIG    1       27.998   2.902  20.680  0.00  0.00    +0.121 A 
ATOM      5  C   LIG    1       26.657   2.683  20.993  0.00  0.00    +0.046 A 
ATOM      6  C   LIG    1       25.645   3.078  20.098  0.00  0.00    +0.007 A 
ENDROOT
BRANCH   1   7
ATOM      7  C   LIG    1       24.912   4.124  17.883  0.00  0.00    +0.056 C 
BRANCH   7  10
ATOM      8  S   LIG    1       26.423   0.889  16.818  0.00  0.00    -0.039 S 
ATOM      9  C   LIG    1       25.733   2.292  16.247  0.00  0.00    +0.069 C 
ATOM     10  C   LIG    1       24.548   3.025  16.864  0.00  0.00    +0.112 C 
ATOM     11  S   LIG    1       23.847   3.895  15.394  0.00  0.00    -0.057 S 
ATOM     12  C   LIG    1       25.305   3.698  14.446  0.00  0.00    +0.277 C 
ATOM     13  O   LIG    1       25.466   4.151  13.337  0.00  0.00    -0.263 OA
ATOM     14  N   LIG    1       26.174   2.877  15.098  0.00  0.00    -0.273 N 
ATOM     15  H   LIG    1       26.952   2.504  14.575  0.00  0.00    +0.156 HD
ENDBRANCH   7  10
ENDBRANCH   1   7
BRANCH   4  16
ATOM     16  O   LIG    1       28.947   2.446  21.584  0.00  0.00    -0.490 OA
BRANCH  16  17
ATOM     17  C   LIG    1       30.092   1.903  20.916  0.00  0.00    +0.248 C 
BRANCH  17  18
ATOM     18  C   LIG    1       30.854   0.789  21.620  0.00  0.00    +0.147 C 
BRANCH  18  19
ATOM     19  N   LIG    1       30.074  -0.467  21.853  0.00  0.00    -0.315 N 
ATOM     20  C   LIG    1       30.034  -0.846  23.273  0.00  0.00    +0.131 C 
BRANCH  19  21
ATOM     21  C   LIG    1       28.852  -0.749  21.212  0.00  0.00    +0.121 A 
ATOM     22  C   LIG    1       27.616  -0.468  21.801  0.00  0.00    +0.043 A 
ATOM     23  C   LIG    1       26.411  -0.734  21.146  0.00  0.00    +0.005 A 
ATOM     24  C   LIG    1       26.443  -1.203  19.849  0.00  0.00    +0.020 A 
ATOM     25  C   LIG    1       27.686  -1.394  19.284  0.00  0.00    +0.113 A 
ATOM     26  N   LIG    1       28.861  -1.194  19.934  0.00  0.00    -0.240 NA
ENDBRANCH  19  21
ENDBRANCH  18  19
ENDBRANCH  17  18
ENDBRANCH  16  17
ENDBRANCH   4  16
TORSDOF 7
ENDMDL
MODEL 6
REMARK VINA RESULT:      -5.9      3.217      8.986
REMARK  Name = 
REMARK                            x       y       z     vdW  Elec       q    Type
REMARK                         _______ _______ _______ _____ _____    ______ ____
ROOT
ATOM      1  C   LIG    1       25.599   3.716  18.830  0.00  0.00    -0.046 A 
ATOM      2  C   LIG    1       26.843   4.309  18.646  0.00  0.00    +0.007 A 
ATOM      3  C   LIG    1       27.904   3.999  19.489  0.00  0.00    +0.046 A 
ATOM      4  C   LIG    1       27.749   3.131  20.576  0.00  0.00    +0.121 A 
ATOM      5  C   LIG    1       26.488   2.582  20.804  0.00  0.00    +0.046 A 
ATOM      6  C   LIG    1       25.421   2.863  19.930  0.00  0.00    +0.007 A 
ENDROOT
BRANCH   1   7
ATOM      7  C   LIG    1       24.494   4.016  17.844  0.00  0.00    +0.056 C 
BRANCH   7  10
ATOM      8  S   LIG    1       26.299   0.911  16.850  0.00  0.00    -0.039 S 
ATOM      9  C   LIG    1       25.658   2.329  16.260  0.00  0.00    +0.069 C 
ATOM     10  C   LIG    1       24.355   2.981  16.709  0.00  0.00    +0.112 C 
ATOM     11  S   LIG    1       23.879   3.931  15.199  0.00  0.00    -0.057 S 
ATOM     12  C   LIG    1       25.483   3.845  14.506  0.00  0.00    +0.277 C 
ATOM     13  O   LIG    1       25.811   4.380  13.473  0.00  0.00    -0.263 OA
ATOM     14  N   LIG    1       26.262   3.007  15.244  0.00  0.00    -0.273 N 
ATOM     15  H   LIG    1       27.133   2.696  14.840  0.00  0.00    +0.156 HD
ENDBRANCH   7  10
ENDBRANCH   1   7
BRANCH   4  16
ATOM     16  O   LIG    1       28.767   2.775  21.448  0.00  0.00    -0.490 OA
BRANCH  16  17
ATOM     17  C   LIG    1       29.695   1.871  20.836  0.00  0.00    +0.248 C 
BRANCH  17  18
ATOM     18  C   LIG    1       29.131   0.808  19.904  0.00  0.00    +0.147 C 
BRANCH  18  19
ATOM     19  N   LIG    1       28.488  -0.360  20.586  0.00  0.00    -0.315 N 
ATOM     20  C   LIG    1       27.897  -1.309  19.632  0.00  0.00    +0.131 C 
BRANCH  19  21
ATOM     21  C   LIG    1       29.065  -1.027  21.685  0.00  0.00    +0.121 A 
ATOM     22  C   LIG    1       30.180  -1.858  21.552  0.00  0.00    +0.043 A 
ATOM     23  C   LIG    1       30.755  -2.499  22.654  0.00  0.00    +0.005 A 
ATOM     24  C   LIG    1       30.263  -2.233  23.914  0.00  0.00    +0.020 A 
ATOM     25  C   LIG    1       29.209  -1.349  24.002  0.00  0.00    +0.113 A 
ATOM     26  N   LIG    1       28.608  -0.769  22.932  0.00  0.00    -0.240 NA
ENDBRANCH  19  21
ENDBRANCH  18  19
ENDBRANCH  17  18
ENDBRANCH  16  17
ENDBRANCH   4  16
TORSDOF 7
ENDMDL
MODEL 7
REMARK VINA RESULT:      -5.8      1.689      2.347
REMARK  Name = 
REMARK                            x       y       z     vdW  Elec       q    Type
REMARK                         _______ _______ _______ _____ _____    ______ ____
ROOT
ATOM      1  C   LIG    1       27.322   0.642  21.149  0.00  0.00    -0.046 A 
ATOM      2  C   LIG    1       26.568   1.466  21.978  0.00  0.00    +0.007 A 
ATOM      3  C   LIG    1       25.942   2.598  21.468  0.00  0.00    +0.046 A 
ATOM      4  C   LIG    1       26.091   2.979  20.129  0.00  0.00    +0.121 A 
ATOM      5  C   LIG    1       26.897   2.193  19.307  0.00  0.00    +0.046 A 
ATOM      6  C   LIG    1       27.501   1.024  19.811  0.00  0.00    +0.007 A 
ENDROOT
BRANCH   1   7
ATOM      7  C   LIG    1       27.918  -0.622  21.722  0.00  0.00    +0.056 C 
BRANCH   7  10
ATOM      8  S   LIG    1       31.015   1.430  21.440  0.00  0.00    -0.039 S 
ATOM      9  C   LIG    1       30.449  -0.087  21.828  0.00  0.00    +0.069 C 
ATOM     10  C   LIG    1       29.169  -0.398  22.594  0.00  0.00    +0.112 C 
ATOM     11  S   LIG    1       29.577  -2.036  23.343  0.00  0.00    -0.057 S 
ATOM     12  C   LIG    1       30.913  -2.325  22.249  0.00  0.00    +0.277 C 
ATOM     13  O   LIG    1       31.569  -3.340  22.225  0.00  0.00    -0.263 OA
ATOM     14  N   LIG    1       31.161  -1.206  21.516  0.00  0.00    -0.273 N 
ATOM     15  H   LIG    1       32.033  -1.158  21.010  0.00  0.00    +0.156 HD
ENDBRANCH   7  10
ENDBRANCH   1   7
BRANCH   4  16
ATOM     16  O   LIG    1       25.489   4.090  19.558  0.00  0.00    -0.490 OA
BRANCH  16  17
ATOM     17  C   LIG    1       25.828   4.219  18.171  0.00  0.00    +0.248 C 
BRANCH  17  18
ATOM     18  C   LIG    1       24.949   3.494  17.162  0.00  0.00    +0.147 C 
BRANCH  18  19
ATOM     19  N   LIG    1       25.647   3.052  15.913  0.00  0.00    -0.315 N 
ATOM     20  C   LIG    1       25.981   1.621  15.936  0.00  0.00    +0.131 C 
BRANCH  19  21
ATOM     21  C   LIG    1       25.264   3.470  14.624  0.00  0.00    +0.121 A 
ATOM     22  C   LIG    1       26.197   3.755  13.623  0.00  0.00    +0.043 A 
ATOM     23  C   LIG    1       25.804   4.150  12.341  0.00  0.00    +0.005 A 
ATOM     24  C   LIG    1       24.460   4.171  12.031  0.00  0.00    +0.020 A 
ATOM     25  C   LIG    1       23.581   3.809  13.029  0.00  0.00    +0.113 A 
ATOM     26  N   LIG    1       23.952   3.482  14.293  0.00  0.00    -0.240 NA
ENDBRANCH  19  21
ENDBRANCH  18  19
ENDBRANCH  17  18
ENDBRANCH  16  17
ENDBRANCH   4  16
TORSDOF 7
ENDMDL
MODEL 8
REMARK VINA RESULT:      -5.6      3.452      9.026
REMARK  Name = 
REMARK                            x       y       z     vdW  Elec       q    Type
REMARK                         _______ _______ _______ _____ _____    ______ ____
ROOT
ATOM      1  C   LIG    1       26.075   1.700  16.761  0.00  0.00    -0.046 A 
ATOM      2  C   LIG    1       26.307   0.385  17.149  0.00  0.00    +0.007 A 
ATOM      3  C   LIG    1       26.360   0.046  18.496  0.00  0.00    +0.046 A 
ATOM      4  C   LIG    1       26.240   1.012  19.502  0.00  0.00    +0.121 A 
ATOM      5  C   LIG    1       26.070   2.342  19.120  0.00  0.00    +0.046 A 
ATOM      6  C   LIG    1       25.977   2.683  17.757  0.00  0.00    +0.007 A 
ENDROOT
BRANCH   1   7
ATOM      7  C   LIG    1       25.942   2.015  15.289  0.00  0.00    +0.056 C 
BRANCH   7  10
ATOM      8  S   LIG    1       22.752   3.868  14.764  0.00  0.00    -0.039 S 
ATOM      9  C   LIG    1       24.289   3.659  14.161  0.00  0.00    +0.069 C 
ATOM     10  C   LIG    1       25.559   3.477  14.983  0.00  0.00    +0.112 C 
ATOM     11  S   LIG    1       26.845   4.115  13.821  0.00  0.00    -0.057 S 
ATOM     12  C   LIG    1       25.797   3.994  12.424  0.00  0.00    +0.277 C 
ATOM     13  O   LIG    1       26.139   4.239  11.291  0.00  0.00    -0.263 OA
ATOM     14  N   LIG    1       24.531   3.692  12.820  0.00  0.00    -0.273 N 
ATOM     15  H   LIG    1       23.787   3.808  12.148  0.00  0.00    +0.156 HD
ENDBRANCH   7  10
ENDBRANCH   1   7
BRANCH   4  16
ATOM     16  O   LIG    1       26.277   0.739  20.861  0.00  0.00    -0.490 OA
BRANCH  16  17
ATOM     17  C   LIG    1       27.133  -0.372  21.153  0.00  0.00    +0.248 C 
BRANCH  17  18
ATOM     18  C   LIG    1       27.768  -0.427  22.536  0.00  0.00    +0.147 C 
BRANCH  18  19
ATOM     19  N   LIG    1       29.264  -0.385  22.551  0.00  0.00    -0.315 N 
ATOM     20  C   LIG    1       29.861  -1.728  22.504  0.00  0.00    +0.131 C 
BRANCH  19  21
ATOM     21  C   LIG    1       30.021   0.540  21.806  0.00  0.00    +0.121 A 
ATOM     22  C   LIG    1       31.413   0.467  21.718  0.00  0.00    +0.043 A 
ATOM     23  C   LIG    1       32.151   1.380  20.958  0.00  0.00    +0.005 A 
ATOM     24  C   LIG    1       31.480   2.321  20.205  0.00  0.00    +0.020 A 
ATOM     25  C   LIG    1       30.103   2.305  20.267  0.00  0.00    +0.113 A 
ATOM     26  N   LIG    1       29.382   1.461  21.048  0.00  0.00    -0.240 NA
ENDBRANCH  19  21
ENDBRANCH  18  19
ENDBRANCH  17  18
ENDBRANCH  16  17
ENDBRANCH   4  16
TORSDOF 7
ENDMDL
MODEL 9
REMARK VINA RESULT:      -5.5      3.853     10.049
REMARK  Name = 
REMARK                            x       y       z     vdW  Elec       q    Type
REMARK                         _______ _______ _______ _____ _____    ______ ____
ROOT
ATOM      1  C   LIG    1       25.336   3.157  16.194  0.00  0.00    -0.046 A 
ATOM      2  C   LIG    1       25.277   3.675  17.483  0.00  0.00    +0.007 A 
ATOM      3  C   LIG    1       25.672   2.906  18.572  0.00  0.00    +0.046 A 
ATOM      4  C   LIG    1       26.085   1.577  18.421  0.00  0.00    +0.121 A 
ATOM      5  C   LIG    1       26.087   1.030  17.138  0.00  0.00    +0.046 A 
ATOM      6  C   LIG    1       25.725   1.818  16.029  0.00  0.00    +0.007 A 
ENDROOT
BRANCH   1   7
ATOM      7  C   LIG    1       24.977   4.050  15.030  0.00  0.00    +0.056 C 
BRANCH   7  10
ATOM      8  S   LIG    1       27.495   4.584  12.335  0.00  0.00    -0.039 S 
ATOM      9  C   LIG    1       25.868   4.375  12.620  0.00  0.00    +0.069 C 
ATOM     10  C   LIG    1       25.251   3.431  13.644  0.00  0.00    +0.112 C 
ATOM     11  S   LIG    1       23.597   3.101  12.890  0.00  0.00    -0.057 S 
ATOM     12  C   LIG    1       23.689   4.483  11.820  0.00  0.00    +0.277 C 
ATOM     13  O   LIG    1       22.802   4.831  11.076  0.00  0.00    -0.263 OA
ATOM     14  N   LIG    1       24.933   5.031  11.877  0.00  0.00    -0.273 N 
ATOM     15  H   LIG    1       25.191   5.689  11.157  0.00  0.00    +0.156 HD
ENDBRANCH   7  10
ENDBRANCH   1   7
BRANCH   4  16
ATOM     16  O   LIG    1       26.498   0.760  19.463  0.00  0.00    -0.490 OA
BRANCH  16  17
ATOM     17  C   LIG    1       27.922   0.606  19.481  0.00  0.00    +0.248 C 
BRANCH  17  18
ATOM     18  C   LIG    1       28.694   1.330  20.575  0.00  0.00    +0.147 C 
BRANCH  18  19
ATOM     19  N   LIG    1       29.952   0.652  21.021  0.00  0.00    -0.315 N 
ATOM     20  C   LIG    1       30.969   1.608  21.481  0.00  0.00    +0.131 C 
BRANCH  19  21
ATOM     21  C   LIG    1       29.965  -0.524  21.796  0.00  0.00    +0.121 A 
ATOM     22  C   LIG    1       30.773  -1.619  21.478  0.00  0.00    +0.043 A 
ATOM     23  C   LIG    1       30.791  -2.773  22.267  0.00  0.00    +0.005 A 
ATOM     24  C   LIG    1       30.061  -2.795  23.437  0.00  0.00    +0.020 A 
ATOM     25  C   LIG    1       29.339  -1.663  23.746  0.00  0.00    +0.113 A 
ATOM     26  N   LIG    1       29.269  -0.561  22.956  0.00  0.00    -0.240 NA
ENDBRANCH  19  21
ENDBRANCH  18  19
ENDBRANCH  17  18
ENDBRANCH  16  17
ENDBRANCH   4  16
TORSDOF 7
ENDMDL
