MODEL 1
REMARK VINA RESULT:      -8.4      0.000      0.000
REMARK  Name = 
REMARK                            x       y       z     vdW  Elec       q    Type
REMARK                         _______ _______ _______ _____ _____    ______ ____
ROOT
ATOM      1  C   LIG    1        2.823  18.414  30.787  0.00  0.00    -0.046 A 
ATOM      2  C   LIG    1        3.760  17.392  30.690  0.00  0.00    +0.007 A 
ATOM      3  C   LIG    1        4.311  17.054  29.459  0.00  0.00    +0.046 A 
ATOM      4  C   LIG    1        3.906  17.684  28.276  0.00  0.00    +0.121 A 
ATOM      5  C   LIG    1        2.920  18.667  28.358  0.00  0.00    +0.046 A 
ATOM      6  C   LIG    1        2.389  19.038  29.608  0.00  0.00    +0.007 A 
ENDROOT
BRANCH   1   7
ATOM      7  C   LIG    1        2.309  18.807  32.153  0.00  0.00    +0.056 C 
BRANCH   7  10
ATOM      8  S   LIG    1        1.313  15.356  33.145  0.00  0.00    -0.039 S 
ATOM      9  C   LIG    1        1.596  16.887  33.737  0.00  0.00    +0.069 C 
ATOM     10  C   LIG    1        2.700  17.834  33.284  0.00  0.00    +0.112 C 
ATOM     11  S   LIG    1        2.940  18.868  34.795  0.00  0.00    -0.057 S 
ATOM     12  C   LIG    1        1.407  18.396  35.494  0.00  0.00    +0.277 C 
ATOM     13  O   LIG    1        0.964  18.834  36.530  0.00  0.00    -0.263 OA
ATOM     14  N   LIG    1        0.850  17.397  34.757  0.00  0.00    -0.273 N 
ATOM     15  H   LIG    1        0.082  16.883  35.164  0.00  0.00    +0.156 HD
ENDBRANCH   7  10
ENDBRANCH   1   7
BRANCH   4  16
ATOM     16  O   LIG    1        4.420  17.400  27.020  0.00  0.00    -0.490 OA
BRANCH  16  17
ATOM     17  C   LIG    1        4.964  18.569  26.395  0.00  0.00    +0.248 C 
BRANCH  17  18
ATOM     18  C   LIG    1        6.253  19.138  26.970  0.00  0.00    +0.147 C 
BRANCH  18  19
ATOM     19  N   LIG    1        6.390  20.626  26.874  0.00  0.00    -0.315 N 
ATOM     20  C   LIG    1        6.022  21.303  28.125  0.00  0.00    +0.131 C 
BRANCH  19  21
ATOM     21  C   LIG    1        7.476  21.265  26.244  0.00  0.00    +0.121 A 
ATOM     22  C   LIG    1        8.321  20.597  25.354  0.00  0.00    +0.043 A 
ATOM     23  C   LIG    1        9.383  21.248  24.719  0.00  0.00    +0.005 A 
ATOM     24  C   LIG    1        9.546  22.604  24.908  0.00  0.00    +0.020 A 
ATOM     25  C   LIG    1        8.641  23.234  25.737  0.00  0.00    +0.113 A 
ATOM     26  N   LIG    1        7.644  22.598  26.403  0.00  0.00    -0.240 NA
ENDBRANCH  19  21
ENDBRANCH  18  19
ENDBRANCH  17  18
ENDBRANCH  16  17
ENDBRANCH   4  16
TORSDOF 7
ENDMDL
MODEL 2
REMARK VINA RESULT:      -8.2      4.190      9.377
REMARK  Name = 
REMARK                            x       y       z     vdW  Elec       q    Type
REMARK                         _______ _______ _______ _____ _____    ______ ____
ROOT
ATOM      1  C   LIG    1        7.536  20.262  28.345  0.00  0.00    -0.046 A 
ATOM      2  C   LIG    1        7.744  20.008  29.696  0.00  0.00    +0.007 A 
ATOM      3  C   LIG    1        6.843  19.231  30.415  0.00  0.00    +0.046 A 
ATOM      4  C   LIG    1        5.676  18.727  29.828  0.00  0.00    +0.121 A 
ATOM      5  C   LIG    1        5.429  19.030  28.490  0.00  0.00    +0.046 A 
ATOM      6  C   LIG    1        6.359  19.784  27.749  0.00  0.00    +0.007 A 
ENDROOT
BRANCH   1   7
ATOM      7  C   LIG    1        8.579  21.041  27.578  0.00  0.00    +0.056 C 
BRANCH   7  10
ATOM      8  S   LIG    1       10.040  21.130  24.152  0.00  0.00    -0.039 S 
ATOM      9  C   LIG    1        9.218  22.041  25.276  0.00  0.00    +0.069 C 
ATOM     10  C   LIG    1        8.110  21.544  26.197  0.00  0.00    +0.112 C 
ATOM     11  S   LIG    1        7.164  23.099  26.508  0.00  0.00    -0.057 S 
ATOM     12  C   LIG    1        8.471  24.130  25.968  0.00  0.00    +0.277 C 
ATOM     13  O   LIG    1        8.446  25.338  26.001  0.00  0.00    -0.263 OA
ATOM     14  N   LIG    1        9.458  23.375  25.415  0.00  0.00    -0.273 N 
ATOM     15  H   LIG    1       10.164  23.848  24.870  0.00  0.00    +0.156 HD
ENDBRANCH   7  10
ENDBRANCH   1   7
BRANCH   4  16
ATOM     16  O   LIG    1        4.743  17.941  30.487  0.00  0.00    -0.490 OA
BRANCH  16  17
ATOM     17  C   LIG    1        3.640  17.605  29.636  0.00  0.00    +0.248 C 
BRANCH  17  18
ATOM     18  C   LIG    1        2.278  18.186  29.988  0.00  0.00    +0.147 C 
BRANCH  18  19
ATOM     19  N   LIG    1        2.258  19.077  31.191  0.00  0.00    -0.315 N 
ATOM     20  C   LIG    1        1.541  20.336  30.943  0.00  0.00    +0.131 C 
BRANCH  19  21
ATOM     21  C   LIG    1        2.031  18.606  32.499  0.00  0.00    +0.121 A 
ATOM     22  C   LIG    1        3.071  18.396  33.408  0.00  0.00    +0.043 A 
ATOM     23  C   LIG    1        2.831  17.948  34.710  0.00  0.00    +0.005 A 
ATOM     24  C   LIG    1        1.528  17.794  35.135  0.00  0.00    +0.020 A 
ATOM     25  C   LIG    1        0.534  18.085  34.225  0.00  0.00    +0.113 A 
ATOM     26  N   LIG    1        0.760  18.464  32.941  0.00  0.00    -0.240 NA
ENDBRANCH  19  21
ENDBRANCH  18  19
ENDBRANCH  17  18
ENDBRANCH  16  17
ENDBRANCH   4  16
TORSDOF 7
ENDMDL
MODEL 3
REMARK VINA RESULT:      -8.1      4.113      9.639
REMARK  Name = 
REMARK                            x       y       z     vdW  Elec       q    Type
REMARK                         _______ _______ _______ _____ _____    ______ ____
ROOT
ATOM      1  C   LIG    1        7.118  20.353  28.294  0.00  0.00    -0.046 A 
ATOM      2  C   LIG    1        5.890  20.287  27.645  0.00  0.00    +0.007 A 
ATOM      3  C   LIG    1        4.747  19.898  28.334  0.00  0.00    +0.046 A 
ATOM      4  C   LIG    1        4.797  19.509  29.678  0.00  0.00    +0.121 A 
ATOM      5  C   LIG    1        6.035  19.512  30.318  0.00  0.00    +0.046 A 
ATOM      6  C   LIG    1        7.188  19.942  29.634  0.00  0.00    +0.007 A 
ENDROOT
BRANCH   1   7
ATOM      7  C   LIG    1        8.321  20.859  27.533  0.00  0.00    +0.056 C 
BRANCH   7  10
ATOM      8  S   LIG    1       10.049  21.003  24.234  0.00  0.00    -0.039 S 
ATOM      9  C   LIG    1        9.199  21.915  25.338  0.00  0.00    +0.069 C 
ATOM     10  C   LIG    1        7.994  21.452  26.147  0.00  0.00    +0.112 C 
ATOM     11  S   LIG    1        7.125  23.051  26.462  0.00  0.00    -0.057 S 
ATOM     12  C   LIG    1        8.532  24.017  26.073  0.00  0.00    +0.277 C 
ATOM     13  O   LIG    1        8.581  25.221  26.163  0.00  0.00    -0.263 OA
ATOM     14  N   LIG    1        9.511  23.223  25.559  0.00  0.00    -0.273 N 
ATOM     15  H   LIG    1       10.285  23.673  25.092  0.00  0.00    +0.156 HD
ENDBRANCH   7  10
ENDBRANCH   1   7
BRANCH   4  16
ATOM     16  O   LIG    1        3.695  19.118  30.423  0.00  0.00    -0.490 OA
BRANCH  16  17
ATOM     17  C   LIG    1        3.313  17.768  30.132  0.00  0.00    +0.248 C 
BRANCH  17  18
ATOM     18  C   LIG    1        3.501  16.731  31.230  0.00  0.00    +0.147 C 
BRANCH  18  19
ATOM     19  N   LIG    1        2.327  16.549  32.141  0.00  0.00    -0.315 N 
ATOM     20  C   LIG    1        1.972  15.134  32.319  0.00  0.00    +0.131 C 
BRANCH  19  21
ATOM     21  C   LIG    1        2.153  17.276  33.334  0.00  0.00    +0.121 A 
ATOM     22  C   LIG    1        3.126  18.153  33.824  0.00  0.00    +0.043 A 
ATOM     23  C   LIG    1        2.932  18.884  34.999  0.00  0.00    +0.005 A 
ATOM     24  C   LIG    1        1.715  18.807  35.643  0.00  0.00    +0.020 A 
ATOM     25  C   LIG    1        0.760  17.986  35.081  0.00  0.00    +0.113 A 
ATOM     26  N   LIG    1        0.961  17.227  33.973  0.00  0.00    -0.240 NA
ENDBRANCH  19  21
ENDBRANCH  18  19
ENDBRANCH  17  18
ENDBRANCH  16  17
ENDBRANCH   4  16
TORSDOF 7
ENDMDL
MODEL 4
REMARK VINA RESULT:      -7.9      1.263      2.632
REMARK  Name = 
REMARK                            x       y       z     vdW  Elec       q    Type
REMARK                         _______ _______ _______ _____ _____    ______ ____
ROOT
ATOM      1  C   LIG    1        2.920  18.461  30.590  0.00  0.00    -0.046 A 
ATOM      2  C   LIG    1        4.005  17.592  30.538  0.00  0.00    +0.007 A 
ATOM      3  C   LIG    1        4.724  17.430  29.359  0.00  0.00    +0.046 A 
ATOM      4  C   LIG    1        4.353  18.084  28.178  0.00  0.00    +0.121 A 
ATOM      5  C   LIG    1        3.229  18.907  28.207  0.00  0.00    +0.046 A 
ATOM      6  C   LIG    1        2.522  19.104  29.408  0.00  0.00    +0.007 A 
ENDROOT
BRANCH   1   7
ATOM      7  C   LIG    1        2.216  18.673  31.910  0.00  0.00    +0.056 C 
BRANCH   7  10
ATOM      8  S   LIG    1        1.388  15.202  32.983  0.00  0.00    -0.039 S 
ATOM      9  C   LIG    1        1.633  16.750  33.543  0.00  0.00    +0.069 C 
ATOM     10  C   LIG    1        2.683  17.732  33.039  0.00  0.00    +0.112 C 
ATOM     11  S   LIG    1        2.937  18.796  34.526  0.00  0.00    -0.057 S 
ATOM     12  C   LIG    1        1.449  18.276  35.287  0.00  0.00    +0.277 C 
ATOM     13  O   LIG    1        1.027  18.712  36.332  0.00  0.00    -0.263 OA
ATOM     14  N   LIG    1        0.905  17.246  34.583  0.00  0.00    -0.273 N 
ATOM     15  H   LIG    1        0.172  16.710  35.024  0.00  0.00    +0.156 HD
ENDBRANCH   7  10
ENDBRANCH   1   7
BRANCH   4  16
ATOM     16  O   LIG    1        5.031  17.971  26.973  0.00  0.00    -0.490 OA
BRANCH  16  17
ATOM     17  C   LIG    1        5.200  19.245  26.341  0.00  0.00    +0.248 C 
BRANCH  17  18
ATOM     18  C   LIG    1        6.604  19.629  25.896  0.00  0.00    +0.147 C 
BRANCH  18  19
ATOM     19  N   LIG    1        7.337  20.549  26.823  0.00  0.00    -0.315 N 
ATOM     20  C   LIG    1        7.441  21.914  26.288  0.00  0.00    +0.131 C 
BRANCH  19  21
ATOM     21  C   LIG    1        7.144  20.556  28.218  0.00  0.00    +0.121 A 
ATOM     22  C   LIG    1        6.005  21.107  28.812  0.00  0.00    +0.043 A 
ATOM     23  C   LIG    1        5.817  21.091  30.197  0.00  0.00    +0.005 A 
ATOM     24  C   LIG    1        6.735  20.435  30.989  0.00  0.00    +0.020 A 
ATOM     25  C   LIG    1        7.804  19.842  30.350  0.00  0.00    +0.113 A 
ATOM     26  N   LIG    1        8.025  19.905  29.012  0.00  0.00    -0.240 NA
ENDBRANCH  19  21
ENDBRANCH  18  19
ENDBRANCH  17  18
ENDBRANCH  16  17
ENDBRANCH   4  16
TORSDOF 7
ENDMDL
MODEL 5
REMARK VINA RESULT:      -7.8      4.192      9.290
REMARK  Name = 
REMARK                            x       y       z     vdW  Elec       q    Type
REMARK                         _______ _______ _______ _____ _____    ______ ____
ROOT
ATOM      1  C   LIG    1        6.596  20.386  27.617  0.00  0.00    -0.046 A 
ATOM      2  C   LIG    1        5.626  19.711  26.885  0.00  0.00    +0.007 A 
ATOM      3  C   LIG    1        4.336  19.570  27.383  0.00  0.00    +0.046 A 
ATOM      4  C   LIG    1        3.983  20.047  28.651  0.00  0.00    +0.121 A 
ATOM      5  C   LIG    1        4.967  20.669  29.417  0.00  0.00    +0.046 A 
ATOM      6  C   LIG    1        6.264  20.849  28.900  0.00  0.00    +0.007 A 
ENDROOT
BRANCH   1   7
ATOM      7  C   LIG    1        7.963  20.591  27.006  0.00  0.00    +0.056 C 
BRANCH   7  10
ATOM      8  S   LIG    1       10.331  21.018  24.161  0.00  0.00    -0.039 S 
ATOM      9  C   LIG    1        9.323  21.847  25.195  0.00  0.00    +0.069 C 
ATOM     10  C   LIG    1        7.956  21.380  25.681  0.00  0.00    +0.112 C 
ATOM     11  S   LIG    1        7.125  22.989  26.042  0.00  0.00    -0.057 S 
ATOM     12  C   LIG    1        8.629  23.883  26.075  0.00  0.00    +0.277 C 
ATOM     13  O   LIG    1        8.720  25.058  26.342  0.00  0.00    -0.263 OA
ATOM     14  N   LIG    1        9.650  23.087  25.655  0.00  0.00    -0.273 N 
ATOM     15  H   LIG    1       10.525  23.530  25.416  0.00  0.00    +0.156 HD
ENDBRANCH   7  10
ENDBRANCH   1   7
BRANCH   4  16
ATOM     16  O   LIG    1        2.714  19.945  29.202  0.00  0.00    -0.490 OA
BRANCH  16  17
ATOM     17  C   LIG    1        2.411  18.597  29.582  0.00  0.00    +0.248 C 
BRANCH  17  18
ATOM     18  C   LIG    1        3.566  17.608  29.651  0.00  0.00    +0.147 C 
BRANCH  18  19
ATOM     19  N   LIG    1        3.974  17.201  31.033  0.00  0.00    -0.315 N 
ATOM     20  C   LIG    1        5.179  17.907  31.491  0.00  0.00    +0.131 C 
BRANCH  19  21
ATOM     21  C   LIG    1        3.058  17.012  32.086  0.00  0.00    +0.121 A 
ATOM     22  C   LIG    1        2.318  15.836  32.229  0.00  0.00    +0.043 A 
ATOM     23  C   LIG    1        1.426  15.652  33.291  0.00  0.00    +0.005 A 
ATOM     24  C   LIG    1        1.343  16.620  34.269  0.00  0.00    +0.020 A 
ATOM     25  C   LIG    1        2.149  17.729  34.123  0.00  0.00    +0.113 A 
ATOM     26  N   LIG    1        2.972  17.942  33.065  0.00  0.00    -0.240 NA
ENDBRANCH  19  21
ENDBRANCH  18  19
ENDBRANCH  17  18
ENDBRANCH  16  17
ENDBRANCH   4  16
TORSDOF 7
ENDMDL
MODEL 6
REMARK VINA RESULT:      -7.7      3.470      8.003
REMARK  Name = 
REMARK                            x       y       z     vdW  Elec       q    Type
REMARK                         _______ _______ _______ _____ _____    ______ ____
ROOT
ATOM      1  C   LIG    1        4.435  20.074  27.790  0.00  0.00    -0.046 A 
ATOM      2  C   LIG    1        3.739  18.923  27.437  0.00  0.00    +0.007 A 
ATOM      3  C   LIG    1        2.678  18.474  28.214  0.00  0.00    +0.046 A 
ATOM      4  C   LIG    1        2.308  19.123  29.398  0.00  0.00    +0.121 A 
ATOM      5  C   LIG    1        3.042  20.241  29.792  0.00  0.00    +0.046 A 
ATOM      6  C   LIG    1        4.093  20.721  28.987  0.00  0.00    +0.007 A 
ENDROOT
BRANCH   1   7
ATOM      7  C   LIG    1        5.528  20.576  26.876  0.00  0.00    +0.056 C 
BRANCH   7  10
ATOM      8  S   LIG    1        7.859  20.287  29.769  0.00  0.00    -0.039 S 
ATOM      9  C   LIG    1        7.787  20.628  28.141  0.00  0.00    +0.069 C 
ATOM     10  C   LIG    1        6.906  19.926  27.115  0.00  0.00    +0.112 C 
ATOM     11  S   LIG    1        7.873  20.181  25.563  0.00  0.00    -0.057 S 
ATOM     12  C   LIG    1        8.837  21.472  26.247  0.00  0.00    +0.277 C 
ATOM     13  O   LIG    1        9.660  22.110  25.633  0.00  0.00    -0.263 OA
ATOM     14  N   LIG    1        8.596  21.572  27.582  0.00  0.00    -0.273 N 
ATOM     15  H   LIG    1        9.237  22.120  28.137  0.00  0.00    +0.156 HD
ENDBRANCH   7  10
ENDBRANCH   1   7
BRANCH   4  16
ATOM     16  O   LIG    1        1.257  18.730  30.213  0.00  0.00    -0.490 OA
BRANCH  16  17
ATOM     17  C   LIG    1        1.328  19.352  31.502  0.00  0.00    +0.248 C 
BRANCH  17  18
ATOM     18  C   LIG    1        1.105  18.469  32.722  0.00  0.00    +0.147 C 
BRANCH  18  19
ATOM     19  N   LIG    1        2.156  17.428  32.955  0.00  0.00    -0.315 N 
ATOM     20  C   LIG    1        1.581  16.096  33.193  0.00  0.00    +0.131 C 
BRANCH  19  21
ATOM     21  C   LIG    1        3.345  17.347  32.204  0.00  0.00    +0.121 A 
ATOM     22  C   LIG    1        3.506  16.438  31.156  0.00  0.00    +0.043 A 
ATOM     23  C   LIG    1        4.685  16.381  30.405  0.00  0.00    +0.005 A 
ATOM     24  C   LIG    1        5.677  17.306  30.649  0.00  0.00    +0.020 A 
ATOM     25  C   LIG    1        5.442  18.232  31.643  0.00  0.00    +0.113 A 
ATOM     26  N   LIG    1        4.326  18.255  32.416  0.00  0.00    -0.240 NA
ENDBRANCH  19  21
ENDBRANCH  18  19
ENDBRANCH  17  18
ENDBRANCH  16  17
ENDBRANCH   4  16
TORSDOF 7
ENDMDL
MODEL 7
REMARK VINA RESULT:      -7.7      1.739      2.396
REMARK  Name = 
REMARK                            x       y       z     vdW  Elec       q    Type
REMARK                         _______ _______ _______ _____ _____    ______ ____
ROOT
ATOM      1  C   LIG    1        3.861  17.030  31.228  0.00  0.00    -0.046 A 
ATOM      2  C   LIG    1        4.758  17.610  32.119  0.00  0.00    +0.007 A 
ATOM      3  C   LIG    1        5.807  18.395  31.655  0.00  0.00    +0.046 A 
ATOM      4  C   LIG    1        6.032  18.585  30.287  0.00  0.00    +0.121 A 
ATOM      5  C   LIG    1        5.175  17.956  29.386  0.00  0.00    +0.046 A 
ATOM      6  C   LIG    1        4.089  17.191  29.853  0.00  0.00    +0.007 A 
ENDROOT
BRANCH   1   7
ATOM      7  C   LIG    1        2.688  16.252  31.774  0.00  0.00    +0.056 C 
BRANCH   7  10
ATOM      8  S   LIG    1        1.584  19.723  30.985  0.00  0.00    -0.039 S 
ATOM      9  C   LIG    1        1.712  18.610  32.217  0.00  0.00    +0.069 C 
ATOM     10  C   LIG    1        1.451  17.113  32.104  0.00  0.00    +0.112 C 
ATOM     11  S   LIG    1        0.975  16.691  33.838  0.00  0.00    -0.057 S 
ATOM     12  C   LIG    1        1.650  18.165  34.497  0.00  0.00    +0.277 C 
ATOM     13  O   LIG    1        1.687  18.433  35.675  0.00  0.00    -0.263 OA
ATOM     14  N   LIG    1        2.023  18.996  33.486  0.00  0.00    -0.273 N 
ATOM     15  H   LIG    1        2.220  19.959  33.717  0.00  0.00    +0.156 HD
ENDBRANCH   7  10
ENDBRANCH   1   7
BRANCH   4  16
ATOM     16  O   LIG    1        7.054  19.361  29.760  0.00  0.00    -0.490 OA
BRANCH  16  17
ATOM     17  C   LIG    1        6.692  20.747  29.711  0.00  0.00    +0.248 C 
BRANCH  17  18
ATOM     18  C   LIG    1        6.067  21.266  28.424  0.00  0.00    +0.147 C 
BRANCH  18  19
ATOM     19  N   LIG    1        6.575  20.628  27.168  0.00  0.00    -0.315 N 
ATOM     20  C   LIG    1        5.492  20.062  26.351  0.00  0.00    +0.131 C 
BRANCH  19  21
ATOM     21  C   LIG    1        7.582  21.197  26.364  0.00  0.00    +0.121 A 
ATOM     22  C   LIG    1        8.327  20.441  25.454  0.00  0.00    +0.043 A 
ATOM     23  C   LIG    1        9.310  21.021  24.647  0.00  0.00    +0.005 A 
ATOM     24  C   LIG    1        9.487  22.388  24.686  0.00  0.00    +0.020 A 
ATOM     25  C   LIG    1        8.677  23.100  25.545  0.00  0.00    +0.113 A 
ATOM     26  N   LIG    1        7.762  22.538  26.375  0.00  0.00    -0.240 NA
ENDBRANCH  19  21
ENDBRANCH  18  19
ENDBRANCH  17  18
ENDBRANCH  16  17
ENDBRANCH   4  16
TORSDOF 7
ENDMDL
MODEL 8
REMARK VINA RESULT:      -7.5      3.351      9.125
REMARK  Name = 
REMARK                            x       y       z     vdW  Elec       q    Type
REMARK                         _______ _______ _______ _____ _____    ______ ____
ROOT
ATOM      1  C   LIG    1        5.106  19.277  26.849  0.00  0.00    -0.046 A 
ATOM      2  C   LIG    1        4.976  17.978  27.329  0.00  0.00    +0.007 A 
ATOM      3  C   LIG    1        3.950  17.650  28.207  0.00  0.00    +0.046 A 
ATOM      4  C   LIG    1        3.052  18.614  28.681  0.00  0.00    +0.121 A 
ATOM      5  C   LIG    1        3.216  19.931  28.254  0.00  0.00    +0.046 A 
ATOM      6  C   LIG    1        4.230  20.260  27.334  0.00  0.00    +0.007 A 
ENDROOT
BRANCH   1   7
ATOM      7  C   LIG    1        6.183  19.576  25.832  0.00  0.00    +0.056 C 
BRANCH   7  10
ATOM      8  S   LIG    1        7.475  20.249  29.262  0.00  0.00    -0.039 S 
ATOM      9  C   LIG    1        7.534  20.779  27.685  0.00  0.00    +0.069 C 
ATOM     10  C   LIG    1        7.563  19.898  26.442  0.00  0.00    +0.112 C 
ATOM     11  S   LIG    1        8.419  20.997  25.231  0.00  0.00    -0.057 S 
ATOM     12  C   LIG    1        8.136  22.442  26.177  0.00  0.00    +0.277 C 
ATOM     13  O   LIG    1        8.445  23.558  25.829  0.00  0.00    -0.263 OA
ATOM     14  N   LIG    1        7.620  22.107  27.391  0.00  0.00    -0.273 N 
ATOM     15  H   LIG    1        7.615  22.814  28.112  0.00  0.00    +0.156 HD
ENDBRANCH   7  10
ENDBRANCH   1   7
BRANCH   4  16
ATOM     16  O   LIG    1        2.005  18.351  29.551  0.00  0.00    -0.490 OA
BRANCH  16  17
ATOM     17  C   LIG    1        2.434  18.379  30.918  0.00  0.00    +0.248 C 
BRANCH  17  18
ATOM     18  C   LIG    1        2.628  17.043  31.621  0.00  0.00    +0.147 C 
BRANCH  18  19
ATOM     19  N   LIG    1        1.722  16.801  32.788  0.00  0.00    -0.315 N 
ATOM     20  C   LIG    1        1.547  15.370  33.072  0.00  0.00    +0.131 C 
BRANCH  19  21
ATOM     21  C   LIG    1        1.769  17.559  33.975  0.00  0.00    +0.121 A 
ATOM     22  C   LIG    1        2.878  18.336  34.322  0.00  0.00    +0.043 A 
ATOM     23  C   LIG    1        2.904  19.099  35.493  0.00  0.00    +0.005 A 
ATOM     24  C   LIG    1        1.772  19.157  36.279  0.00  0.00    +0.020 A 
ATOM     25  C   LIG    1        0.678  18.432  35.856  0.00  0.00    +0.113 A 
ATOM     26  N   LIG    1        0.665  17.642  34.752  0.00  0.00    -0.240 NA
ENDBRANCH  19  21
ENDBRANCH  18  19
ENDBRANCH  17  18
ENDBRANCH  16  17
ENDBRANCH   4  16
TORSDOF 7
ENDMDL
MODEL 9
REMARK VINA RESULT:      -7.2      1.562      2.137
REMARK  Name = 
REMARK                            x       y       z     vdW  Elec       q    Type
REMARK                         _______ _______ _______ _____ _____    ______ ____
ROOT
ATOM      1  C   LIG    1        3.721  17.135  30.612  0.00  0.00    -0.046 A 
ATOM      2  C   LIG    1        5.006  17.649  30.745  0.00  0.00    +0.007 A 
ATOM      3  C   LIG    1        5.649  18.232  29.660  0.00  0.00    +0.046 A 
ATOM      4  C   LIG    1        5.058  18.274  28.391  0.00  0.00    +0.121 A 
ATOM      5  C   LIG    1        3.795  17.705  28.236  0.00  0.00    +0.046 A 
ATOM      6  C   LIG    1        3.125  17.148  29.341  0.00  0.00    +0.007 A 
ENDROOT
BRANCH   1   7
ATOM      7  C   LIG    1        3.023  16.584  31.833  0.00  0.00    +0.056 C 
BRANCH   7  10
ATOM      8  S   LIG    1        1.475  19.903  31.142  0.00  0.00    -0.039 S 
ATOM      9  C   LIG    1        1.714  18.763  32.332  0.00  0.00    +0.069 C 
ATOM     10  C   LIG    1        1.668  17.251  32.148  0.00  0.00    +0.112 C 
ATOM     11  S   LIG    1        1.197  16.688  33.842  0.00  0.00    -0.057 S 
ATOM     12  C   LIG    1        1.637  18.209  34.588  0.00  0.00    +0.277 C 
ATOM     13  O   LIG    1        1.596  18.425  35.776  0.00  0.00    -0.263 OA
ATOM     14  N   LIG    1        1.924  19.129  33.627  0.00  0.00    -0.273 N 
ATOM     15  H   LIG    1        1.978  20.098  33.905  0.00  0.00    +0.156 HD
ENDBRANCH   7  10
ENDBRANCH   1   7
BRANCH   4  16
ATOM     16  O   LIG    1        5.642  18.847  27.272  0.00  0.00    -0.490 OA
BRANCH  16  17
ATOM     17  C   LIG    1        5.264  20.221  27.124  0.00  0.00    +0.248 C 
BRANCH  17  18
ATOM     18  C   LIG    1        5.904  21.232  28.064  0.00  0.00    +0.147 C 
BRANCH  18  19
ATOM     19  N   LIG    1        7.393  21.345  27.959  0.00  0.00    -0.315 N 
ATOM     20  C   LIG    1        8.089  20.400  28.845  0.00  0.00    +0.131 C 
BRANCH  19  21
ATOM     21  C   LIG    1        8.074  21.499  26.736  0.00  0.00    +0.121 A 
ATOM     22  C   LIG    1        8.675  22.704  26.362  0.00  0.00    +0.043 A 
ATOM     23  C   LIG    1        9.364  22.838  25.153  0.00  0.00    +0.005 A 
ATOM     24  C   LIG    1        9.532  21.728  24.352  0.00  0.00    +0.020 A 
ATOM     25  C   LIG    1        8.985  20.544  24.799  0.00  0.00    +0.113 A 
ATOM     26  N   LIG    1        8.263  20.419  25.942  0.00  0.00    -0.240 NA
ENDBRANCH  19  21
ENDBRANCH  18  19
ENDBRANCH  17  18
ENDBRANCH  16  17
ENDBRANCH   4  16
TORSDOF 7
ENDMDL
