MODEL 1
REMARK VINA RESULT:      -9.6      0.000      0.000
REMARK  Name = 
REMARK                            x       y       z     vdW  Elec       q    Type
REMARK                         _______ _______ _______ _____ _____    ______ ____
ROOT
ATOM      1  C   LIG    1       19.797 -14.944  18.019  0.00  0.00    -0.046 A 
ATOM      2  C   LIG    1       20.476 -15.534  19.080  0.00  0.00    +0.007 A 
ATOM      3  C   LIG    1       21.862 -15.642  19.059  0.00  0.00    +0.046 A 
ATOM      4  C   LIG    1       22.615 -15.216  17.958  0.00  0.00    +0.121 A 
ATOM      5  C   LIG    1       21.936 -14.681  16.865  0.00  0.00    +0.046 A 
ATOM      6  C   LIG    1       20.536 -14.535  16.898  0.00  0.00    +0.007 A 
ENDROOT
BRANCH   1   7
ATOM      7  C   LIG    1       18.300 -14.771  18.115  0.00  0.00    +0.056 C 
BRANCH   7  10
ATOM      8  S   LIG    1       18.026 -18.477  18.388  0.00  0.00    -0.039 S 
ATOM      9  C   LIG    1       17.148 -17.065  18.457  0.00  0.00    +0.069 C 
ATOM     10  C   LIG    1       17.606 -15.752  19.082  0.00  0.00    +0.112 C 
ATOM     11  S   LIG    1       15.993 -14.977  19.535  0.00  0.00    -0.057 S 
ATOM     12  C   LIG    1       15.069 -16.026  18.482  0.00  0.00    +0.277 C 
ATOM     13  O   LIG    1       13.876 -15.939  18.307  0.00  0.00    -0.263 OA
ATOM     14  N   LIG    1       15.872 -17.004  17.983  0.00  0.00    -0.273 N 
ATOM     15  H   LIG    1       15.429 -17.798  17.542  0.00  0.00    +0.156 HD
ENDBRANCH   7  10
ENDBRANCH   1   7
BRANCH   4  16
ATOM     16  O   LIG    1       23.997 -15.289  17.878  0.00  0.00    -0.490 OA
BRANCH  16  17
ATOM     17  C   LIG    1       24.621 -14.831  19.084  0.00  0.00    +0.248 C 
BRANCH  17  18
ATOM     18  C   LIG    1       25.185 -13.418  19.092  0.00  0.00    +0.147 C 
BRANCH  18  19
ATOM     19  N   LIG    1       26.603 -13.297  18.625  0.00  0.00    -0.315 N 
ATOM     20  C   LIG    1       26.926 -11.938  18.168  0.00  0.00    +0.131 C 
BRANCH  19  21
ATOM     21  C   LIG    1       27.692 -13.886  19.296  0.00  0.00    +0.121 A 
ATOM     22  C   LIG    1       28.203 -13.370  20.490  0.00  0.00    +0.043 A 
ATOM     23  C   LIG    1       29.272 -13.976  21.156  0.00  0.00    +0.005 A 
ATOM     24  C   LIG    1       29.775 -15.164  20.670  0.00  0.00    +0.020 A 
ATOM     25  C   LIG    1       29.189 -15.674  19.531  0.00  0.00    +0.113 A 
ATOM     26  N   LIG    1       28.191 -15.061  18.845  0.00  0.00    -0.240 NA
ENDBRANCH  19  21
ENDBRANCH  18  19
ENDBRANCH  17  18
ENDBRANCH  16  17
ENDBRANCH   4  16
TORSDOF 7
ENDMDL
MODEL 2
REMARK VINA RESULT:      -9.4      1.030      1.667
REMARK  Name = 
REMARK                            x       y       z     vdW  Elec       q    Type
REMARK                         _______ _______ _______ _____ _____    ______ ____
ROOT
ATOM      1  C   LIG    1       19.716 -14.926  18.006  0.00  0.00    -0.046 A 
ATOM      2  C   LIG    1       20.332 -15.541  19.092  0.00  0.00    +0.007 A 
ATOM      3  C   LIG    1       21.716 -15.652  19.148  0.00  0.00    +0.046 A 
ATOM      4  C   LIG    1       22.532 -15.206  18.101  0.00  0.00    +0.121 A 
ATOM      5  C   LIG    1       21.918 -14.647  16.982  0.00  0.00    +0.046 A 
ATOM      6  C   LIG    1       20.519 -14.497  16.938  0.00  0.00    +0.007 A 
ENDROOT
BRANCH   1   7
ATOM      7  C   LIG    1       18.216 -14.751  18.020  0.00  0.00    +0.056 C 
BRANCH   7  10
ATOM      8  S   LIG    1       17.878 -18.443  18.389  0.00  0.00    -0.039 S 
ATOM      9  C   LIG    1       17.018 -17.018  18.386  0.00  0.00    +0.069 C 
ATOM     10  C   LIG    1       17.473 -15.694  18.988  0.00  0.00    +0.112 C 
ATOM     11  S   LIG    1       15.856 -14.884  19.360  0.00  0.00    -0.057 S 
ATOM     12  C   LIG    1       14.955 -15.950  18.304  0.00  0.00    +0.277 C 
ATOM     13  O   LIG    1       13.771 -15.852  18.083  0.00  0.00    -0.263 OA
ATOM     14  N   LIG    1       15.761 -16.954  17.863  0.00  0.00    -0.273 N 
ATOM     15  H   LIG    1       15.323 -17.754  17.430  0.00  0.00    +0.156 HD
ENDBRANCH   7  10
ENDBRANCH   1   7
BRANCH   4  16
ATOM     16  O   LIG    1       23.917 -15.281  18.099  0.00  0.00    -0.490 OA
BRANCH  16  17
ATOM     17  C   LIG    1       24.377 -16.558  18.557  0.00  0.00    +0.248 C 
BRANCH  17  18
ATOM     18  C   LIG    1       25.507 -16.574  19.576  0.00  0.00    +0.147 C 
BRANCH  18  19
ATOM     19  N   LIG    1       26.855 -16.207  19.037  0.00  0.00    -0.315 N 
ATOM     20  C   LIG    1       26.978 -16.489  17.600  0.00  0.00    +0.131 C 
BRANCH  19  21
ATOM     21  C   LIG    1       27.532 -15.023  19.388  0.00  0.00    +0.121 A 
ATOM     22  C   LIG    1       28.681 -15.027  20.184  0.00  0.00    +0.043 A 
ATOM     23  C   LIG    1       29.355 -13.846  20.509  0.00  0.00    +0.005 A 
ATOM     24  C   LIG    1       28.927 -12.658  19.956  0.00  0.00    +0.020 A 
ATOM     25  C   LIG    1       27.835 -12.714  19.117  0.00  0.00    +0.113 A 
ATOM     26  N   LIG    1       27.139 -13.847  18.844  0.00  0.00    -0.240 NA
ENDBRANCH  19  21
ENDBRANCH  18  19
ENDBRANCH  17  18
ENDBRANCH  16  17
ENDBRANCH   4  16
TORSDOF 7
ENDMDL
MODEL 3
REMARK VINA RESULT:      -9.3      2.258      3.607
REMARK  Name = 
REMARK                            x       y       z     vdW  Elec       q    Type
REMARK                         _______ _______ _______ _____ _____    ______ ____
ROOT
ATOM      1  C   LIG    1       19.568 -14.824  17.974  0.00  0.00    -0.046 A 
ATOM      2  C   LIG    1       20.344 -15.362  18.994  0.00  0.00    +0.007 A 
ATOM      3  C   LIG    1       21.732 -15.321  18.922  0.00  0.00    +0.046 A 
ATOM      4  C   LIG    1       22.394 -14.794  17.807  0.00  0.00    +0.121 A 
ATOM      5  C   LIG    1       21.622 -14.310  16.752  0.00  0.00    +0.046 A 
ATOM      6  C   LIG    1       20.217 -14.314  16.838  0.00  0.00    +0.007 A 
ENDROOT
BRANCH   1   7
ATOM      7  C   LIG    1       18.065 -14.813  18.126  0.00  0.00    +0.056 C 
BRANCH   7  10
ATOM      8  S   LIG    1       18.059 -18.527  18.431  0.00  0.00    -0.039 S 
ATOM      9  C   LIG    1       17.099 -17.174  18.572  0.00  0.00    +0.069 C 
ATOM     10  C   LIG    1       17.522 -15.829  19.151  0.00  0.00    +0.112 C 
ATOM     11  S   LIG    1       15.906 -15.156  19.740  0.00  0.00    -0.057 S 
ATOM     12  C   LIG    1       14.966 -16.271  18.772  0.00  0.00    +0.277 C 
ATOM     13  O   LIG    1       13.760 -16.264  18.699  0.00  0.00    -0.263 OA
ATOM     14  N   LIG    1       15.786 -17.200  18.208  0.00  0.00    -0.273 N 
ATOM     15  H   LIG    1       15.360 -18.024  17.810  0.00  0.00    +0.156 HD
ENDBRANCH   7  10
ENDBRANCH   1   7
BRANCH   4  16
ATOM     16  O   LIG    1       23.773 -14.717  17.677  0.00  0.00    -0.490 OA
BRANCH  16  17
ATOM     17  C   LIG    1       24.401 -14.369  18.916  0.00  0.00    +0.248 C 
BRANCH  17  18
ATOM     18  C   LIG    1       25.162 -15.464  19.651  0.00  0.00    +0.147 C 
BRANCH  18  19
ATOM     19  N   LIG    1       25.762 -16.520  18.774  0.00  0.00    -0.315 N 
ATOM     20  C   LIG    1       27.080 -16.960  19.252  0.00  0.00    +0.131 C 
BRANCH  19  21
ATOM     21  C   LIG    1       25.023 -17.594  18.241  0.00  0.00    +0.121 A 
ATOM     22  C   LIG    1       25.037 -17.906  16.879  0.00  0.00    +0.043 A 
ATOM     23  C   LIG    1       24.315 -18.988  16.365  0.00  0.00    +0.005 A 
ATOM     24  C   LIG    1       23.646 -19.820  17.236  0.00  0.00    +0.020 A 
ATOM     25  C   LIG    1       23.723 -19.514  18.578  0.00  0.00    +0.113 A 
ATOM     26  N   LIG    1       24.372 -18.432  19.080  0.00  0.00    -0.240 NA
ENDBRANCH  19  21
ENDBRANCH  18  19
ENDBRANCH  17  18
ENDBRANCH  16  17
ENDBRANCH   4  16
TORSDOF 7
ENDMDL
MODEL 4
REMARK VINA RESULT:      -9.0      2.507      4.027
REMARK  Name = 
REMARK                            x       y       z     vdW  Elec       q    Type
REMARK                         _______ _______ _______ _____ _____    ______ ____
ROOT
ATOM      1  C   LIG    1       19.428 -15.431  18.778  0.00  0.00    -0.046 A 
ATOM      2  C   LIG    1       19.605 -14.756  17.575  0.00  0.00    +0.007 A 
ATOM      3  C   LIG    1       20.866 -14.662  16.997  0.00  0.00    +0.046 A 
ATOM      4  C   LIG    1       22.002 -15.188  17.624  0.00  0.00    +0.121 A 
ATOM      5  C   LIG    1       21.842 -15.811  18.861  0.00  0.00    +0.046 A 
ATOM      6  C   LIG    1       20.561 -15.942  19.430  0.00  0.00    +0.007 A 
ENDROOT
BRANCH   1   7
ATOM      7  C   LIG    1       18.031 -15.582  19.332  0.00  0.00    +0.056 C 
BRANCH   7  10
ATOM      8  S   LIG    1       14.819 -14.551  17.750  0.00  0.00    -0.039 S 
ATOM      9  C   LIG    1       15.576 -15.806  18.539  0.00  0.00    +0.069 C 
ATOM     10  C   LIG    1       17.027 -16.234  18.359  0.00  0.00    +0.112 C 
ATOM     11  S   LIG    1       16.945 -18.020  18.822  0.00  0.00    -0.057 S 
ATOM     12  C   LIG    1       15.402 -17.851  19.631  0.00  0.00    +0.277 C 
ATOM     13  O   LIG    1       14.838 -18.742  20.221  0.00  0.00    -0.263 OA
ATOM     14  N   LIG    1       14.894 -16.609  19.404  0.00  0.00    -0.273 N 
ATOM     15  H   LIG    1       13.921 -16.451  19.622  0.00  0.00    +0.156 HD
ENDBRANCH   7  10
ENDBRANCH   1   7
BRANCH   4  16
ATOM     16  O   LIG    1       23.284 -15.135  17.098  0.00  0.00    -0.490 OA
BRANCH  16  17
ATOM     17  C   LIG    1       24.257 -14.843  18.108  0.00  0.00    +0.248 C 
BRANCH  17  18
ATOM     18  C   LIG    1       25.711 -15.174  17.802  0.00  0.00    +0.147 C 
BRANCH  18  19
ATOM     19  N   LIG    1       26.115 -16.587  18.087  0.00  0.00    -0.315 N 
ATOM     20  C   LIG    1       26.830 -16.717  19.365  0.00  0.00    +0.131 C 
BRANCH  19  21
ATOM     21  C   LIG    1       25.276 -17.694  17.853  0.00  0.00    +0.121 A 
ATOM     22  C   LIG    1       24.683 -18.416  18.893  0.00  0.00    +0.043 A 
ATOM     23  C   LIG    1       23.837 -19.501  18.646  0.00  0.00    +0.005 A 
ATOM     24  C   LIG    1       23.508 -19.810  17.343  0.00  0.00    +0.020 A 
ATOM     25  C   LIG    1       24.058 -19.023  16.354  0.00  0.00    +0.113 A 
ATOM     26  N   LIG    1       24.928 -18.005  16.583  0.00  0.00    -0.240 NA
ENDBRANCH  19  21
ENDBRANCH  18  19
ENDBRANCH  17  18
ENDBRANCH  16  17
ENDBRANCH   4  16
TORSDOF 7
ENDMDL
MODEL 5
REMARK VINA RESULT:      -9.0      1.660      2.401
REMARK  Name = 
REMARK                            x       y       z     vdW  Elec       q    Type
REMARK                         _______ _______ _______ _____ _____    ______ ____
ROOT
ATOM      1  C   LIG    1       18.842 -15.024  18.196  0.00  0.00    -0.046 A 
ATOM      2  C   LIG    1       19.181 -15.716  19.354  0.00  0.00    +0.007 A 
ATOM      3  C   LIG    1       20.514 -15.943  19.676  0.00  0.00    +0.046 A 
ATOM      4  C   LIG    1       21.553 -15.538  18.830  0.00  0.00    +0.121 A 
ATOM      5  C   LIG    1       21.218 -14.900  17.637  0.00  0.00    +0.046 A 
ATOM      6  C   LIG    1       19.871 -14.634  17.326  0.00  0.00    +0.007 A 
ENDROOT
BRANCH   1   7
ATOM      7  C   LIG    1       17.387 -14.725  17.923  0.00  0.00    +0.056 C 
BRANCH   7  10
ATOM      8  S   LIG    1       16.078 -18.031  19.039  0.00  0.00    -0.039 S 
ATOM      9  C   LIG    1       15.629 -16.467  18.687  0.00  0.00    +0.069 C 
ATOM     10  C   LIG    1       16.420 -15.208  19.023  0.00  0.00    +0.112 C 
ATOM     11  S   LIG    1       15.077 -13.945  19.122  0.00  0.00    -0.057 S 
ATOM     12  C   LIG    1       13.925 -14.944  18.263  0.00  0.00    +0.277 C 
ATOM     13  O   LIG    1       12.809 -14.593  17.958  0.00  0.00    -0.263 OA
ATOM     14  N   LIG    1       14.435 -16.194  18.090  0.00  0.00    -0.273 N 
ATOM     15  H   LIG    1       13.800 -16.927  17.810  0.00  0.00    +0.156 HD
ENDBRANCH   7  10
ENDBRANCH   1   7
BRANCH   4  16
ATOM     16  O   LIG    1       22.901 -15.727  19.096  0.00  0.00    -0.490 OA
BRANCH  16  17
ATOM     17  C   LIG    1       23.421 -16.868  18.402  0.00  0.00    +0.248 C 
BRANCH  17  18
ATOM     18  C   LIG    1       24.732 -17.457  18.901  0.00  0.00    +0.147 C 
BRANCH  18  19
ATOM     19  N   LIG    1       25.967 -16.859  18.303  0.00  0.00    -0.315 N 
ATOM     20  C   LIG    1       26.021 -17.029  16.844  0.00  0.00    +0.131 C 
BRANCH  19  21
ATOM     21  C   LIG    1       26.490 -15.611  18.694  0.00  0.00    +0.121 A 
ATOM     22  C   LIG    1       26.133 -14.419  18.058  0.00  0.00    +0.043 A 
ATOM     23  C   LIG    1       26.645 -13.184  18.469  0.00  0.00    +0.005 A 
ATOM     24  C   LIG    1       27.451 -13.132  19.587  0.00  0.00    +0.020 A 
ATOM     25  C   LIG    1       27.715 -14.326  20.225  0.00  0.00    +0.113 A 
ATOM     26  N   LIG    1       27.271 -15.535  19.797  0.00  0.00    -0.240 NA
ENDBRANCH  19  21
ENDBRANCH  18  19
ENDBRANCH  17  18
ENDBRANCH  16  17
ENDBRANCH   4  16
TORSDOF 7
ENDMDL
MODEL 6
REMARK VINA RESULT:      -8.9      1.600      2.530
REMARK  Name = 
REMARK                            x       y       z     vdW  Elec       q    Type
REMARK                         _______ _______ _______ _____ _____    ______ ____
ROOT
ATOM      1  C   LIG    1       19.055 -15.682  18.452  0.00  0.00    -0.046 A 
ATOM      2  C   LIG    1       19.880 -16.789  18.620  0.00  0.00    +0.007 A 
ATOM      3  C   LIG    1       21.136 -16.829  18.025  0.00  0.00    +0.046 A 
ATOM      4  C   LIG    1       21.590 -15.796  17.198  0.00  0.00    +0.121 A 
ATOM      5  C   LIG    1       20.742 -14.712  16.973  0.00  0.00    +0.046 A 
ATOM      6  C   LIG    1       19.486 -14.649  17.606  0.00  0.00    +0.007 A 
ENDROOT
BRANCH   1   7
ATOM      7  C   LIG    1       17.733 -15.639  19.182  0.00  0.00    +0.056 C 
BRANCH   7  10
ATOM      8  S   LIG    1       14.335 -14.336  18.381  0.00  0.00    -0.039 S 
ATOM      9  C   LIG    1       15.164 -15.698  18.858  0.00  0.00    +0.069 C 
ATOM     10  C   LIG    1       16.532 -16.140  18.353  0.00  0.00    +0.112 C 
ATOM     11  S   LIG    1       16.449 -17.966  18.614  0.00  0.00    -0.057 S 
ATOM     12  C   LIG    1       15.097 -17.856  19.720  0.00  0.00    +0.277 C 
ATOM     13  O   LIG    1       14.611 -18.798  20.301  0.00  0.00    -0.263 OA
ATOM     14  N   LIG    1       14.618 -16.582  19.740  0.00  0.00    -0.273 N 
ATOM     15  H   LIG    1       13.713 -16.426  20.159  0.00  0.00    +0.156 HD
ENDBRANCH   7  10
ENDBRANCH   1   7
BRANCH   4  16
ATOM     16  O   LIG    1       22.832 -15.772  16.581  0.00  0.00    -0.490 OA
BRANCH  16  17
ATOM     17  C   LIG    1       23.897 -15.764  17.540  0.00  0.00    +0.248 C 
BRANCH  17  18
ATOM     18  C   LIG    1       24.175 -14.458  18.271  0.00  0.00    +0.147 C 
BRANCH  18  19
ATOM     19  N   LIG    1       25.222 -14.536  19.339  0.00  0.00    -0.315 N 
ATOM     20  C   LIG    1       25.420 -15.909  19.827  0.00  0.00    +0.131 C 
BRANCH  19  21
ATOM     21  C   LIG    1       26.438 -13.830  19.283  0.00  0.00    +0.121 A 
ATOM     22  C   LIG    1       26.600 -12.681  18.504  0.00  0.00    +0.043 A 
ATOM     23  C   LIG    1       27.808 -11.977  18.472  0.00  0.00    +0.005 A 
ATOM     24  C   LIG    1       28.836 -12.375  19.301  0.00  0.00    +0.020 A 
ATOM     25  C   LIG    1       28.603 -13.470  20.106  0.00  0.00    +0.113 A 
ATOM     26  N   LIG    1       27.455 -14.194  20.099  0.00  0.00    -0.240 NA
ENDBRANCH  19  21
ENDBRANCH  18  19
ENDBRANCH  17  18
ENDBRANCH  16  17
ENDBRANCH   4  16
TORSDOF 7
ENDMDL
MODEL 7
REMARK VINA RESULT:      -8.3      3.111      9.917
REMARK  Name = 
REMARK                            x       y       z     vdW  Elec       q    Type
REMARK                         _______ _______ _______ _____ _____    ______ ____
ROOT
ATOM      1  C   LIG    1       22.640 -14.745  18.361  0.00  0.00    -0.046 A 
ATOM      2  C   LIG    1       21.944 -14.373  17.216  0.00  0.00    +0.007 A 
ATOM      3  C   LIG    1       20.596 -14.684  17.078  0.00  0.00    +0.046 A 
ATOM      4  C   LIG    1       19.909 -15.424  18.048  0.00  0.00    +0.121 A 
ATOM      5  C   LIG    1       20.617 -15.854  19.169  0.00  0.00    +0.046 A 
ATOM      6  C   LIG    1       21.972 -15.508  19.331  0.00  0.00    +0.007 A 
ENDROOT
BRANCH   1   7
ATOM      7  C   LIG    1       24.081 -14.317  18.512  0.00  0.00    +0.056 C 
BRANCH   7  10
ATOM      8  S   LIG    1       24.381 -18.030  18.628  0.00  0.00    -0.039 S 
ATOM      9  C   LIG    1       25.228 -16.614  18.854  0.00  0.00    +0.069 C 
ATOM     10  C   LIG    1       25.108 -15.352  18.009  0.00  0.00    +0.112 C 
ATOM     11  S   LIG    1       26.772 -14.588  18.250  0.00  0.00    -0.057 S 
ATOM     12  C   LIG    1       27.129 -15.552  19.666  0.00  0.00    +0.277 C 
ATOM     13  O   LIG    1       28.129 -15.439  20.335  0.00  0.00    -0.263 OA
ATOM     14  N   LIG    1       26.172 -16.506  19.830  0.00  0.00    -0.273 N 
ATOM     15  H   LIG    1       26.366 -17.262  20.470  0.00  0.00    +0.156 HD
ENDBRANCH   7  10
ENDBRANCH   1   7
BRANCH   4  16
ATOM     16  O   LIG    1       18.566 -15.760  17.973  0.00  0.00    -0.490 OA
BRANCH  16  17
ATOM     17  C   LIG    1       18.284 -16.969  18.689  0.00  0.00    +0.248 C 
BRANCH  17  18
ATOM     18  C   LIG    1       17.103 -17.806  18.219  0.00  0.00    +0.147 C 
BRANCH  18  19
ATOM     19  N   LIG    1       15.769 -17.377  18.746  0.00  0.00    -0.315 N 
ATOM     20  C   LIG    1       15.417 -18.062  19.998  0.00  0.00    +0.131 C 
BRANCH  19  21
ATOM     21  C   LIG    1       15.334 -16.038  18.753  0.00  0.00    +0.121 A 
ATOM     22  C   LIG    1       15.100 -15.334  19.938  0.00  0.00    +0.043 A 
ATOM     23  C   LIG    1       14.687 -13.999  19.931  0.00  0.00    +0.005 A 
ATOM     24  C   LIG    1       14.595 -13.333  18.727  0.00  0.00    +0.020 A 
ATOM     25  C   LIG    1       14.907 -14.048  17.591  0.00  0.00    +0.113 A 
ATOM     26  N   LIG    1       15.251 -15.361  17.584  0.00  0.00    -0.240 NA
ENDBRANCH  19  21
ENDBRANCH  18  19
ENDBRANCH  17  18
ENDBRANCH  16  17
ENDBRANCH   4  16
TORSDOF 7
ENDMDL
MODEL 8
REMARK VINA RESULT:      -8.3      3.686     10.056
REMARK  Name = 
REMARK                            x       y       z     vdW  Elec       q    Type
REMARK                         _______ _______ _______ _____ _____    ______ ____
ROOT
ATOM      1  C   LIG    1       24.718 -15.337  17.641  0.00  0.00    -0.046 A 
ATOM      2  C   LIG    1       23.802 -14.438  18.177  0.00  0.00    +0.007 A 
ATOM      3  C   LIG    1       22.447 -14.742  18.203  0.00  0.00    +0.046 A 
ATOM      4  C   LIG    1       21.949 -15.927  17.647  0.00  0.00    +0.121 A 
ATOM      5  C   LIG    1       22.854 -16.804  17.051  0.00  0.00    +0.046 A 
ATOM      6  C   LIG    1       24.233 -16.517  17.058  0.00  0.00    +0.007 A 
ENDROOT
BRANCH   1   7
ATOM      7  C   LIG    1       26.191 -15.006  17.706  0.00  0.00    +0.056 C 
BRANCH   7  10
ATOM      8  S   LIG    1       26.030 -13.015  20.851  0.00  0.00    -0.039 S 
ATOM      9  C   LIG    1       27.075 -13.803  19.822  0.00  0.00    +0.069 C 
ATOM     10  C   LIG    1       26.809 -15.126  19.114  0.00  0.00    +0.112 C 
ATOM     11  S   LIG    1       28.525 -15.765  18.872  0.00  0.00    -0.057 S 
ATOM     12  C   LIG    1       29.262 -14.201  19.144  0.00  0.00    +0.277 C 
ATOM     13  O   LIG    1       30.446 -13.978  19.050  0.00  0.00    -0.263 OA
ATOM     14  N   LIG    1       28.323 -13.316  19.576  0.00  0.00    -0.273 N 
ATOM     15  H   LIG    1       28.645 -12.447  19.977  0.00  0.00    +0.156 HD
ENDBRANCH   7  10
ENDBRANCH   1   7
BRANCH   4  16
ATOM     16  O   LIG    1       20.612 -16.293  17.647  0.00  0.00    -0.490 OA
BRANCH  16  17
ATOM     17  C   LIG    1       20.409 -17.550  18.303  0.00  0.00    +0.248 C 
BRANCH  17  18
ATOM     18  C   LIG    1       19.132 -17.723  19.114  0.00  0.00    +0.147 C 
BRANCH  18  19
ATOM     19  N   LIG    1       17.887 -17.215  18.456  0.00  0.00    -0.315 N 
ATOM     20  C   LIG    1       17.067 -18.300  17.898  0.00  0.00    +0.131 C 
BRANCH  19  21
ATOM     21  C   LIG    1       17.085 -16.193  19.000  0.00  0.00    +0.121 A 
ATOM     22  C   LIG    1       17.041 -14.907  18.455  0.00  0.00    +0.043 A 
ATOM     23  C   LIG    1       16.225 -13.907  18.993  0.00  0.00    +0.005 A 
ATOM     24  C   LIG    1       15.377 -14.224  20.033  0.00  0.00    +0.020 A 
ATOM     25  C   LIG    1       15.402 -15.525  20.488  0.00  0.00    +0.113 A 
ATOM     26  N   LIG    1       16.233 -16.486  20.011  0.00  0.00    -0.240 NA
ENDBRANCH  19  21
ENDBRANCH  18  19
ENDBRANCH  17  18
ENDBRANCH  16  17
ENDBRANCH   4  16
TORSDOF 7
ENDMDL
MODEL 9
REMARK VINA RESULT:      -8.3      3.130      9.970
REMARK  Name = 
REMARK                            x       y       z     vdW  Elec       q    Type
REMARK                         _______ _______ _______ _____ _____    ______ ____
ROOT
ATOM      1  C   LIG    1       22.399 -14.758  18.281  0.00  0.00    -0.046 A 
ATOM      2  C   LIG    1       21.618 -14.410  17.185  0.00  0.00    +0.007 A 
ATOM      3  C   LIG    1       20.273 -14.758  17.137  0.00  0.00    +0.046 A 
ATOM      4  C   LIG    1       19.673 -15.512  18.153  0.00  0.00    +0.121 A 
ATOM      5  C   LIG    1       20.466 -15.919  19.225  0.00  0.00    +0.046 A 
ATOM      6  C   LIG    1       21.818 -15.535  19.295  0.00  0.00    +0.007 A 
ENDROOT
BRANCH   1   7
ATOM      7  C   LIG    1       23.834 -14.291  18.334  0.00  0.00    +0.056 C 
BRANCH   7  10
ATOM      8  S   LIG    1       27.126 -13.994  20.056  0.00  0.00    -0.039 S 
ATOM      9  C   LIG    1       26.274 -14.903  18.952  0.00  0.00    +0.069 C 
ATOM     10  C   LIG    1       24.797 -15.268  19.039  0.00  0.00    +0.112 C 
ATOM     11  S   LIG    1       24.746 -16.836  18.064  0.00  0.00    -0.057 S 
ATOM     12  C   LIG    1       26.291 -16.536  17.297  0.00  0.00    +0.277 C 
ATOM     13  O   LIG    1       26.784 -17.246  16.453  0.00  0.00    -0.263 OA
ATOM     14  N   LIG    1       26.889 -15.455  17.868  0.00  0.00    -0.273 N 
ATOM     15  H   LIG    1       27.869 -15.303  17.678  0.00  0.00    +0.156 HD
ENDBRANCH   7  10
ENDBRANCH   1   7
BRANCH   4  16
ATOM     16  O   LIG    1       18.337 -15.885  18.169  0.00  0.00    -0.490 OA
BRANCH  16  17
ATOM     17  C   LIG    1       18.180 -17.269  18.502  0.00  0.00    +0.248 C 
BRANCH  17  18
ATOM     18  C   LIG    1       16.897 -17.958  18.060  0.00  0.00    +0.147 C 
BRANCH  18  19
ATOM     19  N   LIG    1       15.644 -17.433  18.691  0.00  0.00    -0.315 N 
ATOM     20  C   LIG    1       15.272 -18.179  19.901  0.00  0.00    +0.131 C 
BRANCH  19  21
ATOM     21  C   LIG    1       15.362 -16.060  18.826  0.00  0.00    +0.121 A 
ATOM     22  C   LIG    1       15.053 -15.248  17.731  0.00  0.00    +0.043 A 
ATOM     23  C   LIG    1       14.756 -13.891  17.882  0.00  0.00    +0.005 A 
ATOM     24  C   LIG    1       14.678 -13.360  19.152  0.00  0.00    +0.020 A 
ATOM     25  C   LIG    1       14.918 -14.217  20.205  0.00  0.00    +0.113 A 
ATOM     26  N   LIG    1       15.265 -15.522  20.065  0.00  0.00    -0.240 NA
ENDBRANCH  19  21
ENDBRANCH  18  19
ENDBRANCH  17  18
ENDBRANCH  16  17
ENDBRANCH   4  16
TORSDOF 7
ENDMDL
