MODEL 1
REMARK VINA RESULT:      -7.7      0.000      0.000
REMARK  Name = 
REMARK                            x       y       z     vdW  Elec       q    Type
REMARK                         _______ _______ _______ _____ _____    ______ ____
ROOT
ATOM      1  C   LIG    1        4.534   7.343  -4.792  0.00  0.00    -0.046 A 
ATOM      2  C   LIG    1        5.120   6.146  -5.189  0.00  0.00    +0.007 A 
ATOM      3  C   LIG    1        6.098   6.132  -6.176  0.00  0.00    +0.046 A 
ATOM      4  C   LIG    1        6.486   7.301  -6.842  0.00  0.00    +0.121 A 
ATOM      5  C   LIG    1        5.857   8.496  -6.493  0.00  0.00    +0.046 A 
ATOM      6  C   LIG    1        4.894   8.520  -5.467  0.00  0.00    +0.007 A 
ENDROOT
BRANCH   1   7
ATOM      7  C   LIG    1        3.535   7.328  -3.658  0.00  0.00    +0.056 C 
BRANCH   7  10
ATOM      8  S   LIG    1        3.996   4.837  -0.926  0.00  0.00    -0.039 S 
ATOM      9  C   LIG    1        3.528   6.404  -1.239  0.00  0.00    +0.069 C 
ATOM     10  C   LIG    1        4.168   7.346  -2.252  0.00  0.00    +0.112 C 
ATOM     11  S   LIG    1        3.766   8.995  -1.526  0.00  0.00    -0.057 S 
ATOM     12  C   LIG    1        2.510   8.354  -0.489  0.00  0.00    +0.277 C 
ATOM     13  O   LIG    1        1.805   9.026   0.227  0.00  0.00    -0.263 OA
ATOM     14  N   LIG    1        2.523   6.994  -0.533  0.00  0.00    -0.273 N 
ATOM     15  H   LIG    1        2.006   6.494   0.175  0.00  0.00    +0.156 HD
ENDBRANCH   7  10
ENDBRANCH   1   7
BRANCH   4  16
ATOM     16  O   LIG    1        7.458   7.356  -7.829  0.00  0.00    -0.490 OA
BRANCH  16  17
ATOM     17  C   LIG    1        8.546   6.467  -7.548  0.00  0.00    +0.248 C 
BRANCH  17  18
ATOM     18  C   LIG    1        9.856   6.703  -8.285  0.00  0.00    +0.147 C 
BRANCH  18  19
ATOM     19  N   LIG    1        9.797   7.726  -9.377  0.00  0.00    -0.315 N 
ATOM     20  C   LIG    1       10.125   9.076  -8.897  0.00  0.00    +0.131 C 
BRANCH  19  21
ATOM     21  C   LIG    1       10.301   7.505 -10.673  0.00  0.00    +0.121 A 
ATOM     22  C   LIG    1       11.071   6.383 -10.994  0.00  0.00    +0.043 A 
ATOM     23  C   LIG    1       11.550   6.165 -12.289  0.00  0.00    +0.005 A 
ATOM     24  C   LIG    1       11.176   7.032 -13.295  0.00  0.00    +0.020 A 
ATOM     25  C   LIG    1       10.354   8.081 -12.944  0.00  0.00    +0.113 A 
ATOM     26  N   LIG    1        9.934   8.334 -11.678  0.00  0.00    -0.240 NA
ENDBRANCH  19  21
ENDBRANCH  18  19
ENDBRANCH  17  18
ENDBRANCH  16  17
ENDBRANCH   4  16
TORSDOF 7
ENDMDL
MODEL 2
REMARK VINA RESULT:      -7.7      6.686      8.677
REMARK  Name = 
REMARK                            x       y       z     vdW  Elec       q    Type
REMARK                         _______ _______ _______ _____ _____    ______ ____
ROOT
ATOM      1  C   LIG    1       11.522   2.663  -3.418  0.00  0.00    -0.046 A 
ATOM      2  C   LIG    1       11.249   2.048  -4.636  0.00  0.00    +0.007 A 
ATOM      3  C   LIG    1       10.120   2.400  -5.366  0.00  0.00    +0.046 A 
ATOM      4  C   LIG    1        9.194   3.333  -4.884  0.00  0.00    +0.121 A 
ATOM      5  C   LIG    1        9.429   3.907  -3.636  0.00  0.00    +0.046 A 
ATOM      6  C   LIG    1       10.591   3.583  -2.911  0.00  0.00    +0.007 A 
ENDROOT
BRANCH   1   7
ATOM      7  C   LIG    1       12.801   2.314  -2.694  0.00  0.00    +0.056 C 
BRANCH   7  10
ATOM      8  S   LIG    1       14.874   1.032  -5.513  0.00  0.00    -0.039 S 
ATOM      9  C   LIG    1       14.955   1.659  -3.973  0.00  0.00    +0.069 C 
ATOM     10  C   LIG    1       14.085   2.777  -3.412  0.00  0.00    +0.112 C 
ATOM     11  S   LIG    1       15.184   3.477  -2.103  0.00  0.00    -0.057 S 
ATOM     12  C   LIG    1       16.220   2.067  -2.066  0.00  0.00    +0.277 C 
ATOM     13  O   LIG    1       17.146   1.919  -1.304  0.00  0.00    -0.263 OA
ATOM     14  N   LIG    1       15.894   1.226  -3.085  0.00  0.00    -0.273 N 
ATOM     15  H   LIG    1       16.545   0.490  -3.315  0.00  0.00    +0.156 HD
ENDBRANCH   7  10
ENDBRANCH   1   7
BRANCH   4  16
ATOM     16  O   LIG    1        8.054   3.732  -5.566  0.00  0.00    -0.490 OA
BRANCH  16  17
ATOM     17  C   LIG    1        8.136   5.103  -5.973  0.00  0.00    +0.248 C 
BRANCH  17  18
ATOM     18  C   LIG    1        9.404   5.552  -6.685  0.00  0.00    +0.147 C 
BRANCH  18  19
ATOM     19  N   LIG    1        9.246   5.833  -8.148  0.00  0.00    -0.315 N 
ATOM     20  C   LIG    1        9.736   7.169  -8.516  0.00  0.00    +0.131 C 
BRANCH  19  21
ATOM     21  C   LIG    1        9.529   4.887  -9.152  0.00  0.00    +0.121 A 
ATOM     22  C   LIG    1       10.202   5.225 -10.329  0.00  0.00    +0.043 A 
ATOM     23  C   LIG    1       10.494   4.273 -11.310  0.00  0.00    +0.005 A 
ATOM     24  C   LIG    1       10.189   2.950 -11.069  0.00  0.00    +0.020 A 
ATOM     25  C   LIG    1        9.593   2.654  -9.861  0.00  0.00    +0.113 A 
ATOM     26  N   LIG    1        9.252   3.581  -8.930  0.00  0.00    -0.240 NA
ENDBRANCH  19  21
ENDBRANCH  18  19
ENDBRANCH  17  18
ENDBRANCH  16  17
ENDBRANCH   4  16
TORSDOF 7
ENDMDL
MODEL 3
REMARK VINA RESULT:      -7.6      1.513      2.171
REMARK  Name = 
REMARK                            x       y       z     vdW  Elec       q    Type
REMARK                         _______ _______ _______ _____ _____    ______ ____
ROOT
ATOM      1  C   LIG    1        4.101   6.983  -5.148  0.00  0.00    -0.046 A 
ATOM      2  C   LIG    1        4.279   8.254  -5.683  0.00  0.00    +0.007 A 
ATOM      3  C   LIG    1        5.352   8.522  -6.526  0.00  0.00    +0.046 A 
ATOM      4  C   LIG    1        6.315   7.549  -6.819  0.00  0.00    +0.121 A 
ATOM      5  C   LIG    1        6.178   6.290  -6.236  0.00  0.00    +0.046 A 
ATOM      6  C   LIG    1        5.071   6.005  -5.413  0.00  0.00    +0.007 A 
ENDROOT
BRANCH   1   7
ATOM      7  C   LIG    1        2.879   6.711  -4.303  0.00  0.00    +0.056 C 
BRANCH   7  10
ATOM      8  S   LIG    1        5.002   9.148  -2.450  0.00  0.00    -0.039 S 
ATOM      9  C   LIG    1        4.403   7.595  -2.406  0.00  0.00    +0.069 C 
ATOM     10  C   LIG    1        3.007   7.160  -2.834  0.00  0.00    +0.112 C 
ATOM     11  S   LIG    1        2.764   5.643  -1.807  0.00  0.00    -0.057 S 
ATOM     12  C   LIG    1        4.471   5.473  -1.461  0.00  0.00    +0.277 C 
ATOM     13  O   LIG    1        4.953   4.559  -0.834  0.00  0.00    -0.263 OA
ATOM     14  N   LIG    1        5.145   6.567  -1.907  0.00  0.00    -0.273 N 
ATOM     15  H   LIG    1        6.091   6.703  -1.582  0.00  0.00    +0.156 HD
ENDBRANCH   7  10
ENDBRANCH   1   7
BRANCH   4  16
ATOM     16  O   LIG    1        7.403   7.748  -7.656  0.00  0.00    -0.490 OA
BRANCH  16  17
ATOM     17  C   LIG    1        8.302   6.633  -7.628  0.00  0.00    +0.248 C 
BRANCH  17  18
ATOM     18  C   LIG    1        9.668   6.815  -8.274  0.00  0.00    +0.147 C 
BRANCH  18  19
ATOM     19  N   LIG    1        9.720   7.822  -9.380  0.00  0.00    -0.315 N 
ATOM     20  C   LIG    1       10.111   9.157  -8.904  0.00  0.00    +0.131 C 
BRANCH  19  21
ATOM     21  C   LIG    1       10.266   7.550 -10.650  0.00  0.00    +0.121 A 
ATOM     22  C   LIG    1       10.965   6.372 -10.925  0.00  0.00    +0.043 A 
ATOM     23  C   LIG    1       11.484   6.104 -12.196  0.00  0.00    +0.005 A 
ATOM     24  C   LIG    1       11.222   6.984 -13.224  0.00  0.00    +0.020 A 
ATOM     25  C   LIG    1       10.464   8.095 -12.921  0.00  0.00    +0.113 A 
ATOM     26  N   LIG    1       10.007   8.392 -11.677  0.00  0.00    -0.240 NA
ENDBRANCH  19  21
ENDBRANCH  18  19
ENDBRANCH  17  18
ENDBRANCH  16  17
ENDBRANCH   4  16
TORSDOF 7
ENDMDL
MODEL 4
REMARK VINA RESULT:      -7.6      1.766      2.200
REMARK  Name = 
REMARK                            x       y       z     vdW  Elec       q    Type
REMARK                         _______ _______ _______ _____ _____    ______ ____
ROOT
ATOM      1  C   LIG    1        4.278   8.002  -4.701  0.00  0.00    -0.046 A 
ATOM      2  C   LIG    1        4.577   6.655  -4.878  0.00  0.00    +0.007 A 
ATOM      3  C   LIG    1        5.529   6.260  -5.811  0.00  0.00    +0.046 A 
ATOM      4  C   LIG    1        6.175   7.186  -6.639  0.00  0.00    +0.121 A 
ATOM      5  C   LIG    1        5.834   8.532  -6.511  0.00  0.00    +0.046 A 
ATOM      6  C   LIG    1        4.899   8.940  -5.541  0.00  0.00    +0.007 A 
ENDROOT
BRANCH   1   7
ATOM      7  C   LIG    1        3.300   8.398  -3.621  0.00  0.00    +0.056 C 
BRANCH   7  10
ATOM      8  S   LIG    1        2.143   7.971  -0.104  0.00  0.00    -0.039 S 
ATOM      9  C   LIG    1        2.965   8.999  -1.124  0.00  0.00    +0.069 C 
ATOM     10  C   LIG    1        3.932   8.585  -2.227  0.00  0.00    +0.112 C 
ATOM     11  S   LIG    1        5.014  10.077  -2.346  0.00  0.00    -0.057 S 
ATOM     12  C   LIG    1        3.876  11.103  -1.501  0.00  0.00    +0.277 C 
ATOM     13  O   LIG    1        4.030  12.288  -1.318  0.00  0.00    -0.263 OA
ATOM     14  N   LIG    1        2.861  10.351  -0.995  0.00  0.00    -0.273 N 
ATOM     15  H   LIG    1        2.259  10.776  -0.306  0.00  0.00    +0.156 HD
ENDBRANCH   7  10
ENDBRANCH   1   7
BRANCH   4  16
ATOM     16  O   LIG    1        7.136   6.858  -7.583  0.00  0.00    -0.490 OA
BRANCH  16  17
ATOM     17  C   LIG    1        7.950   5.762  -7.148  0.00  0.00    +0.248 C 
BRANCH  17  18
ATOM     18  C   LIG    1        9.443   5.838  -7.431  0.00  0.00    +0.147 C 
BRANCH  18  19
ATOM     19  N   LIG    1        9.864   5.327  -8.774  0.00  0.00    -0.315 N 
ATOM     20  C   LIG    1        9.147   4.101  -9.155  0.00  0.00    +0.131 C 
BRANCH  19  21
ATOM     21  C   LIG    1       10.081   6.161  -9.887  0.00  0.00    +0.121 A 
ATOM     22  C   LIG    1       10.263   5.655 -11.177  0.00  0.00    +0.043 A 
ATOM     23  C   LIG    1       10.459   6.495 -12.277  0.00  0.00    +0.005 A 
ATOM     24  C   LIG    1       10.379   7.860 -12.098  0.00  0.00    +0.020 A 
ATOM     25  C   LIG    1       10.123   8.311 -10.820  0.00  0.00    +0.113 A 
ATOM     26  N   LIG    1        9.992   7.504  -9.737  0.00  0.00    -0.240 NA
ENDBRANCH  19  21
ENDBRANCH  18  19
ENDBRANCH  17  18
ENDBRANCH  16  17
ENDBRANCH   4  16
TORSDOF 7
ENDMDL
MODEL 5
REMARK VINA RESULT:      -7.6      3.397      4.558
REMARK  Name = 
REMARK                            x       y       z     vdW  Elec       q    Type
REMARK                         _______ _______ _______ _____ _____    ______ ____
ROOT
ATOM      1  C   LIG    1        4.294   8.485  -3.742  0.00  0.00    -0.046 A 
ATOM      2  C   LIG    1        4.705   9.599  -3.017  0.00  0.00    +0.007 A 
ATOM      3  C   LIG    1        5.365  10.647  -3.648  0.00  0.00    +0.046 A 
ATOM      4  C   LIG    1        5.690  10.598  -5.009  0.00  0.00    +0.121 A 
ATOM      5  C   LIG    1        5.337   9.457  -5.728  0.00  0.00    +0.046 A 
ATOM      6  C   LIG    1        4.633   8.411  -5.102  0.00  0.00    +0.007 A 
ENDROOT
BRANCH   1   7
ATOM      7  C   LIG    1        3.506   7.405  -3.039  0.00  0.00    +0.056 C 
BRANCH   7  10
ATOM      8  S   LIG    1        5.226   4.841  -0.953  0.00  0.00    -0.039 S 
ATOM      9  C   LIG    1        3.878   5.816  -1.029  0.00  0.00    +0.069 C 
ATOM     10  C   LIG    1        3.836   7.250  -1.540  0.00  0.00    +0.112 C 
ATOM     11  S   LIG    1        2.385   7.927  -0.619  0.00  0.00    -0.057 S 
ATOM     12  C   LIG    1        1.767   6.342  -0.212  0.00  0.00    +0.277 C 
ATOM     13  O   LIG    1        0.731   6.143   0.378  0.00  0.00    -0.263 OA
ATOM     14  N   LIG    1        2.672   5.387  -0.562  0.00  0.00    -0.273 N 
ATOM     15  H   LIG    1        2.544   4.458  -0.190  0.00  0.00    +0.156 HD
ENDBRANCH   7  10
ENDBRANCH   1   7
BRANCH   4  16
ATOM     16  O   LIG    1        6.340  11.611  -5.698  0.00  0.00    -0.490 OA
BRANCH  16  17
ATOM     17  C   LIG    1        7.329  11.089  -6.593  0.00  0.00    +0.248 C 
BRANCH  17  18
ATOM     18  C   LIG    1        8.293  12.079  -7.230  0.00  0.00    +0.147 C 
BRANCH  18  19
ATOM     19  N   LIG    1        9.645  11.527  -7.563  0.00  0.00    -0.315 N 
ATOM     20  C   LIG    1        9.589  10.515  -8.627  0.00  0.00    +0.131 C 
BRANCH  19  21
ATOM     21  C   LIG    1       10.801  12.324  -7.671  0.00  0.00    +0.121 A 
ATOM     22  C   LIG    1       11.939  11.899  -8.362  0.00  0.00    +0.043 A 
ATOM     23  C   LIG    1       13.073  12.708  -8.479  0.00  0.00    +0.005 A 
ATOM     24  C   LIG    1       13.034  13.992  -7.978  0.00  0.00    +0.020 A 
ATOM     25  C   LIG    1       11.863  14.392  -7.371  0.00  0.00    +0.113 A 
ATOM     26  N   LIG    1       10.779  13.593  -7.200  0.00  0.00    -0.240 NA
ENDBRANCH  19  21
ENDBRANCH  18  19
ENDBRANCH  17  18
ENDBRANCH  16  17
ENDBRANCH   4  16
TORSDOF 7
ENDMDL
MODEL 6
REMARK VINA RESULT:      -7.5      2.525      3.930
REMARK  Name = 
REMARK                            x       y       z     vdW  Elec       q    Type
REMARK                         _______ _______ _______ _____ _____    ______ ____
ROOT
ATOM      1  C   LIG    1        7.053   6.410  -6.943  0.00  0.00    -0.046 A 
ATOM      2  C   LIG    1        7.919   5.339  -7.137  0.00  0.00    +0.007 A 
ATOM      3  C   LIG    1        9.138   5.524  -7.780  0.00  0.00    +0.046 A 
ATOM      4  C   LIG    1        9.511   6.769  -8.301  0.00  0.00    +0.121 A 
ATOM      5  C   LIG    1        8.620   7.833  -8.166  0.00  0.00    +0.046 A 
ATOM      6  C   LIG    1        7.403   7.658  -7.481  0.00  0.00    +0.007 A 
ENDROOT
BRANCH   1   7
ATOM      7  C   LIG    1        5.776   6.186  -6.167  0.00  0.00    +0.056 C 
BRANCH   7  10
ATOM      8  S   LIG    1        4.430   6.917  -2.770  0.00  0.00    -0.039 S 
ATOM      9  C   LIG    1        4.170   7.176  -4.394  0.00  0.00    +0.069 C 
ATOM     10  C   LIG    1        5.242   7.439  -5.444  0.00  0.00    +0.112 C 
ATOM     11  S   LIG    1        4.295   8.399  -6.706  0.00  0.00    -0.057 S 
ATOM     12  C   LIG    1        2.740   7.896  -6.080  0.00  0.00    +0.277 C 
ATOM     13  O   LIG    1        1.677   8.186  -6.576  0.00  0.00    -0.263 OA
ATOM     14  N   LIG    1        2.908   7.227  -4.906  0.00  0.00    -0.273 N 
ATOM     15  H   LIG    1        2.093   7.075  -4.330  0.00  0.00    +0.156 HD
ENDBRANCH   7  10
ENDBRANCH   1   7
BRANCH   4  16
ATOM     16  O   LIG    1       10.713   7.021  -8.946  0.00  0.00    -0.490 OA
BRANCH  16  17
ATOM     17  C   LIG    1       10.910   6.142 -10.059  0.00  0.00    +0.248 C 
BRANCH  17  18
ATOM     18  C   LIG    1       10.446   6.623 -11.426  0.00  0.00    +0.147 C 
BRANCH  18  19
ATOM     19  N   LIG    1       11.287   7.698 -12.041  0.00  0.00    -0.315 N 
ATOM     20  C   LIG    1       12.421   7.154 -12.802  0.00  0.00    +0.131 C 
BRANCH  19  21
ATOM     21  C   LIG    1       10.749   8.839 -12.666  0.00  0.00    +0.121 A 
ATOM     22  C   LIG    1        9.584   9.462 -12.210  0.00  0.00    +0.043 A 
ATOM     23  C   LIG    1        9.071  10.607 -12.827  0.00  0.00    +0.005 A 
ATOM     24  C   LIG    1        9.782  11.187 -13.856  0.00  0.00    +0.020 A 
ATOM     25  C   LIG    1       10.964  10.579 -14.223  0.00  0.00    +0.113 A 
ATOM     26  N   LIG    1       11.438   9.434 -13.668  0.00  0.00    -0.240 NA
ENDBRANCH  19  21
ENDBRANCH  18  19
ENDBRANCH  17  18
ENDBRANCH  16  17
ENDBRANCH   4  16
TORSDOF 7
ENDMDL
MODEL 7
REMARK VINA RESULT:      -7.5      6.473      8.519
REMARK  Name = 
REMARK                            x       y       z     vdW  Elec       q    Type
REMARK                         _______ _______ _______ _____ _____    ______ ____
ROOT
ATOM      1  C   LIG    1       11.462   2.617  -3.635  0.00  0.00    -0.046 A 
ATOM      2  C   LIG    1       10.838   2.068  -4.751  0.00  0.00    +0.007 A 
ATOM      3  C   LIG    1        9.718   2.678  -5.304  0.00  0.00    +0.046 A 
ATOM      4  C   LIG    1        9.148   3.822  -4.733  0.00  0.00    +0.121 A 
ATOM      5  C   LIG    1        9.731   4.341  -3.578  0.00  0.00    +0.046 A 
ATOM      6  C   LIG    1       10.888   3.749  -3.038  0.00  0.00    +0.007 A 
ENDROOT
BRANCH   1   7
ATOM      7  C   LIG    1       12.725   1.972  -3.113  0.00  0.00    +0.056 C 
BRANCH   7  10
ATOM      8  S   LIG    1       15.114   0.798  -5.721  0.00  0.00    -0.039 S 
ATOM      9  C   LIG    1       15.021   1.462  -4.197  0.00  0.00    +0.069 C 
ATOM     10  C   LIG    1       14.024   2.519  -3.738  0.00  0.00    +0.112 C 
ATOM     11  S   LIG    1       14.955   3.331  -2.365  0.00  0.00    -0.057 S 
ATOM     12  C   LIG    1       16.090   2.008  -2.207  0.00  0.00    +0.277 C 
ATOM     13  O   LIG    1       16.959   1.950  -1.369  0.00  0.00    -0.263 OA
ATOM     14  N   LIG    1       15.913   1.123  -3.225  0.00  0.00    -0.273 N 
ATOM     15  H   LIG    1       16.636   0.435  -3.382  0.00  0.00    +0.156 HD
ENDBRANCH   7  10
ENDBRANCH   1   7
BRANCH   4  16
ATOM     16  O   LIG    1        8.038   4.481  -5.240  0.00  0.00    -0.490 OA
BRANCH  16  17
ATOM     17  C   LIG    1        8.181   4.759  -6.638  0.00  0.00    +0.248 C 
BRANCH  17  18
ATOM     18  C   LIG    1        9.091   5.911  -7.037  0.00  0.00    +0.147 C 
BRANCH  18  19
ATOM     19  N   LIG    1        9.763   5.760  -8.366  0.00  0.00    -0.315 N 
ATOM     20  C   LIG    1        9.336   4.545  -9.074  0.00  0.00    +0.131 C 
BRANCH  19  21
ATOM     21  C   LIG    1        9.962   6.831  -9.259  0.00  0.00    +0.121 A 
ATOM     22  C   LIG    1       10.294   6.633 -10.602  0.00  0.00    +0.043 A 
ATOM     23  C   LIG    1       10.469   7.705 -11.483  0.00  0.00    +0.005 A 
ATOM     24  C   LIG    1       10.220   8.985 -11.036  0.00  0.00    +0.020 A 
ATOM     25  C   LIG    1        9.823   9.125  -9.723  0.00  0.00    +0.113 A 
ATOM     26  N   LIG    1        9.708   8.095  -8.846  0.00  0.00    -0.240 NA
ENDBRANCH  19  21
ENDBRANCH  18  19
ENDBRANCH  17  18
ENDBRANCH  16  17
ENDBRANCH   4  16
TORSDOF 7
ENDMDL
MODEL 8
REMARK VINA RESULT:      -7.4      6.764     11.420
REMARK  Name = 
REMARK                            x       y       z     vdW  Elec       q    Type
REMARK                         _______ _______ _______ _____ _____    ______ ____
ROOT
ATOM      1  C   LIG    1       11.205   2.323  -3.069  0.00  0.00    -0.046 A 
ATOM      2  C   LIG    1       10.611   2.653  -4.283  0.00  0.00    +0.007 A 
ATOM      3  C   LIG    1        9.448   3.414  -4.316  0.00  0.00    +0.046 A 
ATOM      4  C   LIG    1        8.806   3.825  -3.142  0.00  0.00    +0.121 A 
ATOM      5  C   LIG    1        9.361   3.444  -1.921  0.00  0.00    +0.046 A 
ATOM      6  C   LIG    1       10.559   2.707  -1.884  0.00  0.00    +0.007 A 
ENDROOT
BRANCH   1   7
ATOM      7  C   LIG    1       12.512   1.566  -3.077  0.00  0.00    +0.056 C 
BRANCH   7  10
ATOM      8  S   LIG    1       15.003   0.860  -5.757  0.00  0.00    -0.039 S 
ATOM      9  C   LIG    1       14.836   1.466  -4.215  0.00  0.00    +0.069 C 
ATOM     10  C   LIG    1       13.689   2.334  -3.712  0.00  0.00    +0.112 C 
ATOM     11  S   LIG    1       14.503   3.259  -2.337  0.00  0.00    -0.057 S 
ATOM     12  C   LIG    1       15.844   2.139  -2.232  0.00  0.00    +0.277 C 
ATOM     13  O   LIG    1       16.729   2.207  -1.412  0.00  0.00    -0.263 OA
ATOM     14  N   LIG    1       15.794   1.258  -3.268  0.00  0.00    -0.273 N 
ATOM     15  H   LIG    1       16.616   0.704  -3.455  0.00  0.00    +0.156 HD
ENDBRANCH   7  10
ENDBRANCH   1   7
BRANCH   4  16
ATOM     16  O   LIG    1        7.650   4.590  -3.107  0.00  0.00    -0.490 OA
BRANCH  16  17
ATOM     17  C   LIG    1        7.305   4.963  -1.767  0.00  0.00    +0.248 C 
BRANCH  17  18
ATOM     18  C   LIG    1        5.856   4.779  -1.337  0.00  0.00    +0.147 C 
BRANCH  18  19
ATOM     19  N   LIG    1        4.976   5.973  -1.538  0.00  0.00    -0.315 N 
ATOM     20  C   LIG    1        4.979   6.441  -2.932  0.00  0.00    +0.131 C 
BRANCH  19  21
ATOM     21  C   LIG    1        3.701   6.102  -0.955  0.00  0.00    +0.121 A 
ATOM     22  C   LIG    1        3.466   6.916   0.156  0.00  0.00    +0.043 A 
ATOM     23  C   LIG    1        2.191   7.051   0.713  0.00  0.00    +0.005 A 
ATOM     24  C   LIG    1        1.122   6.435   0.095  0.00  0.00    +0.020 A 
ATOM     25  C   LIG    1        1.393   5.703  -1.041  0.00  0.00    +0.113 A 
ATOM     26  N   LIG    1        2.636   5.519  -1.554  0.00  0.00    -0.240 NA
ENDBRANCH  19  21
ENDBRANCH  18  19
ENDBRANCH  17  18
ENDBRANCH  16  17
ENDBRANCH   4  16
TORSDOF 7
ENDMDL
MODEL 9
REMARK VINA RESULT:      -7.4      3.899      8.911
REMARK  Name = 
REMARK                            x       y       z     vdW  Elec       q    Type
REMARK                         _______ _______ _______ _____ _____    ______ ____
ROOT
ATOM      1  C   LIG    1        5.509   6.896  -6.410  0.00  0.00    -0.046 A 
ATOM      2  C   LIG    1        6.022   8.173  -6.614  0.00  0.00    +0.007 A 
ATOM      3  C   LIG    1        5.282   9.296  -6.259  0.00  0.00    +0.046 A 
ATOM      4  C   LIG    1        3.986   9.187  -5.742  0.00  0.00    +0.121 A 
ATOM      5  C   LIG    1        3.441   7.913  -5.595  0.00  0.00    +0.046 A 
ATOM      6  C   LIG    1        4.202   6.772  -5.916  0.00  0.00    +0.007 A 
ENDROOT
BRANCH   1   7
ATOM      7  C   LIG    1        6.375   5.701  -6.732  0.00  0.00    +0.056 C 
BRANCH   7  10
ATOM      8  S   LIG    1        9.439   6.933  -8.458  0.00  0.00    -0.039 S 
ATOM      9  C   LIG    1        8.850   5.710  -7.494  0.00  0.00    +0.069 C 
ATOM     10  C   LIG    1        7.860   5.869  -6.348  0.00  0.00    +0.112 C 
ATOM     11  S   LIG    1        8.286   4.418  -5.288  0.00  0.00    -0.057 S 
ATOM     12  C   LIG    1        9.150   3.598  -6.571  0.00  0.00    +0.277 C 
ATOM     13  O   LIG    1        9.636   2.496  -6.472  0.00  0.00    -0.263 OA
ATOM     14  N   LIG    1        9.281   4.426  -7.643  0.00  0.00    -0.273 N 
ATOM     15  H   LIG    1        9.941   4.165  -8.361  0.00  0.00    +0.156 HD
ENDBRANCH   7  10
ENDBRANCH   1   7
BRANCH   4  16
ATOM     16  O   LIG    1        3.200  10.265  -5.363  0.00  0.00    -0.490 OA
BRANCH  16  17
ATOM     17  C   LIG    1        3.816  11.025  -4.316  0.00  0.00    +0.248 C 
BRANCH  17  18
ATOM     18  C   LIG    1        3.507  10.625  -2.881  0.00  0.00    +0.147 C 
BRANCH  18  19
ATOM     19  N   LIG    1        4.519   9.727  -2.238  0.00  0.00    -0.315 N 
ATOM     20  C   LIG    1        5.386  10.447  -1.295  0.00  0.00    +0.131 C 
BRANCH  19  21
ATOM     21  C   LIG    1        4.221   8.431  -1.776  0.00  0.00    +0.121 A 
ATOM     22  C   LIG    1        4.789   7.287  -2.342  0.00  0.00    +0.043 A 
ATOM     23  C   LIG    1        4.500   6.006  -1.860  0.00  0.00    +0.005 A 
ATOM     24  C   LIG    1        3.705   5.876  -0.741  0.00  0.00    +0.020 A 
ATOM     25  C   LIG    1        3.228   7.039  -0.173  0.00  0.00    +0.113 A 
ATOM     26  N   LIG    1        3.455   8.281  -0.670  0.00  0.00    -0.240 NA
ENDBRANCH  19  21
ENDBRANCH  18  19
ENDBRANCH  17  18
ENDBRANCH  16  17
ENDBRANCH   4  16
TORSDOF 7
ENDMDL
