MODEL 1
REMARK VINA RESULT:      -6.4      0.000      0.000
REMARK  Name = 
REMARK                            x       y       z     vdW  Elec       q    Type
REMARK                         _______ _______ _______ _____ _____    ______ ____
ROOT
ATOM      1  C   LIG    1        0.780  31.011   6.247  0.00  0.00    -0.046 A 
ATOM      2  C   LIG    1       -0.085  31.057   5.159  0.00  0.00    +0.007 A 
ATOM      3  C   LIG    1       -0.835  32.198   4.901  0.00  0.00    +0.046 A 
ATOM      4  C   LIG    1       -0.792  33.312   5.747  0.00  0.00    +0.121 A 
ATOM      5  C   LIG    1        0.025  33.250   6.875  0.00  0.00    +0.046 A 
ATOM      6  C   LIG    1        0.816  32.111   7.118  0.00  0.00    +0.007 A 
ENDROOT
BRANCH   1   7
ATOM      7  C   LIG    1        1.639  29.785   6.447  0.00  0.00    +0.056 C 
BRANCH   7  10
ATOM      8  S   LIG    1        1.067  28.597   2.962  0.00  0.00    -0.039 S 
ATOM      9  C   LIG    1        1.998  28.352   4.321  0.00  0.00    +0.069 C 
ATOM     10  C   LIG    1        2.539  29.435   5.245  0.00  0.00    +0.112 C 
ATOM     11  S   LIG    1        4.036  28.609   5.943  0.00  0.00    -0.057 S 
ATOM     12  C   LIG    1        3.507  27.009   5.470  0.00  0.00    +0.277 C 
ATOM     13  O   LIG    1        4.098  25.988   5.733  0.00  0.00    -0.263 OA
ATOM     14  N   LIG    1        2.401  27.101   4.682  0.00  0.00    -0.273 N 
ATOM     15  H   LIG    1        2.123  26.281   4.163  0.00  0.00    +0.156 HD
ENDBRANCH   7  10
ENDBRANCH   1   7
BRANCH   4  16
ATOM     16  O   LIG    1       -1.508  34.482   5.542  0.00  0.00    -0.490 OA
BRANCH  16  17
ATOM     17  C   LIG    1       -1.311  34.997   4.220  0.00  0.00    +0.248 C 
BRANCH  17  18
ATOM     18  C   LIG    1       -0.436  36.233   4.069  0.00  0.00    +0.147 C 
BRANCH  18  19
ATOM     19  N   LIG    1        1.023  36.016   4.330  0.00  0.00    -0.315 N 
ATOM     20  C   LIG    1        1.438  36.527   5.644  0.00  0.00    +0.131 C 
BRANCH  19  21
ATOM     21  C   LIG    1        1.697  34.823   4.006  0.00  0.00    +0.121 A 
ATOM     22  C   LIG    1        2.679  34.271   4.834  0.00  0.00    +0.043 A 
ATOM     23  C   LIG    1        3.327  33.075   4.511  0.00  0.00    +0.005 A 
ATOM     24  C   LIG    1        2.924  32.377   3.393  0.00  0.00    +0.020 A 
ATOM     25  C   LIG    1        1.901  32.924   2.648  0.00  0.00    +0.113 A 
ATOM     26  N   LIG    1        1.307  34.113   2.922  0.00  0.00    -0.240 NA
ENDBRANCH  19  21
ENDBRANCH  18  19
ENDBRANCH  17  18
ENDBRANCH  16  17
ENDBRANCH   4  16
TORSDOF 7
ENDMDL
MODEL 2
REMARK VINA RESULT:      -6.3      2.790      7.037
REMARK  Name = 
REMARK                            x       y       z     vdW  Elec       q    Type
REMARK                         _______ _______ _______ _____ _____    ______ ____
ROOT
ATOM      1  C   LIG    1        2.372  33.081   4.184  0.00  0.00    -0.046 A 
ATOM      2  C   LIG    1        3.164  32.491   3.205  0.00  0.00    +0.007 A 
ATOM      3  C   LIG    1        4.234  31.678   3.558  0.00  0.00    +0.046 A 
ATOM      4  C   LIG    1        4.587  31.468   4.897  0.00  0.00    +0.121 A 
ATOM      5  C   LIG    1        3.836  32.108   5.882  0.00  0.00    +0.046 A 
ATOM      6  C   LIG    1        2.728  32.901   5.530  0.00  0.00    +0.007 A 
ENDROOT
BRANCH   1   7
ATOM      7  C   LIG    1        1.169  33.891   3.761  0.00  0.00    +0.056 C 
BRANCH   7  10
ATOM      8  S   LIG    1       -0.472  33.635   7.097  0.00  0.00    -0.039 S 
ATOM      9  C   LIG    1       -0.528  34.439   5.640  0.00  0.00    +0.069 C 
ATOM     10  C   LIG    1        0.673  34.896   4.821  0.00  0.00    +0.112 C 
ATOM     11  S   LIG    1       -0.039  36.322   3.888  0.00  0.00    -0.057 S 
ATOM     12  C   LIG    1       -1.692  35.835   4.192  0.00  0.00    +0.277 C 
ATOM     13  O   LIG    1       -2.663  36.399   3.745  0.00  0.00    -0.263 OA
ATOM     14  N   LIG    1       -1.715  34.807   5.083  0.00  0.00    -0.273 N 
ATOM     15  H   LIG    1       -2.599  34.575   5.512  0.00  0.00    +0.156 HD
ENDBRANCH   7  10
ENDBRANCH   1   7
BRANCH   4  16
ATOM     16  O   LIG    1        5.636  30.664   5.316  0.00  0.00    -0.490 OA
BRANCH  16  17
ATOM     17  C   LIG    1        5.502  29.325   4.825  0.00  0.00    +0.248 C 
BRANCH  17  18
ATOM     18  C   LIG    1        4.527  28.406   5.547  0.00  0.00    +0.147 C 
BRANCH  18  19
ATOM     19  N   LIG    1        3.203  28.225   4.870  0.00  0.00    -0.315 N 
ATOM     20  C   LIG    1        2.837  26.809   4.726  0.00  0.00    +0.131 C 
BRANCH  19  21
ATOM     21  C   LIG    1        2.076  29.022   5.150  0.00  0.00    +0.121 A 
ATOM     22  C   LIG    1        1.227  29.495   4.145  0.00  0.00    +0.043 A 
ATOM     23  C   LIG    1        0.100  30.268   4.438  0.00  0.00    +0.005 A 
ATOM     24  C   LIG    1       -0.232  30.493   5.757  0.00  0.00    +0.020 A 
ATOM     25  C   LIG    1        0.594  29.943   6.714  0.00  0.00    +0.113 A 
ATOM     26  N   LIG    1        1.723  29.242   6.438  0.00  0.00    -0.240 NA
ENDBRANCH  19  21
ENDBRANCH  18  19
ENDBRANCH  17  18
ENDBRANCH  16  17
ENDBRANCH   4  16
TORSDOF 7
ENDMDL
MODEL 3
REMARK VINA RESULT:      -6.2      1.615      3.480
REMARK  Name = 
REMARK                            x       y       z     vdW  Elec       q    Type
REMARK                         _______ _______ _______ _____ _____    ______ ____
ROOT
ATOM      1  C   LIG    1        2.869  31.972   4.160  0.00  0.00    -0.046 A 
ATOM      2  C   LIG    1        3.136  32.699   5.315  0.00  0.00    +0.007 A 
ATOM      3  C   LIG    1        2.735  34.026   5.422  0.00  0.00    +0.046 A 
ATOM      4  C   LIG    1        2.105  34.690   4.363  0.00  0.00    +0.121 A 
ATOM      5  C   LIG    1        1.891  33.986   3.179  0.00  0.00    +0.046 A 
ATOM      6  C   LIG    1        2.261  32.631   3.081  0.00  0.00    +0.007 A 
ENDROOT
BRANCH   1   7
ATOM      7  C   LIG    1        3.247  30.510   4.113  0.00  0.00    +0.056 C 
BRANCH   7  10
ATOM      8  S   LIG    1        3.303  29.965   7.799  0.00  0.00    -0.039 S 
ATOM      9  C   LIG    1        3.252  29.177   6.333  0.00  0.00    +0.069 C 
ATOM     10  C   LIG    1        2.469  29.619   5.103  0.00  0.00    +0.112 C 
ATOM     11  S   LIG    1        2.195  28.009   4.243  0.00  0.00    -0.057 S 
ATOM     12  C   LIG    1        3.448  27.188   5.147  0.00  0.00    +0.277 C 
ATOM     13  O   LIG    1        3.786  26.042   4.962  0.00  0.00    -0.263 OA
ATOM     14  N   LIG    1        3.900  27.993   6.147  0.00  0.00    -0.273 N 
ATOM     15  H   LIG    1        4.459  27.571   6.875  0.00  0.00    +0.156 HD
ENDBRANCH   7  10
ENDBRANCH   1   7
BRANCH   4  16
ATOM     16  O   LIG    1        1.674  36.008   4.408  0.00  0.00    -0.490 OA
BRANCH  16  17
ATOM     17  C   LIG    1        0.533  36.219   3.568  0.00  0.00    +0.248 C 
BRANCH  17  18
ATOM     18  C   LIG    1       -0.842  36.130   4.213  0.00  0.00    +0.147 C 
BRANCH  18  19
ATOM     19  N   LIG    1       -1.462  34.767   4.205  0.00  0.00    -0.315 N 
ATOM     20  C   LIG    1       -1.685  34.262   2.842  0.00  0.00    +0.131 C 
BRANCH  19  21
ATOM     21  C   LIG    1       -1.070  33.733   5.078  0.00  0.00    +0.121 A 
ATOM     22  C   LIG    1       -0.947  32.406   4.657  0.00  0.00    +0.043 A 
ATOM     23  C   LIG    1       -0.538  31.393   5.528  0.00  0.00    +0.005 A 
ATOM     24  C   LIG    1       -0.160  31.726   6.812  0.00  0.00    +0.020 A 
ATOM     25  C   LIG    1       -0.226  33.059   7.158  0.00  0.00    +0.113 A 
ATOM     26  N   LIG    1       -0.679  34.040   6.336  0.00  0.00    -0.240 NA
ENDBRANCH  19  21
ENDBRANCH  18  19
ENDBRANCH  17  18
ENDBRANCH  16  17
ENDBRANCH   4  16
TORSDOF 7
ENDMDL
MODEL 4
REMARK VINA RESULT:      -5.7      1.681      2.049
REMARK  Name = 
REMARK                            x       y       z     vdW  Elec       q    Type
REMARK                         _______ _______ _______ _____ _____    ______ ____
ROOT
ATOM      1  C   LIG    1        0.575  29.457   5.325  0.00  0.00    -0.046 A 
ATOM      2  C   LIG    1        0.631  30.229   4.169  0.00  0.00    +0.007 A 
ATOM      3  C   LIG    1        0.092  31.510   4.149  0.00  0.00    +0.046 A 
ATOM      4  C   LIG    1       -0.571  32.046   5.260  0.00  0.00    +0.121 A 
ATOM      5  C   LIG    1       -0.686  31.254   6.401  0.00  0.00    +0.046 A 
ATOM      6  C   LIG    1       -0.108  29.971   6.439  0.00  0.00    +0.007 A 
ENDROOT
BRANCH   1   7
ATOM      7  C   LIG    1        1.244  28.103   5.333  0.00  0.00    +0.056 C 
BRANCH   7  10
ATOM      8  S   LIG    1        2.553  30.152   8.157  0.00  0.00    -0.039 S 
ATOM      9  C   LIG    1        3.010  29.295   6.805  0.00  0.00    +0.069 C 
ATOM     10  C   LIG    1        2.411  27.976   6.334  0.00  0.00    +0.112 C 
ATOM     11  S   LIG    1        3.822  27.246   5.392  0.00  0.00    -0.057 S 
ATOM     12  C   LIG    1        4.664  28.775   5.257  0.00  0.00    +0.277 C 
ATOM     13  O   LIG    1        5.695  28.935   4.648  0.00  0.00    -0.263 OA
ATOM     14  N   LIG    1        4.043  29.714   6.021  0.00  0.00    -0.273 N 
ATOM     15  H   LIG    1        4.541  30.571   6.210  0.00  0.00    +0.156 HD
ENDBRANCH   7  10
ENDBRANCH   1   7
BRANCH   4  16
ATOM     16  O   LIG    1       -1.123  33.317   5.307  0.00  0.00    -0.490 OA
BRANCH  16  17
ATOM     17  C   LIG    1       -0.917  34.027   4.079  0.00  0.00    +0.248 C 
BRANCH  17  18
ATOM     18  C   LIG    1       -0.415  35.461   4.172  0.00  0.00    +0.147 C 
BRANCH  18  19
ATOM     19  N   LIG    1        1.073  35.612   4.234  0.00  0.00    -0.315 N 
ATOM     20  C   LIG    1        1.495  36.583   5.254  0.00  0.00    +0.131 C 
BRANCH  19  21
ATOM     21  C   LIG    1        1.965  34.524   4.161  0.00  0.00    +0.121 A 
ATOM     22  C   LIG    1        2.609  34.009   5.288  0.00  0.00    +0.043 A 
ATOM     23  C   LIG    1        3.477  32.916   5.205  0.00  0.00    +0.005 A 
ATOM     24  C   LIG    1        3.631  32.275   3.993  0.00  0.00    +0.020 A 
ATOM     25  C   LIG    1        2.916  32.775   2.925  0.00  0.00    +0.113 A 
ATOM     26  N   LIG    1        2.119  33.871   2.985  0.00  0.00    -0.240 NA
ENDBRANCH  19  21
ENDBRANCH  18  19
ENDBRANCH  17  18
ENDBRANCH  16  17
ENDBRANCH   4  16
TORSDOF 7
ENDMDL
MODEL 5
REMARK VINA RESULT:      -5.7      2.968      6.590
REMARK  Name = 
REMARK                            x       y       z     vdW  Elec       q    Type
REMARK                         _______ _______ _______ _____ _____    ______ ____
ROOT
ATOM      1  C   LIG    1        0.135  31.928   4.343  0.00  0.00    -0.046 A 
ATOM      2  C   LIG    1        0.883  30.992   3.635  0.00  0.00    +0.007 A 
ATOM      3  C   LIG    1        0.964  29.676   4.074  0.00  0.00    +0.046 A 
ATOM      4  C   LIG    1        0.350  29.258   5.261  0.00  0.00    +0.121 A 
ATOM      5  C   LIG    1       -0.348  30.205   6.009  0.00  0.00    +0.046 A 
ATOM      6  C   LIG    1       -0.465  31.530   5.548  0.00  0.00    +0.007 A 
ENDROOT
BRANCH   1   7
ATOM      7  C   LIG    1        0.003  33.327   3.791  0.00  0.00    +0.056 C 
BRANCH   7  10
ATOM      8  S   LIG    1       -2.362  36.205   3.881  0.00  0.00    -0.039 S 
ATOM      9  C   LIG    1       -0.811  35.740   4.265  0.00  0.00    +0.069 C 
ATOM     10  C   LIG    1       -0.394  34.390   4.836  0.00  0.00    +0.112 C 
ATOM     11  S   LIG    1        1.156  34.833   5.736  0.00  0.00    -0.057 S 
ATOM     12  C   LIG    1        1.343  36.352   4.888  0.00  0.00    +0.277 C 
ATOM     13  O   LIG    1        2.280  37.103   5.029  0.00  0.00    -0.263 OA
ATOM     14  N   LIG    1        0.236  36.603   4.137  0.00  0.00    -0.273 N 
ATOM     15  H   LIG    1        0.115  37.537   3.774  0.00  0.00    +0.156 HD
ENDBRANCH   7  10
ENDBRANCH   1   7
BRANCH   4  16
ATOM     16  O   LIG    1        0.387  27.960   5.749  0.00  0.00    -0.490 OA
BRANCH  16  17
ATOM     17  C   LIG    1        1.602  27.294   5.385  0.00  0.00    +0.248 C 
BRANCH  17  18
ATOM     18  C   LIG    1        2.784  27.416   6.337  0.00  0.00    +0.147 C 
BRANCH  18  19
ATOM     19  N   LIG    1        3.944  28.204   5.814  0.00  0.00    -0.315 N 
ATOM     20  C   LIG    1        4.538  27.596   4.615  0.00  0.00    +0.131 C 
BRANCH  19  21
ATOM     21  C   LIG    1        3.951  29.610   5.734  0.00  0.00    +0.121 A 
ATOM     22  C   LIG    1        4.569  30.296   4.685  0.00  0.00    +0.043 A 
ATOM     23  C   LIG    1        4.552  31.692   4.607  0.00  0.00    +0.005 A 
ATOM     24  C   LIG    1        3.830  32.405   5.540  0.00  0.00    +0.020 A 
ATOM     25  C   LIG    1        3.175  31.680   6.513  0.00  0.00    +0.113 A 
ATOM     26  N   LIG    1        3.236  30.329   6.631  0.00  0.00    -0.240 NA
ENDBRANCH  19  21
ENDBRANCH  18  19
ENDBRANCH  17  18
ENDBRANCH  16  17
ENDBRANCH   4  16
TORSDOF 7
ENDMDL
MODEL 6
REMARK VINA RESULT:      -5.6      2.920      6.955
REMARK  Name = 
REMARK                            x       y       z     vdW  Elec       q    Type
REMARK                         _______ _______ _______ _____ _____    ______ ____
ROOT
ATOM      1  C   LIG    1        0.948  32.620   4.521  0.00  0.00    -0.046 A 
ATOM      2  C   LIG    1        1.801  32.693   3.426  0.00  0.00    +0.007 A 
ATOM      3  C   LIG    1        3.090  32.177   3.499  0.00  0.00    +0.046 A 
ATOM      4  C   LIG    1        3.592  31.622   4.682  0.00  0.00    +0.121 A 
ATOM      5  C   LIG    1        2.764  31.602   5.803  0.00  0.00    +0.046 A 
ATOM      6  C   LIG    1        1.445  32.088   5.721  0.00  0.00    +0.007 A 
ENDROOT
BRANCH   1   7
ATOM      7  C   LIG    1       -0.472  33.116   4.377  0.00  0.00    +0.056 C 
BRANCH   7  10
ATOM      8  S   LIG    1       -2.461  36.188   3.675  0.00  0.00    -0.039 S 
ATOM      9  C   LIG    1       -0.993  35.650   4.246  0.00  0.00    +0.069 C 
ATOM     10  C   LIG    1       -0.766  34.430   5.130  0.00  0.00    +0.112 C 
ATOM     11  S   LIG    1        0.797  34.889   5.999  0.00  0.00    -0.057 S 
ATOM     12  C   LIG    1        1.200  36.139   4.842  0.00  0.00    +0.277 C 
ATOM     13  O   LIG    1        2.218  36.791   4.866  0.00  0.00    -0.263 OA
ATOM     14  N   LIG    1        0.157  36.334   3.990  0.00  0.00    -0.273 N 
ATOM     15  H   LIG    1        0.165  37.167   3.419  0.00  0.00    +0.156 HD
ENDBRANCH   7  10
ENDBRANCH   1   7
BRANCH   4  16
ATOM     16  O   LIG    1        4.863  31.084   4.819  0.00  0.00    -0.490 OA
BRANCH  16  17
ATOM     17  C   LIG    1        4.868  29.959   5.706  0.00  0.00    +0.248 C 
BRANCH  17  18
ATOM     18  C   LIG    1        5.192  28.596   5.112  0.00  0.00    +0.147 C 
BRANCH  18  19
ATOM     19  N   LIG    1        4.009  27.711   4.869  0.00  0.00    -0.315 N 
ATOM     20  C   LIG    1        4.119  26.425   5.573  0.00  0.00    +0.131 C 
BRANCH  19  21
ATOM     21  C   LIG    1        2.681  28.179   4.858  0.00  0.00    +0.121 A 
ATOM     22  C   LIG    1        2.043  28.590   3.684  0.00  0.00    +0.043 A 
ATOM     23  C   LIG    1        0.718  29.034   3.684  0.00  0.00    +0.005 A 
ATOM     24  C   LIG    1       -0.006  28.980   4.857  0.00  0.00    +0.020 A 
ATOM     25  C   LIG    1        0.644  28.496   5.972  0.00  0.00    +0.113 A 
ATOM     26  N   LIG    1        1.948  28.119   5.994  0.00  0.00    -0.240 NA
ENDBRANCH  19  21
ENDBRANCH  18  19
ENDBRANCH  17  18
ENDBRANCH  16  17
ENDBRANCH   4  16
TORSDOF 7
ENDMDL
MODEL 7
REMARK VINA RESULT:      -5.6      1.201      1.672
REMARK  Name = 
REMARK                            x       y       z     vdW  Elec       q    Type
REMARK                         _______ _______ _______ _____ _____    ______ ____
ROOT
ATOM      1  C   LIG    1        0.445  31.011   4.976  0.00  0.00    -0.046 A 
ATOM      2  C   LIG    1       -0.329  31.543   3.951  0.00  0.00    +0.007 A 
ATOM      3  C   LIG    1       -1.011  32.741   4.129  0.00  0.00    +0.046 A 
ATOM      4  C   LIG    1       -0.991  33.422   5.352  0.00  0.00    +0.121 A 
ATOM      5  C   LIG    1       -0.268  32.862   6.405  0.00  0.00    +0.046 A 
ATOM      6  C   LIG    1        0.455  31.669   6.216  0.00  0.00    +0.007 A 
ENDROOT
BRANCH   1   7
ATOM      7  C   LIG    1        1.236  29.751   4.717  0.00  0.00    +0.056 C 
BRANCH   7  10
ATOM      8  S   LIG    1        3.621  30.264   7.534  0.00  0.00    -0.039 S 
ATOM      9  C   LIG    1        3.062  29.134   6.446  0.00  0.00    +0.069 C 
ATOM     10  C   LIG    1        1.619  28.966   5.988  0.00  0.00    +0.112 C 
ATOM     11  S   LIG    1        1.586  27.180   5.522  0.00  0.00    -0.057 S 
ATOM     12  C   LIG    1        3.330  27.058   5.435  0.00  0.00    +0.277 C 
ATOM     13  O   LIG    1        3.930  26.067   5.093  0.00  0.00    -0.263 OA
ATOM     14  N   LIG    1        3.897  28.201   5.908  0.00  0.00    -0.273 N 
ATOM     15  H   LIG    1        4.884  28.184   6.120  0.00  0.00    +0.156 HD
ENDBRANCH   7  10
ENDBRANCH   1   7
BRANCH   4  16
ATOM     16  O   LIG    1       -1.642  34.623   5.593  0.00  0.00    -0.490 OA
BRANCH  16  17
ATOM     17  C   LIG    1       -1.028  35.707   4.885  0.00  0.00    +0.248 C 
BRANCH  17  18
ATOM     18  C   LIG    1       -0.090  35.357   3.738  0.00  0.00    +0.147 C 
BRANCH  18  19
ATOM     19  N   LIG    1        1.369  35.450   4.059  0.00  0.00    -0.315 N 
ATOM     20  C   LIG    1        1.635  36.333   5.204  0.00  0.00    +0.131 C 
BRANCH  19  21
ATOM     21  C   LIG    1        2.235  34.340   4.055  0.00  0.00    +0.121 A 
ATOM     22  C   LIG    1        2.958  33.952   5.186  0.00  0.00    +0.043 A 
ATOM     23  C   LIG    1        3.800  32.835   5.174  0.00  0.00    +0.005 A 
ATOM     24  C   LIG    1        3.847  32.045   4.045  0.00  0.00    +0.020 A 
ATOM     25  C   LIG    1        3.059  32.426   2.980  0.00  0.00    +0.113 A 
ATOM     26  N   LIG    1        2.285  33.542   2.963  0.00  0.00    -0.240 NA
ENDBRANCH  19  21
ENDBRANCH  18  19
ENDBRANCH  17  18
ENDBRANCH  16  17
ENDBRANCH   4  16
TORSDOF 7
ENDMDL
MODEL 8
REMARK VINA RESULT:      -5.4      1.908      3.440
REMARK  Name = 
REMARK                            x       y       z     vdW  Elec       q    Type
REMARK                         _______ _______ _______ _____ _____    ______ ____
ROOT
ATOM      1  C   LIG    1        3.771  31.036   4.778  0.00  0.00    -0.046 A 
ATOM      2  C   LIG    1        3.032  31.037   3.600  0.00  0.00    +0.007 A 
ATOM      3  C   LIG    1        2.410  32.199   3.158  0.00  0.00    +0.046 A 
ATOM      4  C   LIG    1        2.456  33.385   3.901  0.00  0.00    +0.121 A 
ATOM      5  C   LIG    1        3.142  33.374   5.114  0.00  0.00    +0.046 A 
ATOM      6  C   LIG    1        3.806  32.210   5.546  0.00  0.00    +0.007 A 
ENDROOT
BRANCH   1   7
ATOM      7  C   LIG    1        4.500  29.777   5.183  0.00  0.00    +0.056 C 
BRANCH   7  10
ATOM      8  S   LIG    1        4.225  26.080   5.566  0.00  0.00    -0.039 S 
ATOM      9  C   LIG    1        3.332  27.480   5.443  0.00  0.00    +0.069 C 
ATOM     10  C   LIG    1        3.678  28.823   6.074  0.00  0.00    +0.112 C 
ATOM     11  S   LIG    1        2.007  29.591   6.246  0.00  0.00    -0.057 S 
ATOM     12  C   LIG    1        1.263  28.486   5.111  0.00  0.00    +0.277 C 
ATOM     13  O   LIG    1        0.110  28.546   4.754  0.00  0.00    -0.263 OA
ATOM     14  N   LIG    1        2.142  27.501   4.780  0.00  0.00    -0.273 N 
ATOM     15  H   LIG    1        1.779  26.684   4.311  0.00  0.00    +0.156 HD
ENDBRANCH   7  10
ENDBRANCH   1   7
BRANCH   4  16
ATOM     16  O   LIG    1        1.864  34.577   3.513  0.00  0.00    -0.490 OA
BRANCH  16  17
ATOM     17  C   LIG    1        1.970  35.576   4.535  0.00  0.00    +0.248 C 
BRANCH  17  18
ATOM     18  C   LIG    1        0.728  36.401   4.843  0.00  0.00    +0.147 C 
BRANCH  18  19
ATOM     19  N   LIG    1       -0.546  35.621   4.939  0.00  0.00    -0.315 N 
ATOM     20  C   LIG    1       -1.435  35.860   3.793  0.00  0.00    +0.131 C 
BRANCH  19  21
ATOM     21  C   LIG    1       -0.602  34.278   5.361  0.00  0.00    +0.121 A 
ATOM     22  C   LIG    1       -1.002  33.244   4.511  0.00  0.00    +0.043 A 
ATOM     23  C   LIG    1       -1.034  31.912   4.937  0.00  0.00    +0.005 A 
ATOM     24  C   LIG    1       -0.574  31.603   6.199  0.00  0.00    +0.020 A 
ATOM     25  C   LIG    1       -0.120  32.648   6.975  0.00  0.00    +0.113 A 
ATOM     26  N   LIG    1       -0.141  33.950   6.591  0.00  0.00    -0.240 NA
ENDBRANCH  19  21
ENDBRANCH  18  19
ENDBRANCH  17  18
ENDBRANCH  16  17
ENDBRANCH   4  16
TORSDOF 7
ENDMDL
MODEL 9
REMARK VINA RESULT:      -5.0      2.678      6.460
REMARK  Name = 
REMARK                            x       y       z     vdW  Elec       q    Type
REMARK                         _______ _______ _______ _____ _____    ______ ____
ROOT
ATOM      1  C   LIG    1        0.176  30.756   4.453  0.00  0.00    -0.046 A 
ATOM      2  C   LIG    1        1.124  30.293   3.547  0.00  0.00    +0.007 A 
ATOM      3  C   LIG    1        1.737  29.059   3.734  0.00  0.00    +0.046 A 
ATOM      4  C   LIG    1        1.468  28.269   4.858  0.00  0.00    +0.121 A 
ATOM      5  C   LIG    1        0.566  28.756   5.803  0.00  0.00    +0.046 A 
ATOM      6  C   LIG    1       -0.085  29.987   5.598  0.00  0.00    +0.007 A 
ENDROOT
BRANCH   1   7
ATOM      7  C   LIG    1       -0.527  32.063   4.172  0.00  0.00    +0.056 C 
BRANCH   7  10
ATOM      8  S   LIG    1       -0.559  33.835   7.450  0.00  0.00    -0.039 S 
ATOM      9  C   LIG    1       -0.619  34.072   5.803  0.00  0.00    +0.069 C 
ATOM     10  C   LIG    1        0.178  33.304   4.756  0.00  0.00    +0.112 C 
ATOM     11  S   LIG    1        0.272  34.538   3.385  0.00  0.00    -0.057 S 
ATOM     12  C   LIG    1       -1.038  35.508   4.023  0.00  0.00    +0.277 C 
ATOM     13  O   LIG    1       -1.493  36.485   3.477  0.00  0.00    -0.263 OA
ATOM     14  N   LIG    1       -1.385  35.060   5.260  0.00  0.00    -0.273 N 
ATOM     15  H   LIG    1       -1.969  35.655   5.830  0.00  0.00    +0.156 HD
ENDBRANCH   7  10
ENDBRANCH   1   7
BRANCH   4  16
ATOM     16  O   LIG    1        2.038  27.029   5.100  0.00  0.00    -0.490 OA
BRANCH  16  17
ATOM     17  C   LIG    1        3.333  27.151   5.701  0.00  0.00    +0.248 C 
BRANCH  17  18
ATOM     18  C   LIG    1        3.597  28.380   6.560  0.00  0.00    +0.147 C 
BRANCH  18  19
ATOM     19  N   LIG    1        4.564  29.365   5.982  0.00  0.00    -0.315 N 
ATOM     20  C   LIG    1        5.459  28.752   4.989  0.00  0.00    +0.131 C 
BRANCH  19  21
ATOM     21  C   LIG    1        4.207  30.675   5.611  0.00  0.00    +0.121 A 
ATOM     22  C   LIG    1        4.649  31.263   4.423  0.00  0.00    +0.043 A 
ATOM     23  C   LIG    1        4.271  32.558   4.058  0.00  0.00    +0.005 A 
ATOM     24  C   LIG    1        3.365  33.238   4.845  0.00  0.00    +0.020 A 
ATOM     25  C   LIG    1        2.899  32.588   5.968  0.00  0.00    +0.113 A 
ATOM     26  N   LIG    1        3.307  31.354   6.361  0.00  0.00    -0.240 NA
ENDBRANCH  19  21
ENDBRANCH  18  19
ENDBRANCH  17  18
ENDBRANCH  16  17
ENDBRANCH   4  16
TORSDOF 7
ENDMDL
