MODEL 1
REMARK VINA RESULT:      -8.0      0.000      0.000
REMARK  Name = 
REMARK                            x       y       z     vdW  Elec       q    Type
REMARK                         _______ _______ _______ _____ _____    ______ ____
ROOT
ATOM      1  C   LIG    1      -42.163  14.826 -44.136  0.00  0.00    -0.046 A 
ATOM      2  C   LIG    1      -42.257  13.913 -43.091  0.00  0.00    +0.007 A 
ATOM      3  C   LIG    1      -43.203  12.896 -43.125  0.00  0.00    +0.046 A 
ATOM      4  C   LIG    1      -44.124  12.784 -44.173  0.00  0.00    +0.121 A 
ATOM      5  C   LIG    1      -44.077  13.733 -45.194  0.00  0.00    +0.046 A 
ATOM      6  C   LIG    1      -43.095  14.742 -45.182  0.00  0.00    +0.007 A 
ENDROOT
BRANCH   1   7
ATOM      7  C   LIG    1      -41.069  15.866 -44.102  0.00  0.00    +0.056 C 
BRANCH   7  10
ATOM      8  S   LIG    1      -37.993  15.543 -46.182  0.00  0.00    -0.039 S 
ATOM      9  C   LIG    1      -39.131  16.632 -45.641  0.00  0.00    +0.069 C 
ATOM     10  C   LIG    1      -40.624  16.369 -45.491  0.00  0.00    +0.112 C 
ATOM     11  S   LIG    1      -41.318  18.071 -45.670  0.00  0.00    -0.057 S 
ATOM     12  C   LIG    1      -39.778  18.847 -45.367  0.00  0.00    +0.277 C 
ATOM     13  O   LIG    1      -39.618  20.043 -45.295  0.00  0.00    -0.263 OA
ATOM     14  N   LIG    1      -38.789  17.914 -45.331  0.00  0.00    -0.273 N 
ATOM     15  H   LIG    1      -37.834  18.238 -45.384  0.00  0.00    +0.156 HD
ENDBRANCH   7  10
ENDBRANCH   1   7
BRANCH   4  16
ATOM     16  O   LIG    1      -45.087  11.790 -44.270  0.00  0.00    -0.490 OA
BRANCH  16  17
ATOM     17  C   LIG    1      -46.252  12.250 -44.965  0.00  0.00    +0.248 C 
BRANCH  17  18
ATOM     18  C   LIG    1      -47.606  11.775 -44.458  0.00  0.00    +0.147 C 
BRANCH  18  19
ATOM     19  N   LIG    1      -48.025  12.340 -43.136  0.00  0.00    -0.315 N 
ATOM     20  C   LIG    1      -49.166  13.259 -43.257  0.00  0.00    +0.131 C 
BRANCH  19  21
ATOM     21  C   LIG    1      -48.104  11.574 -41.957  0.00  0.00    +0.121 A 
ATOM     22  C   LIG    1      -49.276  11.486 -41.201  0.00  0.00    +0.043 A 
ATOM     23  C   LIG    1      -49.348  10.706 -40.043  0.00  0.00    +0.005 A 
ATOM     24  C   LIG    1      -48.262   9.933 -39.689  0.00  0.00    +0.020 A 
ATOM     25  C   LIG    1      -47.155   9.996 -40.508  0.00  0.00    +0.113 A 
ATOM     26  N   LIG    1      -47.056  10.796 -41.600  0.00  0.00    -0.240 NA
ENDBRANCH  19  21
ENDBRANCH  18  19
ENDBRANCH  17  18
ENDBRANCH  16  17
ENDBRANCH   4  16
TORSDOF 7
ENDMDL
MODEL 2
REMARK VINA RESULT:      -7.9      1.572      2.560
REMARK  Name = 
REMARK                            x       y       z     vdW  Elec       q    Type
REMARK                         _______ _______ _______ _____ _____    ______ ____
ROOT
ATOM      1  C   LIG    1      -41.732  16.350 -45.286  0.00  0.00    -0.046 A 
ATOM      2  C   LIG    1      -42.693  15.580 -45.933  0.00  0.00    +0.007 A 
ATOM      3  C   LIG    1      -43.196  14.431 -45.336  0.00  0.00    +0.046 A 
ATOM      4  C   LIG    1      -42.721  13.977 -44.099  0.00  0.00    +0.121 A 
ATOM      5  C   LIG    1      -41.712  14.709 -43.474  0.00  0.00    +0.046 A 
ATOM      6  C   LIG    1      -41.228  15.895 -44.058  0.00  0.00    +0.007 A 
ENDROOT
BRANCH   1   7
ATOM      7  C   LIG    1      -41.270  17.636 -45.930  0.00  0.00    +0.056 C 
BRANCH   7  10
ATOM      8  S   LIG    1      -41.380  20.990 -44.310  0.00  0.00    -0.039 S 
ATOM      9  C   LIG    1      -40.424  19.980 -45.225  0.00  0.00    +0.069 C 
ATOM     10  C   LIG    1      -40.303  18.470 -45.064  0.00  0.00    +0.112 C 
ATOM     11  S   LIG    1      -38.612  18.162 -45.738  0.00  0.00    -0.057 S 
ATOM     12  C   LIG    1      -38.538  19.708 -46.556  0.00  0.00    +0.277 C 
ATOM     13  O   LIG    1      -37.624  20.066 -47.260  0.00  0.00    -0.263 OA
ATOM     14  N   LIG    1      -39.603  20.474 -46.194  0.00  0.00    -0.273 N 
ATOM     15  H   LIG    1      -39.572  21.458 -46.415  0.00  0.00    +0.156 HD
ENDBRANCH   7  10
ENDBRANCH   1   7
BRANCH   4  16
ATOM     16  O   LIG    1      -43.185  12.844 -43.448  0.00  0.00    -0.490 OA
BRANCH  16  17
ATOM     17  C   LIG    1      -44.439  12.404 -43.983  0.00  0.00    +0.248 C 
BRANCH  17  18
ATOM     18  C   LIG    1      -45.268  11.449 -43.137  0.00  0.00    +0.147 C 
BRANCH  18  19
ATOM     19  N   LIG    1      -46.645  11.930 -42.798  0.00  0.00    -0.315 N 
ATOM     20  C   LIG    1      -47.459  12.183 -43.995  0.00  0.00    +0.131 C 
BRANCH  19  21
ATOM     21  C   LIG    1      -47.420  11.387 -41.755  0.00  0.00    +0.121 A 
ATOM     22  C   LIG    1      -48.794  11.617 -41.647  0.00  0.00    +0.043 A 
ATOM     23  C   LIG    1      -49.555  11.056 -40.617  0.00  0.00    +0.005 A 
ATOM     24  C   LIG    1      -48.951  10.180 -39.740  0.00  0.00    +0.020 A 
ATOM     25  C   LIG    1      -47.610   9.925 -39.932  0.00  0.00    +0.113 A 
ATOM     26  N   LIG    1      -46.851  10.513 -40.892  0.00  0.00    -0.240 NA
ENDBRANCH  19  21
ENDBRANCH  18  19
ENDBRANCH  17  18
ENDBRANCH  16  17
ENDBRANCH   4  16
TORSDOF 7
ENDMDL
MODEL 3
REMARK VINA RESULT:      -7.8      1.954      2.467
REMARK  Name = 
REMARK                            x       y       z     vdW  Elec       q    Type
REMARK                         _______ _______ _______ _____ _____    ______ ____
ROOT
ATOM      1  C   LIG    1      -41.713  13.448 -43.961  0.00  0.00    -0.046 A 
ATOM      2  C   LIG    1      -42.926  13.355 -43.287  0.00  0.00    +0.007 A 
ATOM      3  C   LIG    1      -43.644  12.165 -43.286  0.00  0.00    +0.046 A 
ATOM      4  C   LIG    1      -43.207  11.043 -44.001  0.00  0.00    +0.121 A 
ATOM      5  C   LIG    1      -42.024  11.148 -44.731  0.00  0.00    +0.046 A 
ATOM      6  C   LIG    1      -41.275  12.340 -44.703  0.00  0.00    +0.007 A 
ENDROOT
BRANCH   1   7
ATOM      7  C   LIG    1      -40.923  14.732 -43.871  0.00  0.00    +0.056 C 
BRANCH   7  10
ATOM      8  S   LIG    1      -37.782  15.503 -45.721  0.00  0.00    -0.039 S 
ATOM      9  C   LIG    1      -39.261  16.128 -45.283  0.00  0.00    +0.069 C 
ATOM     10  C   LIG    1      -40.579  15.365 -45.234  0.00  0.00    +0.112 C 
ATOM     11  S   LIG    1      -41.802  16.724 -45.496  0.00  0.00    -0.057 S 
ATOM     12  C   LIG    1      -40.651  17.982 -45.100  0.00  0.00    +0.277 C 
ATOM     13  O   LIG    1      -40.919  19.159 -45.041  0.00  0.00    -0.263 OA
ATOM     14  N   LIG    1      -39.405  17.448 -44.976  0.00  0.00    -0.273 N 
ATOM     15  H   LIG    1      -38.620  18.082 -44.968  0.00  0.00    +0.156 HD
ENDBRANCH   7  10
ENDBRANCH   1   7
BRANCH   4  16
ATOM     16  O   LIG    1      -43.872   9.826 -44.035  0.00  0.00    -0.490 OA
BRANCH  16  17
ATOM     17  C   LIG    1      -44.935   9.779 -43.076  0.00  0.00    +0.248 C 
BRANCH  17  18
ATOM     18  C   LIG    1      -46.217   9.065 -43.481  0.00  0.00    +0.147 C 
BRANCH  18  19
ATOM     19  N   LIG    1      -46.931   8.360 -42.371  0.00  0.00    -0.315 N 
ATOM     20  C   LIG    1      -46.251   7.121 -41.966  0.00  0.00    +0.131 C 
BRANCH  19  21
ATOM     21  C   LIG    1      -47.487   9.026 -41.262  0.00  0.00    +0.121 A 
ATOM     22  C   LIG    1      -48.494   9.986 -41.395  0.00  0.00    +0.043 A 
ATOM     23  C   LIG    1      -49.052  10.626 -40.284  0.00  0.00    +0.005 A 
ATOM     24  C   LIG    1      -48.661  10.236 -39.021  0.00  0.00    +0.020 A 
ATOM     25  C   LIG    1      -47.718   9.233 -38.938  0.00  0.00    +0.113 A 
ATOM     26  N   LIG    1      -47.129   8.648 -40.012  0.00  0.00    -0.240 NA
ENDBRANCH  19  21
ENDBRANCH  18  19
ENDBRANCH  17  18
ENDBRANCH  16  17
ENDBRANCH   4  16
TORSDOF 7
ENDMDL
MODEL 4
REMARK VINA RESULT:      -7.6      1.264      2.022
REMARK  Name = 
REMARK                            x       y       z     vdW  Elec       q    Type
REMARK                         _______ _______ _______ _____ _____    ______ ____
ROOT
ATOM      1  C   LIG    1      -41.880  14.915 -44.074  0.00  0.00    -0.046 A 
ATOM      2  C   LIG    1      -42.675  14.748 -45.203  0.00  0.00    +0.007 A 
ATOM      3  C   LIG    1      -43.698  13.807 -45.213  0.00  0.00    +0.046 A 
ATOM      4  C   LIG    1      -43.928  12.960 -44.122  0.00  0.00    +0.121 A 
ATOM      5  C   LIG    1      -43.094  13.078 -43.011  0.00  0.00    +0.046 A 
ATOM      6  C   LIG    1      -42.082  14.057 -42.982  0.00  0.00    +0.007 A 
ENDROOT
BRANCH   1   7
ATOM      7  C   LIG    1      -40.833  16.004 -44.072  0.00  0.00    +0.056 C 
BRANCH   7  10
ATOM      8  S   LIG    1      -37.868  15.963 -46.329  0.00  0.00    -0.039 S 
ATOM      9  C   LIG    1      -39.047  16.951 -45.690  0.00  0.00    +0.069 C 
ATOM     10  C   LIG    1      -40.507  16.576 -45.467  0.00  0.00    +0.112 C 
ATOM     11  S   LIG    1      -41.328  18.229 -45.552  0.00  0.00    -0.057 S 
ATOM     12  C   LIG    1      -39.832  19.105 -45.310  0.00  0.00    +0.277 C 
ATOM     13  O   LIG    1      -39.753  20.307 -45.209  0.00  0.00    -0.263 OA
ATOM     14  N   LIG    1      -38.779  18.245 -45.360  0.00  0.00    -0.273 N 
ATOM     15  H   LIG    1      -37.854  18.638 -45.455  0.00  0.00    +0.156 HD
ENDBRANCH   7  10
ENDBRANCH   1   7
BRANCH   4  16
ATOM     16  O   LIG    1      -44.933  12.007 -44.066  0.00  0.00    -0.490 OA
BRANCH  16  17
ATOM     17  C   LIG    1      -44.516  10.842 -43.345  0.00  0.00    +0.248 C 
BRANCH  17  18
ATOM     18  C   LIG    1      -45.303   9.558 -43.567  0.00  0.00    +0.147 C 
BRANCH  18  19
ATOM     19  N   LIG    1      -46.778   9.740 -43.752  0.00  0.00    -0.315 N 
ATOM     20  C   LIG    1      -47.371   8.685 -44.587  0.00  0.00    +0.131 C 
BRANCH  19  21
ATOM     21  C   LIG    1      -47.647  10.121 -42.712  0.00  0.00    +0.121 A 
ATOM     22  C   LIG    1      -47.919   9.289 -41.622  0.00  0.00    +0.043 A 
ATOM     23  C   LIG    1      -48.769   9.688 -40.586  0.00  0.00    +0.005 A 
ATOM     24  C   LIG    1      -49.280  10.969 -40.595  0.00  0.00    +0.020 A 
ATOM     25  C   LIG    1      -48.923  11.778 -41.653  0.00  0.00    +0.113 A 
ATOM     26  N   LIG    1      -48.147  11.379 -42.693  0.00  0.00    -0.240 NA
ENDBRANCH  19  21
ENDBRANCH  18  19
ENDBRANCH  17  18
ENDBRANCH  16  17
ENDBRANCH   4  16
TORSDOF 7
ENDMDL
MODEL 5
REMARK VINA RESULT:      -7.3      2.449      3.573
REMARK  Name = 
REMARK                            x       y       z     vdW  Elec       q    Type
REMARK                         _______ _______ _______ _____ _____    ______ ____
ROOT
ATOM      1  C   LIG    1      -41.688  16.290 -45.157  0.00  0.00    -0.046 A 
ATOM      2  C   LIG    1      -42.681  15.517 -45.749  0.00  0.00    +0.007 A 
ATOM      3  C   LIG    1      -43.183  14.395 -45.100  0.00  0.00    +0.046 A 
ATOM      4  C   LIG    1      -42.676  13.973 -43.866  0.00  0.00    +0.121 A 
ATOM      5  C   LIG    1      -41.636  14.706 -43.296  0.00  0.00    +0.046 A 
ATOM      6  C   LIG    1      -41.152  15.865 -43.932  0.00  0.00    +0.007 A 
ENDROOT
BRANCH   1   7
ATOM      7  C   LIG    1      -41.226  17.547 -45.856  0.00  0.00    +0.056 C 
BRANCH   7  10
ATOM      8  S   LIG    1      -41.291  20.911 -44.254  0.00  0.00    -0.039 S 
ATOM      9  C   LIG    1      -40.370  19.904 -45.208  0.00  0.00    +0.069 C 
ATOM     10  C   LIG    1      -40.226  18.396 -45.044  0.00  0.00    +0.112 C 
ATOM     11  S   LIG    1      -38.566  18.101 -45.798  0.00  0.00    -0.057 S 
ATOM     12  C   LIG    1      -38.549  19.642 -46.628  0.00  0.00    +0.277 C 
ATOM     13  O   LIG    1      -37.673  20.004 -47.378  0.00  0.00    -0.263 OA
ATOM     14  N   LIG    1      -39.603  20.400 -46.220  0.00  0.00    -0.273 N 
ATOM     15  H   LIG    1      -39.592  21.383 -46.447  0.00  0.00    +0.156 HD
ENDBRANCH   7  10
ENDBRANCH   1   7
BRANCH   4  16
ATOM     16  O   LIG    1      -43.137  12.869 -43.164  0.00  0.00    -0.490 OA
BRANCH  16  17
ATOM     17  C   LIG    1      -43.700  11.885 -44.040  0.00  0.00    +0.248 C 
BRANCH  17  18
ATOM     18  C   LIG    1      -45.162  11.513 -43.834  0.00  0.00    +0.147 C 
BRANCH  18  19
ATOM     19  N   LIG    1      -45.430  10.607 -42.673  0.00  0.00    -0.315 N 
ATOM     20  C   LIG    1      -46.458  11.144 -41.770  0.00  0.00    +0.131 C 
BRANCH  19  21
ATOM     21  C   LIG    1      -45.531   9.207 -42.791  0.00  0.00    +0.121 A 
ATOM     22  C   LIG    1      -44.858   8.491 -43.784  0.00  0.00    +0.043 A 
ATOM     23  C   LIG    1      -44.950   7.099 -43.878  0.00  0.00    +0.005 A 
ATOM     24  C   LIG    1      -45.651   6.408 -42.912  0.00  0.00    +0.020 A 
ATOM     25  C   LIG    1      -46.236   7.153 -41.910  0.00  0.00    +0.113 A 
ATOM     26  N   LIG    1      -46.201   8.508 -41.845  0.00  0.00    -0.240 NA
ENDBRANCH  19  21
ENDBRANCH  18  19
ENDBRANCH  17  18
ENDBRANCH  16  17
ENDBRANCH   4  16
TORSDOF 7
ENDMDL
MODEL 6
REMARK VINA RESULT:      -7.1      7.929     11.357
REMARK  Name = 
REMARK                            x       y       z     vdW  Elec       q    Type
REMARK                         _______ _______ _______ _____ _____    ______ ____
ROOT
ATOM      1  C   LIG    1      -50.888   7.406 -46.507  0.00  0.00    -0.046 A 
ATOM      2  C   LIG    1      -50.817   6.188 -45.840  0.00  0.00    +0.007 A 
ATOM      3  C   LIG    1      -49.623   5.764 -45.269  0.00  0.00    +0.046 A 
ATOM      4  C   LIG    1      -48.445   6.510 -45.392  0.00  0.00    +0.121 A 
ATOM      5  C   LIG    1      -48.493   7.701 -46.114  0.00  0.00    +0.046 A 
ATOM      6  C   LIG    1      -49.710   8.153 -46.660  0.00  0.00    +0.007 A 
ENDROOT
BRANCH   1   7
ATOM      7  C   LIG    1      -52.222   7.871 -47.042  0.00  0.00    +0.056 C 
BRANCH   7  10
ATOM      8  S   LIG    1      -53.866  10.100 -49.534  0.00  0.00    -0.039 S 
ATOM      9  C   LIG    1      -53.600   8.504 -49.140  0.00  0.00    +0.069 C 
ATOM     10  C   LIG    1      -52.309   7.921 -48.581  0.00  0.00    +0.112 C 
ATOM     11  S   LIG    1      -52.419   6.168 -49.149  0.00  0.00    -0.057 S 
ATOM     12  C   LIG    1      -54.136   6.267 -49.473  0.00  0.00    +0.277 C 
ATOM     13  O   LIG    1      -54.818   5.338 -49.838  0.00  0.00    -0.263 OA
ATOM     14  N   LIG    1      -54.556   7.557 -49.356  0.00  0.00    -0.273 N 
ATOM     15  H   LIG    1      -55.465   7.792 -49.726  0.00  0.00    +0.156 HD
ENDBRANCH   7  10
ENDBRANCH   1   7
BRANCH   4  16
ATOM     16  O   LIG    1      -47.225   6.146 -44.841  0.00  0.00    -0.490 OA
BRANCH  16  17
ATOM     17  C   LIG    1      -46.591   7.252 -44.186  0.00  0.00    +0.248 C 
BRANCH  17  18
ATOM     18  C   LIG    1      -46.617   7.276 -42.665  0.00  0.00    +0.147 C 
BRANCH  18  19
ATOM     19  N   LIG    1      -46.308   8.604 -42.044  0.00  0.00    -0.315 N 
ATOM     20  C   LIG    1      -45.690   9.536 -42.998  0.00  0.00    +0.131 C 
BRANCH  19  21
ATOM     21  C   LIG    1      -47.186   9.271 -41.168  0.00  0.00    +0.121 A 
ATOM     22  C   LIG    1      -48.215  10.098 -41.628  0.00  0.00    +0.043 A 
ATOM     23  C   LIG    1      -49.092  10.739 -40.748  0.00  0.00    +0.005 A 
ATOM     24  C   LIG    1      -48.995  10.478 -39.398  0.00  0.00    +0.020 A 
ATOM     25  C   LIG    1      -48.012   9.597 -38.999  0.00  0.00    +0.113 A 
ATOM     26  N   LIG    1      -47.118   9.017 -39.841  0.00  0.00    -0.240 NA
ENDBRANCH  19  21
ENDBRANCH  18  19
ENDBRANCH  17  18
ENDBRANCH  16  17
ENDBRANCH   4  16
TORSDOF 7
ENDMDL
MODEL 7
REMARK VINA RESULT:      -7.0      3.879      9.358
REMARK  Name = 
REMARK                            x       y       z     vdW  Elec       q    Type
REMARK                         _______ _______ _______ _____ _____    ______ ____
ROOT
ATOM      1  C   LIG    1      -42.075  12.819 -44.179  0.00  0.00    -0.046 A 
ATOM      2  C   LIG    1      -41.375  13.279 -45.289  0.00  0.00    +0.007 A 
ATOM      3  C   LIG    1      -40.787  14.539 -45.281  0.00  0.00    +0.046 A 
ATOM      4  C   LIG    1      -40.923  15.405 -44.190  0.00  0.00    +0.121 A 
ATOM      5  C   LIG    1      -41.677  14.975 -43.099  0.00  0.00    +0.046 A 
ATOM      6  C   LIG    1      -42.241  13.685 -43.088  0.00  0.00    +0.007 A 
ENDROOT
BRANCH   1   7
ATOM      7  C   LIG    1      -42.629  11.414 -44.195  0.00  0.00    +0.056 C 
BRANCH   7  10
ATOM      8  S   LIG    1      -45.264  10.544 -41.708  0.00  0.00    -0.039 S 
ATOM      9  C   LIG    1      -44.776  10.292 -43.280  0.00  0.00    +0.069 C 
ATOM     10  C   LIG    1      -44.169  11.336 -44.209  0.00  0.00    +0.112 C 
ATOM     11  S   LIG    1      -44.638  10.671 -45.867  0.00  0.00    -0.057 S 
ATOM     12  C   LIG    1      -44.987   9.072 -45.247  0.00  0.00    +0.277 C 
ATOM     13  O   LIG    1      -45.305   8.128 -45.931  0.00  0.00    -0.263 OA
ATOM     14  N   LIG    1      -44.949   9.084 -43.886  0.00  0.00    -0.273 N 
ATOM     15  H   LIG    1      -45.342   8.294 -43.397  0.00  0.00    +0.156 HD
ENDBRANCH   7  10
ENDBRANCH   1   7
BRANCH   4  16
ATOM     16  O   LIG    1      -40.357  16.669 -44.116  0.00  0.00    -0.490 OA
BRANCH  16  17
ATOM     17  C   LIG    1      -39.802  17.073 -45.374  0.00  0.00    +0.248 C 
BRANCH  17  18
ATOM     18  C   LIG    1      -39.274  18.496 -45.485  0.00  0.00    +0.147 C 
BRANCH  18  19
ATOM     19  N   LIG    1      -40.161  19.447 -46.227  0.00  0.00    -0.315 N 
ATOM     20  C   LIG    1      -40.440  18.998 -47.599  0.00  0.00    +0.131 C 
BRANCH  19  21
ATOM     21  C   LIG    1      -41.288  20.065 -45.650  0.00  0.00    +0.121 A 
ATOM     22  C   LIG    1      -41.180  20.997 -44.614  0.00  0.00    +0.043 A 
ATOM     23  C   LIG    1      -42.305  21.618 -44.063  0.00  0.00    +0.005 A 
ATOM     24  C   LIG    1      -43.543  21.372 -44.618  0.00  0.00    +0.020 A 
ATOM     25  C   LIG    1      -43.590  20.502 -45.687  0.00  0.00    +0.113 A 
ATOM     26  N   LIG    1      -42.511  19.850 -46.188  0.00  0.00    -0.240 NA
ENDBRANCH  19  21
ENDBRANCH  18  19
ENDBRANCH  17  18
ENDBRANCH  16  17
ENDBRANCH   4  16
TORSDOF 7
ENDMDL
MODEL 8
REMARK VINA RESULT:      -6.9      7.076     10.811
REMARK  Name = 
REMARK                            x       y       z     vdW  Elec       q    Type
REMARK                         _______ _______ _______ _____ _____    ______ ____
ROOT
ATOM      1  C   LIG    1      -49.740   7.595 -47.555  0.00  0.00    -0.046 A 
ATOM      2  C   LIG    1      -49.851   7.328 -46.195  0.00  0.00    +0.007 A 
ATOM      3  C   LIG    1      -48.789   7.586 -45.335  0.00  0.00    +0.046 A 
ATOM      4  C   LIG    1      -47.562   8.066 -45.808  0.00  0.00    +0.121 A 
ATOM      5  C   LIG    1      -47.422   8.276 -47.179  0.00  0.00    +0.046 A 
ATOM      6  C   LIG    1      -48.508   8.053 -48.047  0.00  0.00    +0.007 A 
ENDROOT
BRANCH   1   7
ATOM      7  C   LIG    1      -50.942   7.379 -48.443  0.00  0.00    +0.056 C 
BRANCH   7  10
ATOM      8  S   LIG    1      -53.318   4.521 -48.176  0.00  0.00    -0.039 S 
ATOM      9  C   LIG    1      -53.232   6.171 -48.378  0.00  0.00    +0.069 C 
ATOM     10  C   LIG    1      -52.256   7.111 -47.681  0.00  0.00    +0.112 C 
ATOM     11  S   LIG    1      -53.198   8.699 -47.700  0.00  0.00    -0.057 S 
ATOM     12  C   LIG    1      -54.304   8.155 -48.943  0.00  0.00    +0.277 C 
ATOM     13  O   LIG    1      -55.167   8.840 -49.438  0.00  0.00    -0.263 OA
ATOM     14  N   LIG    1      -54.113   6.829 -49.183  0.00  0.00    -0.273 N 
ATOM     15  H   LIG    1      -54.821   6.339 -49.710  0.00  0.00    +0.156 HD
ENDBRANCH   7  10
ENDBRANCH   1   7
BRANCH   4  16
ATOM     16  O   LIG    1      -46.468   8.350 -45.004  0.00  0.00    -0.490 OA
BRANCH  16  17
ATOM     17  C   LIG    1      -45.923   9.643 -45.293  0.00  0.00    +0.248 C 
BRANCH  17  18
ATOM     18  C   LIG    1      -45.745  10.608 -44.129  0.00  0.00    +0.147 C 
BRANCH  18  19
ATOM     19  N   LIG    1      -46.988  11.324 -43.701  0.00  0.00    -0.315 N 
ATOM     20  C   LIG    1      -47.881  11.619 -44.830  0.00  0.00    +0.131 C 
BRANCH  19  21
ATOM     21  C   LIG    1      -47.717  10.984 -42.544  0.00  0.00    +0.121 A 
ATOM     22  C   LIG    1      -48.712  11.813 -42.019  0.00  0.00    +0.043 A 
ATOM     23  C   LIG    1      -49.443  11.455 -40.882  0.00  0.00    +0.005 A 
ATOM     24  C   LIG    1      -49.237  10.213 -40.318  0.00  0.00    +0.020 A 
ATOM     25  C   LIG    1      -48.298   9.401 -40.917  0.00  0.00    +0.113 A 
ATOM     26  N   LIG    1      -47.543   9.764 -41.985  0.00  0.00    -0.240 NA
ENDBRANCH  19  21
ENDBRANCH  18  19
ENDBRANCH  17  18
ENDBRANCH  16  17
ENDBRANCH   4  16
TORSDOF 7
ENDMDL
MODEL 9
REMARK VINA RESULT:      -6.9      3.360      8.965
REMARK  Name = 
REMARK                            x       y       z     vdW  Elec       q    Type
REMARK                         _______ _______ _______ _____ _____    ______ ____
ROOT
ATOM      1  C   LIG    1      -41.244  13.118 -44.305  0.00  0.00    -0.046 A 
ATOM      2  C   LIG    1      -41.479  13.853 -43.148  0.00  0.00    +0.007 A 
ATOM      3  C   LIG    1      -41.224  15.219 -43.116  0.00  0.00    +0.046 A 
ATOM      4  C   LIG    1      -40.675  15.890 -44.216  0.00  0.00    +0.121 A 
ATOM      5  C   LIG    1      -40.378  15.147 -45.357  0.00  0.00    +0.046 A 
ATOM      6  C   LIG    1      -40.671  13.770 -45.407  0.00  0.00    +0.007 A 
ENDROOT
BRANCH   1   7
ATOM      7  C   LIG    1      -41.611  11.652 -44.326  0.00  0.00    +0.056 C 
BRANCH   7  10
ATOM      8  S   LIG    1      -44.448  13.709 -45.594  0.00  0.00    -0.039 S 
ATOM      9  C   LIG    1      -44.064  12.440 -44.586  0.00  0.00    +0.069 C 
ATOM     10  C   LIG    1      -43.027  11.358 -44.861  0.00  0.00    +0.112 C 
ATOM     11  S   LIG    1      -43.680   9.957 -43.851  0.00  0.00    -0.057 S 
ATOM     12  C   LIG    1      -44.717  10.990 -42.891  0.00  0.00    +0.277 C 
ATOM     13  O   LIG    1      -45.393  10.609 -41.965  0.00  0.00    -0.263 OA
ATOM     14  N   LIG    1      -44.727  12.248 -43.411  0.00  0.00    -0.273 N 
ATOM     15  H   LIG    1      -45.445  12.883 -43.095  0.00  0.00    +0.156 HD
ENDBRANCH   7  10
ENDBRANCH   1   7
BRANCH   4  16
ATOM     16  O   LIG    1      -40.404  17.249 -44.251  0.00  0.00    -0.490 OA
BRANCH  16  17
ATOM     17  C   LIG    1      -39.607  17.599 -45.389  0.00  0.00    +0.248 C 
BRANCH  17  18
ATOM     18  C   LIG    1      -39.483  19.077 -45.733  0.00  0.00    +0.147 C 
BRANCH  18  19
ATOM     19  N   LIG    1      -40.630  19.648 -46.508  0.00  0.00    -0.315 N 
ATOM     20  C   LIG    1      -41.173  18.695 -47.487  0.00  0.00    +0.131 C 
BRANCH  19  21
ATOM     21  C   LIG    1      -41.651  20.421 -45.923  0.00  0.00    +0.121 A 
ATOM     22  C   LIG    1      -42.980  20.347 -46.346  0.00  0.00    +0.043 A 
ATOM     23  C   LIG    1      -43.988  21.106 -45.743  0.00  0.00    +0.005 A 
ATOM     24  C   LIG    1      -43.676  21.879 -44.645  0.00  0.00    +0.020 A 
ATOM     25  C   LIG    1      -42.365  21.862 -44.218  0.00  0.00    +0.113 A 
ATOM     26  N   LIG    1      -41.370  21.175 -44.834  0.00  0.00    -0.240 NA
ENDBRANCH  19  21
ENDBRANCH  18  19
ENDBRANCH  17  18
ENDBRANCH  16  17
ENDBRANCH   4  16
TORSDOF 7
ENDMDL
