MODEL 1
REMARK VINA RESULT:      -7.3      0.000      0.000
REMARK  Name = 
REMARK                            x       y       z     vdW  Elec       q    Type
REMARK                         _______ _______ _______ _____ _____    ______ ____
ROOT
ATOM      1  C   LIG    1       26.359 -26.977 -10.670  0.00  0.00    -0.046 A 
ATOM      2  C   LIG    1       26.650 -27.778 -11.768  0.00  0.00    +0.007 A 
ATOM      3  C   LIG    1       26.905 -29.135 -11.605  0.00  0.00    +0.046 A 
ATOM      4  C   LIG    1       26.937 -29.728 -10.338  0.00  0.00    +0.121 A 
ATOM      5  C   LIG    1       26.709 -28.918  -9.226  0.00  0.00    +0.046 A 
ATOM      6  C   LIG    1       26.411 -27.552  -9.391  0.00  0.00    +0.007 A 
ENDROOT
BRANCH   1   7
ATOM      7  C   LIG    1       26.005 -25.526 -10.896  0.00  0.00    +0.056 C 
BRANCH   7  10
ATOM      8  S   LIG    1       27.599 -25.463 -14.264  0.00  0.00    -0.039 S 
ATOM      9  C   LIG    1       26.597 -24.609 -13.245  0.00  0.00    +0.069 C 
ATOM     10  C   LIG    1       25.534 -25.201 -12.328  0.00  0.00    +0.112 C 
ATOM     11  S   LIG    1       24.352 -23.791 -12.175  0.00  0.00    -0.057 S 
ATOM     12  C   LIG    1       25.514 -22.614 -12.747  0.00  0.00    +0.277 C 
ATOM     13  O   LIG    1       25.308 -21.425 -12.810  0.00  0.00    -0.263 OA
ATOM     14  N   LIG    1       26.628 -23.247 -13.203  0.00  0.00    -0.273 N 
ATOM     15  H   LIG    1       27.280 -22.713 -13.758  0.00  0.00    +0.156 HD
ENDBRANCH   7  10
ENDBRANCH   1   7
BRANCH   4  16
ATOM     16  O   LIG    1       27.178 -31.075 -10.108  0.00  0.00    -0.490 OA
BRANCH  16  17
ATOM     17  C   LIG    1       25.959 -31.820 -10.011  0.00  0.00    +0.248 C 
BRANCH  17  18
ATOM     18  C   LIG    1       25.012 -31.778 -11.202  0.00  0.00    +0.147 C 
BRANCH  18  19
ATOM     19  N   LIG    1       23.670 -31.173 -10.927  0.00  0.00    -0.315 N 
ATOM     20  C   LIG    1       23.089 -31.653  -9.665  0.00  0.00    +0.131 C 
BRANCH  19  21
ATOM     21  C   LIG    1       23.375 -29.814 -11.145  0.00  0.00    +0.121 A 
ATOM     22  C   LIG    1       23.233 -29.277 -12.428  0.00  0.00    +0.043 A 
ATOM     23  C   LIG    1       22.920 -27.929 -12.631  0.00  0.00    +0.005 A 
ATOM     24  C   LIG    1       22.656 -27.132 -11.537  0.00  0.00    +0.020 A 
ATOM     25  C   LIG    1       22.735 -27.726 -10.295  0.00  0.00    +0.113 A 
ATOM     26  N   LIG    1       23.096 -29.017 -10.087  0.00  0.00    -0.240 NA
ENDBRANCH  19  21
ENDBRANCH  18  19
ENDBRANCH  17  18
ENDBRANCH  16  17
ENDBRANCH   4  16
TORSDOF 7
ENDMDL
MODEL 2
REMARK VINA RESULT:      -6.6      2.219      4.228
REMARK  Name = 
REMARK                            x       y       z     vdW  Elec       q    Type
REMARK                         _______ _______ _______ _____ _____    ______ ____
ROOT
ATOM      1  C   LIG    1       22.798 -26.914 -11.494  0.00  0.00    -0.046 A 
ATOM      2  C   LIG    1       22.600 -27.179 -10.143  0.00  0.00    +0.007 A 
ATOM      3  C   LIG    1       22.488 -28.488  -9.690  0.00  0.00    +0.046 A 
ATOM      4  C   LIG    1       22.513 -29.575 -10.571  0.00  0.00    +0.121 A 
ATOM      5  C   LIG    1       22.648 -29.314 -11.934  0.00  0.00    +0.046 A 
ATOM      6  C   LIG    1       22.801 -27.992 -12.393  0.00  0.00    +0.007 A 
ENDROOT
BRANCH   1   7
ATOM      7  C   LIG    1       22.998 -25.483 -11.937  0.00  0.00    +0.056 C 
BRANCH   7  10
ATOM      8  S   LIG    1       25.186 -22.658 -12.994  0.00  0.00    -0.039 S 
ATOM      9  C   LIG    1       25.206 -24.227 -12.438  0.00  0.00    +0.069 C 
ATOM     10  C   LIG    1       24.276 -24.819 -11.386  0.00  0.00    +0.112 C 
ATOM     11  S   LIG    1       25.314 -26.184 -10.702  0.00  0.00    -0.057 S 
ATOM     12  C   LIG    1       26.410 -26.180 -12.066  0.00  0.00    +0.277 C 
ATOM     13  O   LIG    1       27.325 -26.957 -12.210  0.00  0.00    -0.263 OA
ATOM     14  N   LIG    1       26.143 -25.117 -12.872  0.00  0.00    -0.273 N 
ATOM     15  H   LIG    1       26.831 -24.869 -13.568  0.00  0.00    +0.156 HD
ENDBRANCH   7  10
ENDBRANCH   1   7
BRANCH   4  16
ATOM     16  O   LIG    1       22.414 -30.903 -10.183  0.00  0.00    -0.490 OA
BRANCH  16  17
ATOM     17  C   LIG    1       23.558 -31.660 -10.597  0.00  0.00    +0.248 C 
BRANCH  17  18
ATOM     18  C   LIG    1       24.822 -31.540  -9.758  0.00  0.00    +0.147 C 
BRANCH  18  19
ATOM     19  N   LIG    1       26.045 -31.110 -10.508  0.00  0.00    -0.315 N 
ATOM     20  C   LIG    1       25.818 -31.049 -11.959  0.00  0.00    +0.131 C 
BRANCH  19  21
ATOM     21  C   LIG    1       26.892 -30.070 -10.077  0.00  0.00    +0.121 A 
ATOM     22  C   LIG    1       26.537 -29.196  -9.046  0.00  0.00    +0.043 A 
ATOM     23  C   LIG    1       27.395 -28.181  -8.614  0.00  0.00    +0.005 A 
ATOM     24  C   LIG    1       28.660 -28.097  -9.158  0.00  0.00    +0.020 A 
ATOM     25  C   LIG    1       28.991 -29.029 -10.119  0.00  0.00    +0.113 A 
ATOM     26  N   LIG    1       28.142 -29.980 -10.586  0.00  0.00    -0.240 NA
ENDBRANCH  19  21
ENDBRANCH  18  19
ENDBRANCH  17  18
ENDBRANCH  16  17
ENDBRANCH   4  16
TORSDOF 7
ENDMDL
MODEL 3
REMARK VINA RESULT:      -6.5      1.171      1.661
REMARK  Name = 
REMARK                            x       y       z     vdW  Elec       q    Type
REMARK                         _______ _______ _______ _____ _____    ______ ____
ROOT
ATOM      1  C   LIG    1       26.491 -27.536 -11.588  0.00  0.00    -0.046 A 
ATOM      2  C   LIG    1       27.020 -28.610 -12.295  0.00  0.00    +0.007 A 
ATOM      3  C   LIG    1       27.142 -29.858 -11.696  0.00  0.00    +0.046 A 
ATOM      4  C   LIG    1       26.793 -30.067 -10.356  0.00  0.00    +0.121 A 
ATOM      5  C   LIG    1       26.321 -28.979  -9.623  0.00  0.00    +0.046 A 
ATOM      6  C   LIG    1       26.159 -27.723 -10.237  0.00  0.00    +0.007 A 
ENDROOT
BRANCH   1   7
ATOM      7  C   LIG    1       26.298 -26.217 -12.299  0.00  0.00    +0.056 C 
BRANCH   7  10
ATOM      8  S   LIG    1       23.679 -25.008  -9.940  0.00  0.00    -0.039 S 
ATOM      9  C   LIG    1       24.712 -24.522 -11.152  0.00  0.00    +0.069 C 
ATOM     10  C   LIG    1       26.142 -25.004 -11.359  0.00  0.00    +0.112 C 
ATOM     11  S   LIG    1       26.891 -23.566 -12.243  0.00  0.00    -0.057 S 
ATOM     12  C   LIG    1       25.338 -22.888 -12.682  0.00  0.00    +0.277 C 
ATOM     13  O   LIG    1       25.191 -21.903 -13.367  0.00  0.00    -0.263 OA
ATOM     14  N   LIG    1       24.342 -23.568 -12.053  0.00  0.00    -0.273 N 
ATOM     15  H   LIG    1       23.422 -23.152 -12.040  0.00  0.00    +0.156 HD
ENDBRANCH   7  10
ENDBRANCH   1   7
BRANCH   4  16
ATOM     16  O   LIG    1       26.883 -31.286  -9.702  0.00  0.00    -0.490 OA
BRANCH  16  17
ATOM     17  C   LIG    1       25.620 -31.962  -9.670  0.00  0.00    +0.248 C 
BRANCH  17  18
ATOM     18  C   LIG    1       24.821 -32.023 -10.964  0.00  0.00    +0.147 C 
BRANCH  18  19
ATOM     19  N   LIG    1       23.494 -31.332 -10.925  0.00  0.00    -0.315 N 
ATOM     20  C   LIG    1       22.806 -31.515  -9.639  0.00  0.00    +0.131 C 
BRANCH  19  21
ATOM     21  C   LIG    1       23.277 -30.041 -11.444  0.00  0.00    +0.121 A 
ATOM     22  C   LIG    1       23.594 -29.703 -12.763  0.00  0.00    +0.043 A 
ATOM     23  C   LIG    1       23.356 -28.423 -13.272  0.00  0.00    +0.005 A 
ATOM     24  C   LIG    1       22.710 -27.498 -12.480  0.00  0.00    +0.020 A 
ATOM     25  C   LIG    1       22.350 -27.901 -11.212  0.00  0.00    +0.113 A 
ATOM     26  N   LIG    1       22.631 -29.122 -10.690  0.00  0.00    -0.240 NA
ENDBRANCH  19  21
ENDBRANCH  18  19
ENDBRANCH  17  18
ENDBRANCH  16  17
ENDBRANCH   4  16
TORSDOF 7
ENDMDL
MODEL 4
REMARK VINA RESULT:      -6.5      1.835      3.562
REMARK  Name = 
REMARK                            x       y       z     vdW  Elec       q    Type
REMARK                         _______ _______ _______ _____ _____    ______ ____
ROOT
ATOM      1  C   LIG    1       24.968 -27.537 -12.141  0.00  0.00    -0.046 A 
ATOM      2  C   LIG    1       24.538 -27.418 -10.824  0.00  0.00    +0.007 A 
ATOM      3  C   LIG    1       23.632 -28.328 -10.291  0.00  0.00    +0.046 A 
ATOM      4  C   LIG    1       23.080 -29.354 -11.068  0.00  0.00    +0.121 A 
ATOM      5  C   LIG    1       23.458 -29.441 -12.407  0.00  0.00    +0.046 A 
ATOM      6  C   LIG    1       24.405 -28.545 -12.938  0.00  0.00    +0.007 A 
ENDROOT
BRANCH   1   7
ATOM      7  C   LIG    1       26.015 -26.578 -12.658  0.00  0.00    +0.056 C 
BRANCH   7  10
ATOM      8  S   LIG    1       23.383 -24.301 -11.327  0.00  0.00    -0.039 S 
ATOM      9  C   LIG    1       24.766 -24.346 -12.252  0.00  0.00    +0.069 C 
ATOM     10  C   LIG    1       26.002 -25.194 -11.978  0.00  0.00    +0.112 C 
ATOM     11  S   LIG    1       27.321 -24.201 -12.803  0.00  0.00    -0.057 S 
ATOM     12  C   LIG    1       26.180 -23.273 -13.753  0.00  0.00    +0.277 C 
ATOM     13  O   LIG    1       26.490 -22.450 -14.581  0.00  0.00    -0.263 OA
ATOM     14  N   LIG    1       24.911 -23.543 -13.343  0.00  0.00    -0.273 N 
ATOM     15  H   LIG    1       24.176 -22.922 -13.649  0.00  0.00    +0.156 HD
ENDBRANCH   7  10
ENDBRANCH   1   7
BRANCH   4  16
ATOM     16  O   LIG    1       22.179 -30.297 -10.596  0.00  0.00    -0.490 OA
BRANCH  16  17
ATOM     17  C   LIG    1       22.823 -31.544 -10.308  0.00  0.00    +0.248 C 
BRANCH  17  18
ATOM     18  C   LIG    1       24.041 -31.512  -9.395  0.00  0.00    +0.147 C 
BRANCH  18  19
ATOM     19  N   LIG    1       25.361 -31.639 -10.090  0.00  0.00    -0.315 N 
ATOM     20  C   LIG    1       25.235 -32.245 -11.423  0.00  0.00    +0.131 C 
BRANCH  19  21
ATOM     21  C   LIG    1       26.344 -30.631 -10.076  0.00  0.00    +0.121 A 
ATOM     22  C   LIG    1       27.141 -30.348 -11.188  0.00  0.00    +0.043 A 
ATOM     23  C   LIG    1       28.100 -29.331 -11.167  0.00  0.00    +0.005 A 
ATOM     24  C   LIG    1       28.198 -28.528 -10.050  0.00  0.00    +0.020 A 
ATOM     25  C   LIG    1       27.339 -28.798  -9.006  0.00  0.00    +0.113 A 
ATOM     26  N   LIG    1       26.447 -29.821  -8.996  0.00  0.00    -0.240 NA
ENDBRANCH  19  21
ENDBRANCH  18  19
ENDBRANCH  17  18
ENDBRANCH  16  17
ENDBRANCH   4  16
TORSDOF 7
ENDMDL
MODEL 5
REMARK VINA RESULT:      -6.2      1.885      3.842
REMARK  Name = 
REMARK                            x       y       z     vdW  Elec       q    Type
REMARK                         _______ _______ _______ _____ _____    ______ ____
ROOT
ATOM      1  C   LIG    1       23.008 -26.961 -11.244  0.00  0.00    -0.046 A 
ATOM      2  C   LIG    1       22.907 -27.368  -9.918  0.00  0.00    +0.007 A 
ATOM      3  C   LIG    1       22.711 -28.708  -9.604  0.00  0.00    +0.046 A 
ATOM      4  C   LIG    1       22.553 -29.680 -10.599  0.00  0.00    +0.121 A 
ATOM      5  C   LIG    1       22.589 -29.269 -11.931  0.00  0.00    +0.046 A 
ATOM      6  C   LIG    1       22.826 -27.919 -12.253  0.00  0.00    +0.007 A 
ENDROOT
BRANCH   1   7
ATOM      7  C   LIG    1       23.303 -25.510 -11.542  0.00  0.00    +0.056 C 
BRANCH   7  10
ATOM      8  S   LIG    1       26.606 -27.012 -12.393  0.00  0.00    -0.039 S 
ATOM      9  C   LIG    1       25.799 -25.564 -12.231  0.00  0.00    +0.069 C 
ATOM     10  C   LIG    1       24.359 -25.289 -12.645  0.00  0.00    +0.112 C 
ATOM     11  S   LIG    1       24.407 -23.469 -12.956  0.00  0.00    -0.057 S 
ATOM     12  C   LIG    1       25.901 -23.248 -12.073  0.00  0.00    +0.277 C 
ATOM     13  O   LIG    1       26.426 -22.177 -11.876  0.00  0.00    -0.263 OA
ATOM     14  N   LIG    1       26.427 -24.458 -11.742  0.00  0.00    -0.273 N 
ATOM     15  H   LIG    1       27.386 -24.486 -11.428  0.00  0.00    +0.156 HD
ENDBRANCH   7  10
ENDBRANCH   1   7
BRANCH   4  16
ATOM     16  O   LIG    1       22.362 -31.031 -10.353  0.00  0.00    -0.490 OA
BRANCH  16  17
ATOM     17  C   LIG    1       23.555 -31.786 -10.599  0.00  0.00    +0.248 C 
BRANCH  17  18
ATOM     18  C   LIG    1       24.773 -31.475  -9.741  0.00  0.00    +0.147 C 
BRANCH  18  19
ATOM     19  N   LIG    1       25.995 -31.060 -10.499  0.00  0.00    -0.315 N 
ATOM     20  C   LIG    1       25.772 -31.037 -11.951  0.00  0.00    +0.131 C 
BRANCH  19  21
ATOM     21  C   LIG    1       26.838 -30.008 -10.092  0.00  0.00    +0.121 A 
ATOM     22  C   LIG    1       26.429 -29.035  -9.175  0.00  0.00    +0.043 A 
ATOM     23  C   LIG    1       27.283 -28.007  -8.764  0.00  0.00    +0.005 A 
ATOM     24  C   LIG    1       28.589 -28.005  -9.206  0.00  0.00    +0.020 A 
ATOM     25  C   LIG    1       28.966 -29.027 -10.050  0.00  0.00    +0.113 A 
ATOM     26  N   LIG    1       28.128 -29.995 -10.501  0.00  0.00    -0.240 NA
ENDBRANCH  19  21
ENDBRANCH  18  19
ENDBRANCH  17  18
ENDBRANCH  16  17
ENDBRANCH   4  16
TORSDOF 7
ENDMDL
MODEL 6
REMARK VINA RESULT:      -4.9      2.574      4.986
REMARK  Name = 
REMARK                            x       y       z     vdW  Elec       q    Type
REMARK                         _______ _______ _______ _____ _____    ______ ____
ROOT
ATOM      1  C   LIG    1       24.146 -30.747 -10.437  0.00  0.00    -0.046 A 
ATOM      2  C   LIG    1       24.653 -30.309  -9.218  0.00  0.00    +0.007 A 
ATOM      3  C   LIG    1       26.014 -30.074  -9.063  0.00  0.00    +0.046 A 
ATOM      4  C   LIG    1       26.924 -30.319 -10.098  0.00  0.00    +0.121 A 
ATOM      5  C   LIG    1       26.431 -30.818 -11.302  0.00  0.00    +0.046 A 
ATOM      6  C   LIG    1       25.049 -31.020 -11.476  0.00  0.00    +0.007 A 
ENDROOT
BRANCH   1   7
ATOM      7  C   LIG    1       22.653 -30.912 -10.591  0.00  0.00    +0.056 C 
BRANCH   7  10
ATOM      8  S   LIG    1       23.014 -28.961 -13.745  0.00  0.00    -0.039 S 
ATOM      9  C   LIG    1       22.813 -28.813 -12.100  0.00  0.00    +0.069 C 
ATOM     10  C   LIG    1       21.939 -29.697 -11.219  0.00  0.00    +0.112 C 
ATOM     11  S   LIG    1       21.545 -28.552  -9.824  0.00  0.00    -0.057 S 
ATOM     12  C   LIG    1       22.848 -27.452 -10.216  0.00  0.00    +0.277 C 
ATOM     13  O   LIG    1       23.136 -26.475  -9.565  0.00  0.00    -0.263 OA
ATOM     14  N   LIG    1       23.408 -27.802 -11.405  0.00  0.00    -0.273 N 
ATOM     15  H   LIG    1       24.017 -27.134 -11.855  0.00  0.00    +0.156 HD
ENDBRANCH   7  10
ENDBRANCH   1   7
BRANCH   4  16
ATOM     16  O   LIG    1       28.291 -30.099 -10.010  0.00  0.00    -0.490 OA
BRANCH  16  17
ATOM     17  C   LIG    1       28.618 -28.720 -10.224  0.00  0.00    +0.248 C 
BRANCH  17  18
ATOM     18  C   LIG    1       27.874 -27.985 -11.329  0.00  0.00    +0.147 C 
BRANCH  18  19
ATOM     19  N   LIG    1       26.842 -27.006 -10.861  0.00  0.00    -0.315 N 
ATOM     20  C   LIG    1       26.931 -26.750  -9.416  0.00  0.00    +0.131 C 
BRANCH  19  21
ATOM     21  C   LIG    1       26.505 -25.837 -11.570  0.00  0.00    +0.121 A 
ATOM     22  C   LIG    1       27.212 -25.419 -12.701  0.00  0.00    +0.043 A 
ATOM     23  C   LIG    1       26.855 -24.268 -13.408  0.00  0.00    +0.005 A 
ATOM     24  C   LIG    1       25.722 -23.577 -13.034  0.00  0.00    +0.020 A 
ATOM     25  C   LIG    1       25.014 -24.071 -11.958  0.00  0.00    +0.113 A 
ATOM     26  N   LIG    1       25.388 -25.154 -11.229  0.00  0.00    -0.240 NA
ENDBRANCH  19  21
ENDBRANCH  18  19
ENDBRANCH  17  18
ENDBRANCH  16  17
ENDBRANCH   4  16
TORSDOF 7
ENDMDL
MODEL 7
REMARK VINA RESULT:      -4.6      2.929      6.438
REMARK  Name = 
REMARK                            x       y       z     vdW  Elec       q    Type
REMARK                         _______ _______ _______ _____ _____    ______ ____
ROOT
ATOM      1  C   LIG    1       22.663 -29.438 -10.908  0.00  0.00    -0.046 A 
ATOM      2  C   LIG    1       22.761 -29.084 -12.250  0.00  0.00    +0.007 A 
ATOM      3  C   LIG    1       22.936 -27.756 -12.619  0.00  0.00    +0.046 A 
ATOM      4  C   LIG    1       22.962 -26.727 -11.669  0.00  0.00    +0.121 A 
ATOM      5  C   LIG    1       22.800 -27.067 -10.327  0.00  0.00    +0.046 A 
ATOM      6  C   LIG    1       22.662 -28.415  -9.947  0.00  0.00    +0.007 A 
ENDROOT
BRANCH   1   7
ATOM      7  C   LIG    1       22.557 -30.900 -10.543  0.00  0.00    +0.056 C 
BRANCH   7  10
ATOM      8  S   LIG    1       25.275 -29.955  -8.175  0.00  0.00    -0.039 S 
ATOM      9  C   LIG    1       24.981 -30.553  -9.701  0.00  0.00    +0.069 C 
ATOM     10  C   LIG    1       23.883 -31.538 -10.082  0.00  0.00    +0.112 C 
ATOM     11  S   LIG    1       24.613 -32.345 -11.575  0.00  0.00    -0.057 S 
ATOM     12  C   LIG    1       25.798 -31.079 -11.813  0.00  0.00    +0.277 C 
ATOM     13  O   LIG    1       26.574 -31.034 -12.738  0.00  0.00    -0.263 OA
ATOM     14  N   LIG    1       25.782 -30.225 -10.753  0.00  0.00    -0.273 N 
ATOM     15  H   LIG    1       26.555 -29.583 -10.654  0.00  0.00    +0.156 HD
ENDBRANCH   7  10
ENDBRANCH   1   7
BRANCH   4  16
ATOM     16  O   LIG    1       23.139 -25.385 -11.971  0.00  0.00    -0.490 OA
BRANCH  16  17
ATOM     17  C   LIG    1       24.155 -24.791 -11.154  0.00  0.00    +0.248 C 
BRANCH  17  18
ATOM     18  C   LIG    1       25.597 -24.908 -11.627  0.00  0.00    +0.147 C 
BRANCH  18  19
ATOM     19  N   LIG    1       26.081 -26.307 -11.853  0.00  0.00    -0.315 N 
ATOM     20  C   LIG    1       26.482 -26.542 -13.247  0.00  0.00    +0.131 C 
BRANCH  19  21
ATOM     21  C   LIG    1       26.924 -26.989 -10.954  0.00  0.00    +0.121 A 
ATOM     22  C   LIG    1       26.904 -26.742  -9.578  0.00  0.00    +0.043 A 
ATOM     23  C   LIG    1       27.732 -27.440  -8.694  0.00  0.00    +0.005 A 
ATOM     24  C   LIG    1       28.523 -28.460  -9.181  0.00  0.00    +0.020 A 
ATOM     25  C   LIG    1       28.452 -28.715 -10.534  0.00  0.00    +0.113 A 
ATOM     26  N   LIG    1       27.696 -28.003 -11.408  0.00  0.00    -0.240 NA
ENDBRANCH  19  21
ENDBRANCH  18  19
ENDBRANCH  17  18
ENDBRANCH  16  17
ENDBRANCH   4  16
TORSDOF 7
ENDMDL
MODEL 8
REMARK VINA RESULT:      -4.6      2.928      5.500
REMARK  Name = 
REMARK                            x       y       z     vdW  Elec       q    Type
REMARK                         _______ _______ _______ _____ _____    ______ ____
ROOT
ATOM      1  C   LIG    1       25.061 -30.322 -10.030  0.00  0.00    -0.046 A 
ATOM      2  C   LIG    1       24.451 -30.586 -11.251  0.00  0.00    +0.007 A 
ATOM      3  C   LIG    1       23.282 -29.927 -11.613  0.00  0.00    +0.046 A 
ATOM      4  C   LIG    1       22.649 -29.026 -10.749  0.00  0.00    +0.121 A 
ATOM      5  C   LIG    1       23.221 -28.804  -9.497  0.00  0.00    +0.046 A 
ATOM      6  C   LIG    1       24.426 -29.440  -9.143  0.00  0.00    +0.007 A 
ENDROOT
BRANCH   1   7
ATOM      7  C   LIG    1       26.374 -30.996  -9.708  0.00  0.00    +0.056 C 
BRANCH   7  10
ATOM      8  S   LIG    1       28.306 -28.107  -8.364  0.00  0.00    -0.039 S 
ATOM      9  C   LIG    1       27.639 -28.737  -9.753  0.00  0.00    +0.069 C 
ATOM     10  C   LIG    1       27.622 -30.207 -10.154  0.00  0.00    +0.112 C 
ATOM     11  S   LIG    1       27.524 -30.085 -11.995  0.00  0.00    -0.057 S 
ATOM     12  C   LIG    1       27.001 -28.415 -11.965  0.00  0.00    +0.277 C 
ATOM     13  O   LIG    1       26.703 -27.775 -12.946  0.00  0.00    -0.263 OA
ATOM     14  N   LIG    1       27.082 -27.927 -10.698  0.00  0.00    -0.273 N 
ATOM     15  H   LIG    1       27.023 -26.927 -10.574  0.00  0.00    +0.156 HD
ENDBRANCH   7  10
ENDBRANCH   1   7
BRANCH   4  16
ATOM     16  O   LIG    1       21.488 -28.332 -11.052  0.00  0.00    -0.490 OA
BRANCH  16  17
ATOM     17  C   LIG    1       21.695 -26.915 -11.016  0.00  0.00    +0.248 C 
BRANCH  17  18
ATOM     18  C   LIG    1       22.777 -26.339 -11.918  0.00  0.00    +0.147 C 
BRANCH  18  19
ATOM     19  N   LIG    1       23.571 -25.218 -11.324  0.00  0.00    -0.315 N 
ATOM     20  C   LIG    1       23.768 -25.378  -9.876  0.00  0.00    +0.131 C 
BRANCH  19  21
ATOM     21  C   LIG    1       24.710 -24.665 -11.940  0.00  0.00    +0.121 A 
ATOM     22  C   LIG    1       24.623 -23.665 -12.913  0.00  0.00    +0.043 A 
ATOM     23  C   LIG    1       25.763 -23.111 -13.502  0.00  0.00    +0.005 A 
ATOM     24  C   LIG    1       27.006 -23.496 -13.046  0.00  0.00    +0.020 A 
ATOM     25  C   LIG    1       27.041 -24.431 -12.033  0.00  0.00    +0.113 A 
ATOM     26  N   LIG    1       25.940 -25.017 -11.498  0.00  0.00    -0.240 NA
ENDBRANCH  19  21
ENDBRANCH  18  19
ENDBRANCH  17  18
ENDBRANCH  16  17
ENDBRANCH   4  16
TORSDOF 7
ENDMDL
MODEL 9
REMARK VINA RESULT:      -4.6      3.014      5.849
REMARK  Name = 
REMARK                            x       y       z     vdW  Elec       q    Type
REMARK                         _______ _______ _______ _____ _____    ______ ____
ROOT
ATOM      1  C   LIG    1       25.851 -29.671 -12.276  0.00  0.00    -0.046 A 
ATOM      2  C   LIG    1       25.950 -28.361 -12.732  0.00  0.00    +0.007 A 
ATOM      3  C   LIG    1       24.807 -27.607 -12.967  0.00  0.00    +0.046 A 
ATOM      4  C   LIG    1       23.525 -28.149 -12.811  0.00  0.00    +0.121 A 
ATOM      5  C   LIG    1       23.418 -29.481 -12.415  0.00  0.00    +0.046 A 
ATOM      6  C   LIG    1       24.574 -30.236 -12.138  0.00  0.00    +0.007 A 
ENDROOT
BRANCH   1   7
ATOM      7  C   LIG    1       27.117 -30.430 -11.953  0.00  0.00    +0.056 C 
BRANCH   7  10
ATOM      8  S   LIG    1       25.163 -31.337  -8.912  0.00  0.00    -0.039 S 
ATOM      9  C   LIG    1       26.253 -30.235  -9.519  0.00  0.00    +0.069 C 
ATOM     10  C   LIG    1       27.422 -30.546 -10.445  0.00  0.00    +0.112 C 
ATOM     11  S   LIG    1       28.585 -29.168 -10.046  0.00  0.00    -0.057 S 
ATOM     12  C   LIG    1       27.344 -28.196  -9.287  0.00  0.00    +0.277 C 
ATOM     13  O   LIG    1       27.518 -27.080  -8.856  0.00  0.00    -0.263 OA
ATOM     14  N   LIG    1       26.199 -28.921  -9.163  0.00  0.00    -0.273 N 
ATOM     15  H   LIG    1       25.479 -28.564  -8.552  0.00  0.00    +0.156 HD
ENDBRANCH   7  10
ENDBRANCH   1   7
BRANCH   4  16
ATOM     16  O   LIG    1       22.346 -27.450 -13.022  0.00  0.00    -0.490 OA
BRANCH  16  17
ATOM     17  C   LIG    1       22.345 -26.196 -12.329  0.00  0.00    +0.248 C 
BRANCH  17  18
ATOM     18  C   LIG    1       22.914 -26.172 -10.917  0.00  0.00    +0.147 C 
BRANCH  18  19
ATOM     19  N   LIG    1       23.862 -25.049 -10.632  0.00  0.00    -0.315 N 
ATOM     20  C   LIG    1       24.435 -25.131  -9.281  0.00  0.00    +0.131 C 
BRANCH  19  21
ATOM     21  C   LIG    1       24.808 -24.580 -11.564  0.00  0.00    +0.121 A 
ATOM     22  C   LIG    1       24.502 -23.597 -12.509  0.00  0.00    +0.043 A 
ATOM     23  C   LIG    1       25.455 -23.125 -13.416  0.00  0.00    +0.005 A 
ATOM     24  C   LIG    1       26.755 -23.576 -13.315  0.00  0.00    +0.020 A 
ATOM     25  C   LIG    1       27.025 -24.489 -12.318  0.00  0.00    +0.113 A 
ATOM     26  N   LIG    1       26.092 -24.997 -11.473  0.00  0.00    -0.240 NA
ENDBRANCH  19  21
ENDBRANCH  18  19
ENDBRANCH  17  18
ENDBRANCH  16  17
ENDBRANCH   4  16
TORSDOF 7
ENDMDL
