MODEL 1
REMARK VINA RESULT:      -7.5      0.000      0.000
REMARK  Name = 
REMARK                            x       y       z     vdW  Elec       q    Type
REMARK                         _______ _______ _______ _____ _____    ______ ____
ROOT
ATOM      1  C   LIG    1       20.112  49.386  16.904  0.00  0.00    -0.046 A 
ATOM      2  C   LIG    1       20.312  48.491  17.949  0.00  0.00    +0.007 A 
ATOM      3  C   LIG    1       19.309  48.263  18.885  0.00  0.00    +0.046 A 
ATOM      4  C   LIG    1       18.096  48.960  18.845  0.00  0.00    +0.121 A 
ATOM      5  C   LIG    1       17.913  49.905  17.837  0.00  0.00    +0.046 A 
ATOM      6  C   LIG    1       18.910  50.110  16.865  0.00  0.00    +0.007 A 
ENDROOT
BRANCH   1   7
ATOM      7  C   LIG    1       21.193  49.545  15.861  0.00  0.00    +0.056 C 
BRANCH   7  10
ATOM      8  S   LIG    1       21.462  46.940  13.210  0.00  0.00    -0.039 S 
ATOM      9  C   LIG    1       21.595  48.575  13.494  0.00  0.00    +0.069 C 
ATOM     10  C   LIG    1       20.700  49.404  14.407  0.00  0.00    +0.112 C 
ATOM     11  S   LIG    1       20.848  51.080  13.645  0.00  0.00    -0.057 S 
ATOM     12  C   LIG    1       22.292  50.664  12.748  0.00  0.00    +0.277 C 
ATOM     13  O   LIG    1       22.919  51.439  12.065  0.00  0.00    -0.263 OA
ATOM     14  N   LIG    1       22.532  49.328  12.851  0.00  0.00    -0.273 N 
ATOM     15  H   LIG    1       23.197  48.919  12.211  0.00  0.00    +0.156 HD
ENDBRANCH   7  10
ENDBRANCH   1   7
BRANCH   4  16
ATOM     16  O   LIG    1       17.055  48.774  19.742  0.00  0.00    -0.490 OA
BRANCH  16  17
ATOM     17  C   LIG    1       15.858  48.345  19.081  0.00  0.00    +0.248 C 
BRANCH  17  18
ATOM     18  C   LIG    1       15.835  46.932  18.516  0.00  0.00    +0.147 C 
BRANCH  18  19
ATOM     19  N   LIG    1       16.732  46.702  17.340  0.00  0.00    -0.315 N 
ATOM     20  C   LIG    1       17.668  45.589  17.560  0.00  0.00    +0.131 C 
BRANCH  19  21
ATOM     21  C   LIG    1       16.284  46.740  16.006  0.00  0.00    +0.121 A 
ATOM     22  C   LIG    1       16.470  47.857  15.187  0.00  0.00    +0.043 A 
ATOM     23  C   LIG    1       16.038  47.875  13.858  0.00  0.00    +0.005 A 
ATOM     24  C   LIG    1       15.496  46.730  13.315  0.00  0.00    +0.020 A 
ATOM     25  C   LIG    1       15.402  45.629  14.140  0.00  0.00    +0.113 A 
ATOM     26  N   LIG    1       15.764  45.622  15.448  0.00  0.00    -0.240 NA
ENDBRANCH  19  21
ENDBRANCH  18  19
ENDBRANCH  17  18
ENDBRANCH  16  17
ENDBRANCH   4  16
TORSDOF 7
ENDMDL
MODEL 2
REMARK VINA RESULT:      -6.5      1.554      2.082
REMARK  Name = 
REMARK                            x       y       z     vdW  Elec       q    Type
REMARK                         _______ _______ _______ _____ _____    ______ ____
ROOT
ATOM      1  C   LIG    1       19.623  49.939  16.291  0.00  0.00    -0.046 A 
ATOM      2  C   LIG    1       20.212  49.171  17.290  0.00  0.00    +0.007 A 
ATOM      3  C   LIG    1       19.512  48.868  18.453  0.00  0.00    +0.046 A 
ATOM      4  C   LIG    1       18.224  49.365  18.685  0.00  0.00    +0.121 A 
ATOM      5  C   LIG    1       17.652  50.188  17.715  0.00  0.00    +0.046 A 
ATOM      6  C   LIG    1       18.342  50.464  16.520  0.00  0.00    +0.007 A 
ENDROOT
BRANCH   1   7
ATOM      7  C   LIG    1       20.384  50.177  15.008  0.00  0.00    +0.056 C 
BRANCH   7  10
ATOM      8  S   LIG    1       23.550  50.569  13.082  0.00  0.00    -0.039 S 
ATOM      9  C   LIG    1       22.393  49.462  13.539  0.00  0.00    +0.069 C 
ATOM     10  C   LIG    1       21.706  49.390  14.897  0.00  0.00    +0.112 C 
ATOM     11  S   LIG    1       21.252  47.602  14.985  0.00  0.00    -0.057 S 
ATOM     12  C   LIG    1       21.453  47.354  13.264  0.00  0.00    +0.277 C 
ATOM     13  O   LIG    1       21.220  46.316  12.692  0.00  0.00    -0.263 OA
ATOM     14  N   LIG    1       22.005  48.462  12.698  0.00  0.00    -0.273 N 
ATOM     15  H   LIG    1       22.375  48.378  11.763  0.00  0.00    +0.156 HD
ENDBRANCH   7  10
ENDBRANCH   1   7
BRANCH   4  16
ATOM     16  O   LIG    1       17.471  49.095  19.817  0.00  0.00    -0.490 OA
BRANCH  16  17
ATOM     17  C   LIG    1       16.132  48.713  19.482  0.00  0.00    +0.248 C 
BRANCH  17  18
ATOM     18  C   LIG    1       15.919  47.314  18.920  0.00  0.00    +0.147 C 
BRANCH  18  19
ATOM     19  N   LIG    1       16.905  46.891  17.877  0.00  0.00    -0.315 N 
ATOM     20  C   LIG    1       17.794  45.820  18.349  0.00  0.00    +0.131 C 
BRANCH  19  21
ATOM     21  C   LIG    1       16.570  46.720  16.519  0.00  0.00    +0.121 A 
ATOM     22  C   LIG    1       16.035  45.526  16.027  0.00  0.00    +0.043 A 
ATOM     23  C   LIG    1       15.688  45.376  14.681  0.00  0.00    +0.005 A 
ATOM     24  C   LIG    1       15.793  46.462  13.838  0.00  0.00    +0.020 A 
ATOM     25  C   LIG    1       16.256  47.639  14.387  0.00  0.00    +0.113 A 
ATOM     26  N   LIG    1       16.651  47.777  15.678  0.00  0.00    -0.240 NA
ENDBRANCH  19  21
ENDBRANCH  18  19
ENDBRANCH  17  18
ENDBRANCH  16  17
ENDBRANCH   4  16
TORSDOF 7
ENDMDL
MODEL 3
REMARK VINA RESULT:      -6.4      1.932      3.855
REMARK  Name = 
REMARK                            x       y       z     vdW  Elec       q    Type
REMARK                         _______ _______ _______ _____ _____    ______ ____
ROOT
ATOM      1  C   LIG    1       18.884  48.417  14.497  0.00  0.00    -0.046 A 
ATOM      2  C   LIG    1       17.519  48.683  14.486  0.00  0.00    +0.007 A 
ATOM      3  C   LIG    1       16.612  47.741  14.956  0.00  0.00    +0.046 A 
ATOM      4  C   LIG    1       17.027  46.480  15.402  0.00  0.00    +0.121 A 
ATOM      5  C   LIG    1       18.389  46.183  15.357  0.00  0.00    +0.046 A 
ATOM      6  C   LIG    1       19.314  47.149  14.918  0.00  0.00    +0.007 A 
ENDROOT
BRANCH   1   7
ATOM      7  C   LIG    1       19.843  49.497  14.056  0.00  0.00    +0.056 C 
BRANCH   7  10
ATOM      8  S   LIG    1       22.928  48.857  16.046  0.00  0.00    -0.039 S 
ATOM      9  C   LIG    1       22.366  49.550  14.641  0.00  0.00    +0.069 C 
ATOM     10  C   LIG    1       21.268  48.994  13.743  0.00  0.00    +0.112 C 
ATOM     11  S   LIG    1       21.725  49.723  12.108  0.00  0.00    -0.057 S 
ATOM     12  C   LIG    1       22.767  50.936  12.818  0.00  0.00    +0.277 C 
ATOM     13  O   LIG    1       23.336  51.799  12.192  0.00  0.00    -0.263 OA
ATOM     14  N   LIG    1       22.919  50.694  14.149  0.00  0.00    -0.273 N 
ATOM     15  H   LIG    1       23.660  51.179  14.634  0.00  0.00    +0.156 HD
ENDBRANCH   7  10
ENDBRANCH   1   7
BRANCH   4  16
ATOM     16  O   LIG    1       16.176  45.500  15.889  0.00  0.00    -0.490 OA
BRANCH  16  17
ATOM     17  C   LIG    1       15.390  45.982  16.986  0.00  0.00    +0.248 C 
BRANCH  17  18
ATOM     18  C   LIG    1       16.117  46.307  18.283  0.00  0.00    +0.147 C 
BRANCH  18  19
ATOM     19  N   LIG    1       16.288  47.767  18.567  0.00  0.00    -0.315 N 
ATOM     20  C   LIG    1       15.652  48.169  19.830  0.00  0.00    +0.131 C 
BRANCH  19  21
ATOM     21  C   LIG    1       17.495  48.461  18.356  0.00  0.00    +0.121 A 
ATOM     22  C   LIG    1       18.744  47.852  18.511  0.00  0.00    +0.043 A 
ATOM     23  C   LIG    1       19.935  48.546  18.279  0.00  0.00    +0.005 A 
ATOM     24  C   LIG    1       19.874  49.837  17.799  0.00  0.00    +0.020 A 
ATOM     25  C   LIG    1       18.620  50.370  17.591  0.00  0.00    +0.113 A 
ATOM     26  N   LIG    1       17.459  49.723  17.870  0.00  0.00    -0.240 NA
ENDBRANCH  19  21
ENDBRANCH  18  19
ENDBRANCH  17  18
ENDBRANCH  16  17
ENDBRANCH   4  16
TORSDOF 7
ENDMDL
MODEL 4
REMARK VINA RESULT:      -5.2      1.396      2.285
REMARK  Name = 
REMARK                            x       y       z     vdW  Elec       q    Type
REMARK                         _______ _______ _______ _____ _____    ______ ____
ROOT
ATOM      1  C   LIG    1       20.615  48.963  16.771  0.00  0.00    -0.046 A 
ATOM      2  C   LIG    1       19.925  50.168  16.847  0.00  0.00    +0.007 A 
ATOM      3  C   LIG    1       19.120  50.453  17.943  0.00  0.00    +0.046 A 
ATOM      4  C   LIG    1       18.929  49.525  18.974  0.00  0.00    +0.121 A 
ATOM      5  C   LIG    1       19.567  48.290  18.874  0.00  0.00    +0.046 A 
ATOM      6  C   LIG    1       20.414  48.013  17.784  0.00  0.00    +0.007 A 
ENDROOT
BRANCH   1   7
ATOM      7  C   LIG    1       21.544  48.725  15.604  0.00  0.00    +0.056 C 
BRANCH   7  10
ATOM      8  S   LIG    1       21.309  46.314  12.773  0.00  0.00    -0.039 S 
ATOM      9  C   LIG    1       21.565  47.916  13.144  0.00  0.00    +0.069 C 
ATOM     10  C   LIG    1       20.848  48.712  14.228  0.00  0.00    +0.112 C 
ATOM     11  S   LIG    1       20.977  50.432  13.568  0.00  0.00    -0.057 S 
ATOM     12  C   LIG    1       22.259  50.023  12.449  0.00  0.00    +0.277 C 
ATOM     13  O   LIG    1       22.826  50.819  11.738  0.00  0.00    -0.263 OA
ATOM     14  N   LIG    1       22.441  48.674  12.427  0.00  0.00    -0.273 N 
ATOM     15  H   LIG    1       22.989  48.286  11.673  0.00  0.00    +0.156 HD
ENDBRANCH   7  10
ENDBRANCH   1   7
BRANCH   4  16
ATOM     16  O   LIG    1       18.146  49.749  20.097  0.00  0.00    -0.490 OA
BRANCH  16  17
ATOM     17  C   LIG    1       17.031  50.599  19.801  0.00  0.00    +0.248 C 
BRANCH  17  18
ATOM     18  C   LIG    1       15.750  49.935  19.314  0.00  0.00    +0.147 C 
BRANCH  18  19
ATOM     19  N   LIG    1       15.820  48.446  19.173  0.00  0.00    -0.315 N 
ATOM     20  C   LIG    1       14.656  47.773  19.767  0.00  0.00    +0.131 C 
BRANCH  19  21
ATOM     21  C   LIG    1       16.242  47.799  17.995  0.00  0.00    +0.121 A 
ATOM     22  C   LIG    1       16.251  46.407  17.870  0.00  0.00    +0.043 A 
ATOM     23  C   LIG    1       16.653  45.778  16.688  0.00  0.00    +0.005 A 
ATOM     24  C   LIG    1       16.963  46.552  15.590  0.00  0.00    +0.020 A 
ATOM     25  C   LIG    1       16.867  47.919  15.740  0.00  0.00    +0.113 A 
ATOM     26  N   LIG    1       16.535  48.539  16.901  0.00  0.00    -0.240 NA
ENDBRANCH  19  21
ENDBRANCH  18  19
ENDBRANCH  17  18
ENDBRANCH  16  17
ENDBRANCH   4  16
TORSDOF 7
ENDMDL
MODEL 5
REMARK VINA RESULT:      -5.0      1.524      1.994
REMARK  Name = 
REMARK                            x       y       z     vdW  Elec       q    Type
REMARK                         _______ _______ _______ _____ _____    ______ ____
ROOT
ATOM      1  C   LIG    1       20.195  48.831  15.078  0.00  0.00    -0.046 A 
ATOM      2  C   LIG    1       20.447  47.994  16.160  0.00  0.00    +0.007 A 
ATOM      3  C   LIG    1       19.849  48.232  17.392  0.00  0.00    +0.046 A 
ATOM      4  C   LIG    1       19.025  49.343  17.605  0.00  0.00    +0.121 A 
ATOM      5  C   LIG    1       18.818  50.222  16.543  0.00  0.00    +0.046 A 
ATOM      6  C   LIG    1       19.390  49.963  15.283  0.00  0.00    +0.007 A 
ENDROOT
BRANCH   1   7
ATOM      7  C   LIG    1       20.797  48.492  13.735  0.00  0.00    +0.056 C 
BRANCH   7  10
ATOM      8  S   LIG    1       23.459  49.587  16.101  0.00  0.00    -0.039 S 
ATOM      9  C   LIG    1       22.887  49.785  14.550  0.00  0.00    +0.069 C 
ATOM     10  C   LIG    1       22.324  48.689  13.654  0.00  0.00    +0.112 C 
ATOM     11  S   LIG    1       22.668  49.374  11.974  0.00  0.00    -0.057 S 
ATOM     12  C   LIG    1       22.916  51.001  12.570  0.00  0.00    +0.277 C 
ATOM     13  O   LIG    1       23.130  51.961  11.867  0.00  0.00    -0.263 OA
ATOM     14  N   LIG    1       22.938  50.998  13.930  0.00  0.00    -0.273 N 
ATOM     15  H   LIG    1       23.288  51.821  14.398  0.00  0.00    +0.156 HD
ENDBRANCH   7  10
ENDBRANCH   1   7
BRANCH   4  16
ATOM     16  O   LIG    1       18.394  49.634  18.806  0.00  0.00    -0.490 OA
BRANCH  16  17
ATOM     17  C   LIG    1       16.975  49.748  18.642  0.00  0.00    +0.248 C 
BRANCH  17  18
ATOM     18  C   LIG    1       16.185  48.464  18.438  0.00  0.00    +0.147 C 
BRANCH  18  19
ATOM     19  N   LIG    1       16.888  47.402  17.650  0.00  0.00    -0.315 N 
ATOM     20  C   LIG    1       17.189  46.213  18.459  0.00  0.00    +0.131 C 
BRANCH  19  21
ATOM     21  C   LIG    1       16.531  47.052  16.334  0.00  0.00    +0.121 A 
ATOM     22  C   LIG    1       16.120  45.761  15.989  0.00  0.00    +0.043 A 
ATOM     23  C   LIG    1       15.750  45.431  14.683  0.00  0.00    +0.005 A 
ATOM     24  C   LIG    1       15.702  46.426  13.729  0.00  0.00    +0.020 A 
ATOM     25  C   LIG    1       16.044  47.698  14.134  0.00  0.00    +0.113 A 
ATOM     26  N   LIG    1       16.462  48.015  15.386  0.00  0.00    -0.240 NA
ENDBRANCH  19  21
ENDBRANCH  18  19
ENDBRANCH  17  18
ENDBRANCH  16  17
ENDBRANCH   4  16
TORSDOF 7
ENDMDL
MODEL 6
REMARK VINA RESULT:      -4.8      2.371      4.084
REMARK  Name = 
REMARK                            x       y       z     vdW  Elec       q    Type
REMARK                         _______ _______ _______ _____ _____    ______ ____
ROOT
ATOM      1  C   LIG    1       19.206  47.827  14.350  0.00  0.00    -0.046 A 
ATOM      2  C   LIG    1       18.070  48.592  14.594  0.00  0.00    +0.007 A 
ATOM      3  C   LIG    1       17.007  48.066  15.318  0.00  0.00    +0.046 A 
ATOM      4  C   LIG    1       17.013  46.743  15.776  0.00  0.00    +0.121 A 
ATOM      5  C   LIG    1       18.121  45.950  15.480  0.00  0.00    +0.046 A 
ATOM      6  C   LIG    1       19.217  46.492  14.781  0.00  0.00    +0.007 A 
ENDROOT
BRANCH   1   7
ATOM      7  C   LIG    1       20.373  48.461  13.632  0.00  0.00    +0.056 C 
BRANCH   7  10
ATOM      8  S   LIG    1       22.668  51.182  12.529  0.00  0.00    -0.039 S 
ATOM      9  C   LIG    1       22.213  50.272  13.846  0.00  0.00    +0.069 C 
ATOM     10  C   LIG    1       20.794  49.836  14.189  0.00  0.00    +0.112 C 
ATOM     11  S   LIG    1       20.902  49.640  16.022  0.00  0.00    -0.057 S 
ATOM     12  C   LIG    1       22.651  49.580  16.021  0.00  0.00    +0.277 C 
ATOM     13  O   LIG    1       23.329  49.391  17.004  0.00  0.00    -0.263 OA
ATOM     14  N   LIG    1       23.124  49.881  14.781  0.00  0.00    -0.273 N 
ATOM     15  H   LIG    1       24.106  50.098  14.691  0.00  0.00    +0.156 HD
ENDBRANCH   7  10
ENDBRANCH   1   7
BRANCH   4  16
ATOM     16  O   LIG    1       15.989  46.161  16.508  0.00  0.00    -0.490 OA
BRANCH  16  17
ATOM     17  C   LIG    1       16.159  46.375  17.915  0.00  0.00    +0.248 C 
BRANCH  17  18
ATOM     18  C   LIG    1       17.543  46.134  18.501  0.00  0.00    +0.147 C 
BRANCH  18  19
ATOM     19  N   LIG    1       18.226  47.352  19.040  0.00  0.00    -0.315 N 
ATOM     20  C   LIG    1       19.642  47.418  18.648  0.00  0.00    +0.131 C 
BRANCH  19  21
ATOM     21  C   LIG    1       17.636  48.630  19.050  0.00  0.00    +0.121 A 
ATOM     22  C   LIG    1       18.017  49.637  18.159  0.00  0.00    +0.043 A 
ATOM     23  C   LIG    1       17.408  50.895  18.166  0.00  0.00    +0.005 A 
ATOM     24  C   LIG    1       16.344  51.119  19.015  0.00  0.00    +0.020 A 
ATOM     25  C   LIG    1       15.956  50.071  19.822  0.00  0.00    +0.113 A 
ATOM     26  N   LIG    1       16.580  48.866  19.863  0.00  0.00    -0.240 NA
ENDBRANCH  19  21
ENDBRANCH  18  19
ENDBRANCH  17  18
ENDBRANCH  16  17
ENDBRANCH   4  16
TORSDOF 7
ENDMDL
MODEL 7
REMARK VINA RESULT:      -4.5      3.213      6.847
REMARK  Name = 
REMARK                            x       y       z     vdW  Elec       q    Type
REMARK                         _______ _______ _______ _____ _____    ______ ____
ROOT
ATOM      1  C   LIG    1       16.600  47.033  16.846  0.00  0.00    -0.046 A 
ATOM      2  C   LIG    1       17.524  45.999  16.741  0.00  0.00    +0.007 A 
ATOM      3  C   LIG    1       18.418  45.956  15.678  0.00  0.00    +0.046 A 
ATOM      4  C   LIG    1       18.387  46.909  14.653  0.00  0.00    +0.121 A 
ATOM      5  C   LIG    1       17.421  47.912  14.718  0.00  0.00    +0.046 A 
ATOM      6  C   LIG    1       16.539  47.981  15.813  0.00  0.00    +0.007 A 
ENDROOT
BRANCH   1   7
ATOM      7  C   LIG    1       15.701  47.090  18.058  0.00  0.00    +0.056 C 
BRANCH   7  10
ATOM      8  S   LIG    1       14.572  48.004  21.490  0.00  0.00    -0.039 S 
ATOM      9  C   LIG    1       15.516  48.511  20.215  0.00  0.00    +0.069 C 
ATOM     10  C   LIG    1       16.385  47.623  19.333  0.00  0.00    +0.112 C 
ATOM     11  S   LIG    1       17.675  48.816  18.767  0.00  0.00    -0.057 S 
ATOM     12  C   LIG    1       16.724  50.219  19.204  0.00  0.00    +0.277 C 
ATOM     13  O   LIG    1       17.057  51.362  18.997  0.00  0.00    -0.263 OA
ATOM     14  N   LIG    1       15.619  49.831  19.897  0.00  0.00    -0.273 N 
ATOM     15  H   LIG    1       15.102  50.541  20.395  0.00  0.00    +0.156 HD
ENDBRANCH   7  10
ENDBRANCH   1   7
BRANCH   4  16
ATOM     16  O   LIG    1       19.254  46.927  13.571  0.00  0.00    -0.490 OA
BRANCH  16  17
ATOM     17  C   LIG    1       20.569  46.497  13.942  0.00  0.00    +0.248 C 
BRANCH  17  18
ATOM     18  C   LIG    1       21.749  47.189  13.274  0.00  0.00    +0.147 C 
BRANCH  18  19
ATOM     19  N   LIG    1       22.012  48.589  13.738  0.00  0.00    -0.315 N 
ATOM     20  C   LIG    1       22.039  49.550  12.626  0.00  0.00    +0.131 C 
BRANCH  19  21
ATOM     21  C   LIG    1       21.418  49.148  14.886  0.00  0.00    +0.121 A 
ATOM     22  C   LIG    1       20.330  50.021  14.815  0.00  0.00    +0.043 A 
ATOM     23  C   LIG    1       19.737  50.553  15.964  0.00  0.00    +0.005 A 
ATOM     24  C   LIG    1       20.181  50.135  17.201  0.00  0.00    +0.020 A 
ATOM     25  C   LIG    1       21.208  49.215  17.220  0.00  0.00    +0.113 A 
ATOM     26  N   LIG    1       21.828  48.739  16.110  0.00  0.00    -0.240 NA
ENDBRANCH  19  21
ENDBRANCH  18  19
ENDBRANCH  17  18
ENDBRANCH  16  17
ENDBRANCH   4  16
TORSDOF 7
ENDMDL
