REMARK  Name = 
REMARK                            x       y       z     vdW  Elec       q    Type
REMARK                         _______ _______ _______ _____ _____    ______ ____
ROOT
ATOM      1  C   LIG    1        1.765  -2.745  -0.609  0.00  0.00    -0.046 A 
ATOM      2  C   LIG    1        0.598  -1.989  -0.637  0.00  0.00    +0.007 A 
ATOM      3  C   LIG    1       -0.605  -2.531  -0.200  0.00  0.00    +0.046 A 
ATOM      4  C   LIG    1       -0.699  -3.861   0.227  0.00  0.00    +0.121 A 
ATOM      5  C   LIG    1        0.454  -4.644   0.198  0.00  0.00    +0.046 A 
ATOM      6  C   LIG    1        1.682  -4.087  -0.207  0.00  0.00    +0.007 A 
ENDROOT
BRANCH   1   7
ATOM      7  C   LIG    1        3.067  -2.095  -1.014  0.00  0.00    +0.056 C 
BRANCH   7  10
ATOM      8  S   LIG    1        1.949   0.470   1.447  0.00  0.00    -0.039 S 
ATOM      9  C   LIG    1        3.149   0.103   0.353  0.00  0.00    +0.069 C 
ATOM     10  C   LIG    1        3.745  -1.277   0.104  0.00  0.00    +0.112 C 
ATOM     11  S   LIG    1        5.428  -0.844  -0.521  0.00  0.00    -0.057 S 
ATOM     12  C   LIG    1        4.987   0.811  -0.881  0.00  0.00    +0.277 C 
ATOM     13  O   LIG    1        5.722   1.616  -1.403  0.00  0.00    -0.263 OA
ATOM     14  N   LIG    1        3.745   1.076  -0.392  0.00  0.00    -0.273 N 
ATOM     15  H   LIG    1        3.458   2.042  -0.334  0.00  0.00    +0.156 HD
ENDBRANCH   7  10
ENDBRANCH   1   7
BRANCH   4  16
ATOM     16  O   LIG    1       -1.865  -4.459   0.681  0.00  0.00    -0.490 OA
BRANCH  16  17
ATOM     17  C   LIG    1       -2.969  -3.546   0.660  0.00  0.00    +0.248 C 
BRANCH  17  18
ATOM     18  C   LIG    1       -4.317  -4.061   1.144  0.00  0.00    +0.147 C 
BRANCH  18  19
ATOM     19  N   LIG    1       -5.468  -3.127   0.933  0.00  0.00    -0.315 N 
ATOM     20  C   LIG    1       -6.729  -3.665   1.463  0.00  0.00    +0.131 C 
BRANCH  19  21
ATOM     21  C   LIG    1       -5.381  -1.735   1.128  0.00  0.00    +0.121 A 
ATOM     22  C   LIG    1       -4.425  -0.948   0.480  0.00  0.00    +0.043 A 
ATOM     23  C   LIG    1       -4.362   0.436   0.667  0.00  0.00    +0.005 A 
ATOM     24  C   LIG    1       -5.324   1.051   1.440  0.00  0.00    +0.020 A 
ATOM     25  C   LIG    1       -6.291   0.242   1.998  0.00  0.00    +0.113 A 
ATOM     26  N   LIG    1       -6.324  -1.109   1.870  0.00  0.00    -0.240 NA
ENDBRANCH  19  21
ENDBRANCH  18  19
ENDBRANCH  17  18
ENDBRANCH  16  17
ENDBRANCH   4  16
TORSDOF 7
