MODEL 1
REMARK VINA RESULT:      -3.4      0.000      0.000
REMARK  Name = 
REMARK                            x       y       z     vdW  Elec       q    Type
REMARK                         _______ _______ _______ _____ _____    ______ ____
ROOT
ATOM      1  O   LIG    1       -3.547  -4.151  16.749  0.00  0.00    -0.275 OA
ATOM      2  C   LIG    1       -4.352  -4.349  15.848  0.00  0.00    +0.228 C 
ATOM      3  C   LIG    1       -5.833  -4.091  15.952  0.00  0.00    +0.172 C 
ATOM      4  S   LIG    1       -6.522  -4.554  14.337  0.00  0.00    -0.093 S 
ATOM      5  C   LIG    1       -4.972  -5.017  13.692  0.00  0.00    +0.113 C 
ATOM      6  S   LIG    1       -4.679  -5.598  12.170  0.00  0.00    -0.028 S 
ATOM      7  N   LIG    1       -4.001  -4.834  14.622  0.00  0.00    -0.274 N 
ATOM      8  H   LIG    1       -3.035  -5.050  14.422  0.00  0.00    +0.156 HD
ENDROOT
TORSDOF 0
ENDMDL
MODEL 2
REMARK VINA RESULT:      -3.4      1.305      2.193
REMARK  Name = 
REMARK                            x       y       z     vdW  Elec       q    Type
REMARK                         _______ _______ _______ _____ _____    ______ ____
ROOT
ATOM      1  O   LIG    1       -3.626  -4.346  16.442  0.00  0.00    -0.275 OA
ATOM      2  C   LIG    1       -4.294  -4.496  15.428  0.00  0.00    +0.228 C 
ATOM      3  C   LIG    1       -3.724  -4.707  14.049  0.00  0.00    +0.172 C 
ATOM      4  S   LIG    1       -5.157  -4.870  12.947  0.00  0.00    -0.093 S 
ATOM      5  C   LIG    1       -6.306  -4.667  14.241  0.00  0.00    +0.113 C 
ATOM      6  S   LIG    1       -7.955  -4.681  14.098  0.00  0.00    -0.028 S 
ATOM      7  N   LIG    1       -5.659  -4.491  15.422  0.00  0.00    -0.274 N 
ATOM      8  H   LIG    1       -6.167  -4.358  16.284  0.00  0.00    +0.156 HD
ENDROOT
TORSDOF 0
ENDMDL
MODEL 3
REMARK VINA RESULT:      -3.4      2.251      2.402
REMARK  Name = 
REMARK                            x       y       z     vdW  Elec       q    Type
REMARK                         _______ _______ _______ _____ _____    ______ ____
ROOT
ATOM      1  O   LIG    1       -3.530  -4.689  14.220  0.00  0.00    -0.275 OA
ATOM      2  C   LIG    1       -4.656  -4.562  14.680  0.00  0.00    +0.228 C 
ATOM      3  C   LIG    1       -4.984  -4.545  16.151  0.00  0.00    +0.172 C 
ATOM      4  S   LIG    1       -6.784  -4.329  16.248  0.00  0.00    -0.093 S 
ATOM      5  C   LIG    1       -6.976  -4.284  14.517  0.00  0.00    +0.113 C 
ATOM      6  S   LIG    1       -8.400  -4.102  13.695  0.00  0.00    -0.028 S 
ATOM      7  N   LIG    1       -5.771  -4.418  13.906  0.00  0.00    -0.274 N 
ATOM      8  H   LIG    1       -5.690  -4.413  12.900  0.00  0.00    +0.156 HD
ENDROOT
TORSDOF 0
ENDMDL
MODEL 4
REMARK VINA RESULT:      -3.3      6.071      6.716
REMARK  Name = 
REMARK                            x       y       z     vdW  Elec       q    Type
REMARK                         _______ _______ _______ _____ _____    ______ ____
ROOT
ATOM      1  O   LIG    1       -8.012  -2.317   8.988  0.00  0.00    -0.275 OA
ATOM      2  C   LIG    1       -7.929  -3.537   8.954  0.00  0.00    +0.228 C 
ATOM      3  C   LIG    1       -8.828  -4.435   8.145  0.00  0.00    +0.172 C 
ATOM      4  S   LIG    1       -8.251  -6.125   8.471  0.00  0.00    -0.093 S 
ATOM      5  C   LIG    1       -6.989  -5.597   9.549  0.00  0.00    +0.113 C 
ATOM      6  S   LIG    1       -5.913  -6.570  10.348  0.00  0.00    -0.028 S 
ATOM      7  N   LIG    1       -6.997  -4.244   9.657  0.00  0.00    -0.274 N 
ATOM      8  H   LIG    1       -6.330  -3.760  10.242  0.00  0.00    +0.156 HD
ENDROOT
TORSDOF 0
ENDMDL
MODEL 5
REMARK VINA RESULT:      -3.3      9.081      9.139
REMARK  Name = 
REMARK                            x       y       z     vdW  Elec       q    Type
REMARK                         _______ _______ _______ _____ _____    ______ ____
ROOT
ATOM      1  O   LIG    1       -0.835   2.060  19.836  0.00  0.00    -0.275 OA
ATOM      2  C   LIG    1       -0.679   0.976  20.383  0.00  0.00    +0.228 C 
ATOM      3  C   LIG    1       -1.682   0.329  21.302  0.00  0.00    +0.172 C 
ATOM      4  S   LIG    1       -0.935  -1.246  21.809  0.00  0.00    -0.093 S 
ATOM      5  C   LIG    1        0.511  -0.979  20.875  0.00  0.00    +0.113 C 
ATOM      6  S   LIG    1        1.809  -2.000  20.767  0.00  0.00    -0.028 S 
ATOM      7  N   LIG    1        0.439   0.210  20.224  0.00  0.00    -0.274 N 
ATOM      8  H   LIG    1        1.191   0.530  19.630  0.00  0.00    +0.156 HD
ENDROOT
TORSDOF 0
ENDMDL
MODEL 6
REMARK VINA RESULT:      -3.3      9.302      9.567
REMARK  Name = 
REMARK                            x       y       z     vdW  Elec       q    Type
REMARK                         _______ _______ _______ _____ _____    ______ ____
ROOT
ATOM      1  O   LIG    1       -0.829  -0.627  20.239  0.00  0.00    -0.275 OA
ATOM      2  C   LIG    1       -0.266  -1.292  21.097  0.00  0.00    +0.228 C 
ATOM      3  C   LIG    1       -0.862  -1.643  22.436  0.00  0.00    +0.172 C 
ATOM      4  S   LIG    1        0.399  -2.635  23.287  0.00  0.00    -0.093 S 
ATOM      5  C   LIG    1        1.523  -2.533  21.960  0.00  0.00    +0.113 C 
ATOM      6  S   LIG    1        3.033  -3.209  21.901  0.00  0.00    -0.028 S 
ATOM      7  N   LIG    1        0.989  -1.806  20.945  0.00  0.00    -0.274 N 
ATOM      8  H   LIG    1        1.501  -1.643  20.090  0.00  0.00    +0.156 HD
ENDROOT
TORSDOF 0
ENDMDL
MODEL 7
REMARK VINA RESULT:      -3.2      2.103      2.249
REMARK  Name = 
REMARK                            x       y       z     vdW  Elec       q    Type
REMARK                         _______ _______ _______ _____ _____    ______ ____
ROOT
ATOM      1  O   LIG    1       -7.197  -4.228  16.919  0.00  0.00    -0.275 OA
ATOM      2  C   LIG    1       -6.409  -4.384  15.995  0.00  0.00    +0.228 C 
ATOM      3  C   LIG    1       -4.912  -4.458  16.150  0.00  0.00    +0.172 C 
ATOM      4  S   LIG    1       -4.259  -4.697  14.473  0.00  0.00    -0.093 S 
ATOM      5  C   LIG    1       -5.841  -4.681  13.743  0.00  0.00    +0.113 C 
ATOM      6  S   LIG    1       -6.177  -4.848  12.131  0.00  0.00    -0.028 S 
ATOM      7  N   LIG    1       -6.796  -4.511  14.693  0.00  0.00    -0.274 N 
ATOM      8  H   LIG    1       -7.776  -4.478  14.451  0.00  0.00    +0.156 HD
ENDROOT
TORSDOF 0
ENDMDL
MODEL 8
REMARK VINA RESULT:      -3.2      4.010      4.690
REMARK  Name = 
REMARK                            x       y       z     vdW  Elec       q    Type
REMARK                         _______ _______ _______ _____ _____    ______ ____
ROOT
ATOM      1  O   LIG    1       -9.832  -3.898  12.541  0.00  0.00    -0.275 OA
ATOM      2  C   LIG    1       -8.719  -3.910  13.048  0.00  0.00    +0.228 C 
ATOM      3  C   LIG    1       -7.433  -3.675  12.298  0.00  0.00    +0.172 C 
ATOM      4  S   LIG    1       -6.114  -3.803  13.538  0.00  0.00    -0.093 S 
ATOM      5  C   LIG    1       -7.226  -4.131  14.838  0.00  0.00    +0.113 C 
ATOM      6  S   LIG    1       -6.828  -4.396  16.423  0.00  0.00    -0.028 S 
ATOM      7  N   LIG    1       -8.502  -4.141  14.376  0.00  0.00    -0.274 N 
ATOM      8  H   LIG    1       -9.283  -4.314  14.993  0.00  0.00    +0.156 HD
ENDROOT
TORSDOF 0
ENDMDL
MODEL 9
REMARK VINA RESULT:      -3.1      6.269      6.474
REMARK  Name = 
REMARK                            x       y       z     vdW  Elec       q    Type
REMARK                         _______ _______ _______ _____ _____    ______ ____
ROOT
ATOM      1  O   LIG    1      -11.084  -0.912  13.398  0.00  0.00    -0.275 OA
ATOM      2  C   LIG    1      -10.406  -1.725  12.785  0.00  0.00    +0.228 C 
ATOM      3  C   LIG    1       -9.067  -1.426  12.162  0.00  0.00    +0.172 C 
ATOM      4  S   LIG    1       -8.526  -2.982  11.397  0.00  0.00    -0.093 S 
ATOM      5  C   LIG    1       -9.958  -3.843  11.893  0.00  0.00    +0.113 C 
ATOM      6  S   LIG    1      -10.299  -5.432  11.584  0.00  0.00    -0.028 S 
ATOM      7  N   LIG    1      -10.785  -3.021  12.587  0.00  0.00    -0.274 N 
ATOM      8  H   LIG    1      -11.666  -3.351  12.955  0.00  0.00    +0.156 HD
ENDROOT
TORSDOF 0
ENDMDL
