MODEL 1
REMARK VINA RESULT:      -4.2      0.000      0.000
REMARK  Name = 
REMARK                            x       y       z     vdW  Elec       q    Type
REMARK                         _______ _______ _______ _____ _____    ______ ____
ROOT
ATOM      1  O   LIG    1       53.870  47.548  29.078  0.00  0.00    -0.275 OA
ATOM      2  C   LIG    1       54.797  46.794  29.340  0.00  0.00    +0.228 C 
ATOM      3  C   LIG    1       54.653  45.479  30.062  0.00  0.00    +0.172 C 
ATOM      4  S   LIG    1       56.332  44.796  30.170  0.00  0.00    -0.093 S 
ATOM      5  C   LIG    1       57.048  46.152  29.345  0.00  0.00    +0.113 C 
ATOM      6  S   LIG    1       58.655  46.350  28.999  0.00  0.00    -0.028 S 
ATOM      7  N   LIG    1       56.094  47.056  29.007  0.00  0.00    -0.274 N 
ATOM      8  H   LIG    1       56.328  47.909  28.519  0.00  0.00    +0.156 HD
ENDROOT
TORSDOF 0
ENDMDL
MODEL 2
REMARK VINA RESULT:      -3.8      7.962      8.551
REMARK  Name = 
REMARK                            x       y       z     vdW  Elec       q    Type
REMARK                         _______ _______ _______ _____ _____    ______ ____
ROOT
ATOM      1  O   LIG    1       64.932  48.099  26.789  0.00  0.00    -0.275 OA
ATOM      2  C   LIG    1       64.324  47.332  27.523  0.00  0.00    +0.228 C 
ATOM      3  C   LIG    1       62.837  47.373  27.763  0.00  0.00    +0.172 C 
ATOM      4  S   LIG    1       62.491  46.017  28.920  0.00  0.00    -0.093 S 
ATOM      5  C   LIG    1       64.161  45.530  29.011  0.00  0.00    +0.113 C 
ATOM      6  S   LIG    1       64.770  44.282  29.911  0.00  0.00    -0.028 S 
ATOM      7  N   LIG    1       64.928  46.329  28.224  0.00  0.00    -0.274 N 
ATOM      8  H   LIG    1       65.926  46.191  28.152  0.00  0.00    +0.156 HD
ENDROOT
TORSDOF 0
ENDMDL
MODEL 3
REMARK VINA RESULT:      -3.7      8.882      9.450
REMARK  Name = 
REMARK                            x       y       z     vdW  Elec       q    Type
REMARK                         _______ _______ _______ _____ _____    ______ ____
ROOT
ATOM      1  O   LIG    1       48.758  52.509  31.858  0.00  0.00    -0.275 OA
ATOM      2  C   LIG    1       48.390  52.068  30.777  0.00  0.00    +0.228 C 
ATOM      3  C   LIG    1       47.091  52.428  30.104  0.00  0.00    +0.172 C 
ATOM      4  S   LIG    1       47.074  51.493  28.547  0.00  0.00    -0.093 S 
ATOM      5  C   LIG    1       48.622  50.756  28.852  0.00  0.00    +0.113 C 
ATOM      6  S   LIG    1       49.408  49.685  27.865  0.00  0.00    -0.028 S 
ATOM      7  N   LIG    1       49.122  51.183  30.040  0.00  0.00    -0.274 N 
ATOM      8  H   LIG    1       50.016  50.860  30.380  0.00  0.00    +0.156 HD
ENDROOT
TORSDOF 0
ENDMDL
MODEL 4
REMARK VINA RESULT:      -3.6      2.727      3.188
REMARK  Name = 
REMARK                            x       y       z     vdW  Elec       q    Type
REMARK                         _______ _______ _______ _____ _____    ______ ____
ROOT
ATOM      1  O   LIG    1       59.033  45.548  29.453  0.00  0.00    -0.275 OA
ATOM      2  C   LIG    1       57.822  45.536  29.625  0.00  0.00    +0.228 C 
ATOM      3  C   LIG    1       57.088  44.533  30.477  0.00  0.00    +0.172 C 
ATOM      4  S   LIG    1       55.335  44.995  30.373  0.00  0.00    -0.093 S 
ATOM      5  C   LIG    1       55.646  46.343  29.315  0.00  0.00    +0.113 C 
ATOM      6  S   LIG    1       54.516  47.379  28.691  0.00  0.00    -0.028 S 
ATOM      7  N   LIG    1       56.975  46.444  29.059  0.00  0.00    -0.274 N 
ATOM      8  H   LIG    1       57.341  47.172  28.462  0.00  0.00    +0.156 HD
ENDROOT
TORSDOF 0
ENDMDL
MODEL 5
REMARK VINA RESULT:      -3.5      8.451      8.794
REMARK  Name = 
REMARK                            x       y       z     vdW  Elec       q    Type
REMARK                         _______ _______ _______ _____ _____    ______ ____
ROOT
ATOM      1  O   LIG    1       66.114  44.548  30.079  0.00  0.00    -0.275 OA
ATOM      2  C   LIG    1       65.068  45.175  29.985  0.00  0.00    +0.228 C 
ATOM      3  C   LIG    1       63.950  45.132  30.995  0.00  0.00    +0.172 C 
ATOM      4  S   LIG    1       62.668  46.245  30.351  0.00  0.00    -0.093 S 
ATOM      5  C   LIG    1       63.590  46.654  28.931  0.00  0.00    +0.113 C 
ATOM      6  S   LIG    1       63.121  47.684  27.723  0.00  0.00    -0.028 S 
ATOM      7  N   LIG    1       64.781  46.003  28.938  0.00  0.00    -0.274 N 
ATOM      8  H   LIG    1       65.449  46.122  28.190  0.00  0.00    +0.156 HD
ENDROOT
TORSDOF 0
ENDMDL
MODEL 6
REMARK VINA RESULT:      -3.5      7.232      8.047
REMARK  Name = 
REMARK                            x       y       z     vdW  Elec       q    Type
REMARK                         _______ _______ _______ _____ _____    ______ ____
ROOT
ATOM      1  O   LIG    1       65.230  47.168  26.820  0.00  0.00    -0.275 OA
ATOM      2  C   LIG    1       64.315  46.892  27.584  0.00  0.00    +0.228 C 
ATOM      3  C   LIG    1       64.394  45.857  28.676  0.00  0.00    +0.172 C 
ATOM      4  S   LIG    1       62.767  45.875  29.483  0.00  0.00    -0.093 S 
ATOM      5  C   LIG    1       62.145  47.118  28.434  0.00  0.00    +0.113 C 
ATOM      6  S   LIG    1       60.625  47.772  28.485  0.00  0.00    -0.028 S 
ATOM      7  N   LIG    1       63.093  47.497  27.539  0.00  0.00    -0.274 N 
ATOM      8  H   LIG    1       62.908  48.212  26.850  0.00  0.00    +0.156 HD
ENDROOT
TORSDOF 0
ENDMDL
MODEL 7
REMARK VINA RESULT:      -3.5      7.909      8.649
REMARK  Name = 
REMARK                            x       y       z     vdW  Elec       q    Type
REMARK                         _______ _______ _______ _____ _____    ______ ____
ROOT
ATOM      1  O   LIG    1       64.531  46.452  27.421  0.00  0.00    -0.275 OA
ATOM      2  C   LIG    1       64.215  46.354  28.599  0.00  0.00    +0.228 C 
ATOM      3  C   LIG    1       62.862  46.713  29.156  0.00  0.00    +0.172 C 
ATOM      4  S   LIG    1       62.959  46.367  30.936  0.00  0.00    -0.093 S 
ATOM      5  C   LIG    1       64.613  45.827  30.846  0.00  0.00    +0.113 C 
ATOM      6  S   LIG    1       65.539  45.295  32.110  0.00  0.00    -0.028 S 
ATOM      7  N   LIG    1       65.063  45.899  29.567  0.00  0.00    -0.274 N 
ATOM      8  H   LIG    1       66.004  45.624  29.326  0.00  0.00    +0.156 HD
ENDROOT
TORSDOF 0
ENDMDL
MODEL 8
REMARK VINA RESULT:      -3.4     15.674     16.470
REMARK  Name = 
REMARK                            x       y       z     vdW  Elec       q    Type
REMARK                         _______ _______ _______ _____ _____    ______ ____
ROOT
ATOM      1  O   LIG    1       63.956  58.251  21.601  0.00  0.00    -0.275 OA
ATOM      2  C   LIG    1       65.004  57.621  21.563  0.00  0.00    +0.228 C 
ATOM      3  C   LIG    1       66.237  58.054  20.813  0.00  0.00    +0.172 C 
ATOM      4  S   LIG    1       67.470  56.754  21.108  0.00  0.00    -0.093 S 
ATOM      5  C   LIG    1       66.390  55.812  22.099  0.00  0.00    +0.113 C 
ATOM      6  S   LIG    1       66.740  54.367  22.827  0.00  0.00    -0.028 S 
ATOM      7  N   LIG    1       65.186  56.430  22.204  0.00  0.00    -0.274 N 
ATOM      8  H   LIG    1       64.435  56.027  22.745  0.00  0.00    +0.156 HD
ENDROOT
TORSDOF 0
ENDMDL
MODEL 9
REMARK VINA RESULT:      -3.4      7.300      7.747
REMARK  Name = 
REMARK                            x       y       z     vdW  Elec       q    Type
REMARK                         _______ _______ _______ _____ _____    ______ ____
ROOT
ATOM      1  O   LIG    1       61.508  47.898  30.110  0.00  0.00    -0.275 OA
ATOM      2  C   LIG    1       62.454  47.367  29.544  0.00  0.00    +0.228 C 
ATOM      3  C   LIG    1       62.898  47.683  28.139  0.00  0.00    +0.172 C 
ATOM      4  S   LIG    1       64.331  46.613  27.828  0.00  0.00    -0.093 S 
ATOM      5  C   LIG    1       64.261  45.884  29.408  0.00  0.00    +0.113 C 
ATOM      6  S   LIG    1       65.280  44.718  29.995  0.00  0.00    -0.028 S 
ATOM      7  N   LIG    1       63.234  46.409  30.124  0.00  0.00    -0.274 N 
ATOM      8  H   LIG    1       63.043  46.105  31.068  0.00  0.00    +0.156 HD
ENDROOT
TORSDOF 0
ENDMDL
