MODEL 1
REMARK VINA RESULT:      -3.8      0.000      0.000
REMARK  Name = 
REMARK                            x       y       z     vdW  Elec       q    Type
REMARK                         _______ _______ _______ _____ _____    ______ ____
ROOT
ATOM      1  O   LIG    1       44.677  -5.725  15.644  0.00  0.00    -0.275 OA
ATOM      2  C   LIG    1       44.110  -4.731  16.077  0.00  0.00    +0.228 C 
ATOM      3  C   LIG    1       44.665  -3.828  17.148  0.00  0.00    +0.172 C 
ATOM      4  S   LIG    1       43.418  -2.529  17.386  0.00  0.00    -0.093 S 
ATOM      5  C   LIG    1       42.348  -3.193  16.182  0.00  0.00    +0.113 C 
ATOM      6  S   LIG    1       40.877  -2.580  15.736  0.00  0.00    -0.028 S 
ATOM      7  N   LIG    1       42.889  -4.311  15.636  0.00  0.00    -0.274 N 
ATOM      8  H   LIG    1       42.406  -4.830  14.916  0.00  0.00    +0.156 HD
ENDROOT
TORSDOF 0
ENDMDL
MODEL 2
REMARK VINA RESULT:      -3.7      3.897      4.360
REMARK  Name = 
REMARK                            x       y       z     vdW  Elec       q    Type
REMARK                         _______ _______ _______ _____ _____    ______ ____
ROOT
ATOM      1  O   LIG    1       48.333  -2.704  15.111  0.00  0.00    -0.275 OA
ATOM      2  C   LIG    1       47.804  -3.004  16.173  0.00  0.00    +0.228 C 
ATOM      3  C   LIG    1       48.235  -4.151  17.050  0.00  0.00    +0.172 C 
ATOM      4  S   LIG    1       47.113  -4.121  18.478  0.00  0.00    -0.093 S 
ATOM      5  C   LIG    1       46.231  -2.740  17.887  0.00  0.00    +0.113 C 
ATOM      6  S   LIG    1       44.949  -2.006  18.632  0.00  0.00    -0.028 S 
ATOM      7  N   LIG    1       46.744  -2.326  16.700  0.00  0.00    -0.274 N 
ATOM      8  H   LIG    1       46.357  -1.533  16.209  0.00  0.00    +0.156 HD
ENDROOT
TORSDOF 0
ENDMDL
MODEL 3
REMARK VINA RESULT:      -3.7      2.609      2.817
REMARK  Name = 
REMARK                            x       y       z     vdW  Elec       q    Type
REMARK                         _______ _______ _______ _____ _____    ______ ____
ROOT
ATOM      1  O   LIG    1       46.307  -3.408  18.930  0.00  0.00    -0.275 OA
ATOM      2  C   LIG    1       45.279  -2.821  18.621  0.00  0.00    +0.228 C 
ATOM      3  C   LIG    1       44.772  -1.570  19.291  0.00  0.00    +0.172 C 
ATOM      4  S   LIG    1       43.230  -1.146  18.431  0.00  0.00    -0.093 S 
ATOM      5  C   LIG    1       43.336  -2.510  17.352  0.00  0.00    +0.113 C 
ATOM      6  S   LIG    1       42.254  -2.903  16.162  0.00  0.00    -0.028 S 
ATOM      7  N   LIG    1       44.453  -3.234  17.616  0.00  0.00    -0.274 N 
ATOM      8  H   LIG    1       44.679  -4.063  17.085  0.00  0.00    +0.156 HD
ENDROOT
TORSDOF 0
ENDMDL
MODEL 4
REMARK VINA RESULT:      -3.7      2.461      3.179
REMARK  Name = 
REMARK                            x       y       z     vdW  Elec       q    Type
REMARK                         _______ _______ _______ _____ _____    ______ ____
ROOT
ATOM      1  O   LIG    1       40.439  -2.728  15.483  0.00  0.00    -0.275 OA
ATOM      2  C   LIG    1       41.546  -2.899  15.975  0.00  0.00    +0.228 C 
ATOM      3  C   LIG    1       42.163  -2.010  17.023  0.00  0.00    +0.172 C 
ATOM      4  S   LIG    1       43.790  -2.733  17.380  0.00  0.00    -0.093 S 
ATOM      5  C   LIG    1       43.579  -4.030  16.237  0.00  0.00    +0.113 C 
ATOM      6  S   LIG    1       44.668  -5.232  15.908  0.00  0.00    -0.028 S 
ATOM      7  N   LIG    1       42.369  -3.931  15.629  0.00  0.00    -0.274 N 
ATOM      8  H   LIG    1       42.074  -4.602  14.934  0.00  0.00    +0.156 HD
ENDROOT
TORSDOF 0
ENDMDL
MODEL 5
REMARK VINA RESULT:      -3.6      2.856      3.617
REMARK  Name = 
REMARK                            x       y       z     vdW  Elec       q    Type
REMARK                         _______ _______ _______ _____ _____    ______ ____
ROOT
ATOM      1  O   LIG    1       42.360  -3.250  16.340  0.00  0.00    -0.275 OA
ATOM      2  C   LIG    1       43.245  -2.907  17.112  0.00  0.00    +0.228 C 
ATOM      3  C   LIG    1       43.190  -1.682  17.988  0.00  0.00    +0.172 C 
ATOM      4  S   LIG    1       44.753  -1.674  18.914  0.00  0.00    -0.093 S 
ATOM      5  C   LIG    1       45.326  -3.136  18.161  0.00  0.00    +0.113 C 
ATOM      6  S   LIG    1       46.773  -3.885  18.453  0.00  0.00    -0.028 S 
ATOM      7  N   LIG    1       44.408  -3.603  17.277  0.00  0.00    -0.274 N 
ATOM      8  H   LIG    1       44.571  -4.447  16.747  0.00  0.00    +0.156 HD
ENDROOT
TORSDOF 0
ENDMDL
MODEL 6
REMARK VINA RESULT:      -3.6      3.124      3.356
REMARK  Name = 
REMARK                            x       y       z     vdW  Elec       q    Type
REMARK                         _______ _______ _______ _____ _____    ______ ____
ROOT
ATOM      1  O   LIG    1       47.286  -4.096  18.978  0.00  0.00    -0.275 OA
ATOM      2  C   LIG    1       46.247  -3.764  18.424  0.00  0.00    +0.228 C 
ATOM      3  C   LIG    1       45.627  -4.490  17.258  0.00  0.00    +0.172 C 
ATOM      4  S   LIG    1       44.116  -3.567  16.855  0.00  0.00    -0.093 S 
ATOM      5  C   LIG    1       44.371  -2.395  18.119  0.00  0.00    +0.113 C 
ATOM      6  S   LIG    1       43.391  -1.110  18.474  0.00  0.00    -0.028 S 
ATOM      7  N   LIG    1       45.511  -2.677  18.800  0.00  0.00    -0.274 N 
ATOM      8  H   LIG    1       45.817  -2.102  19.571  0.00  0.00    +0.156 HD
ENDROOT
TORSDOF 0
ENDMDL
MODEL 7
REMARK VINA RESULT:      -3.6      2.968      3.855
REMARK  Name = 
REMARK                            x       y       z     vdW  Elec       q    Type
REMARK                         _______ _______ _______ _____ _____    ______ ____
ROOT
ATOM      1  O   LIG    1       42.774  -2.058  17.695  0.00  0.00    -0.275 OA
ATOM      2  C   LIG    1       43.467  -2.956  17.236  0.00  0.00    +0.228 C 
ATOM      3  C   LIG    1       43.060  -3.854  16.096  0.00  0.00    +0.172 C 
ATOM      4  S   LIG    1       44.459  -4.982  15.839  0.00  0.00    -0.093 S 
ATOM      5  C   LIG    1       45.398  -4.275  17.125  0.00  0.00    +0.113 C 
ATOM      6  S   LIG    1       46.913  -4.742  17.601  0.00  0.00    -0.028 S 
ATOM      7  N   LIG    1       44.711  -3.259  17.707  0.00  0.00    -0.274 N 
ATOM      8  H   LIG    1       45.104  -2.731  18.473  0.00  0.00    +0.156 HD
ENDROOT
TORSDOF 0
ENDMDL
MODEL 8
REMARK VINA RESULT:      -3.6      2.680      3.030
REMARK  Name = 
REMARK                            x       y       z     vdW  Elec       q    Type
REMARK                         _______ _______ _______ _____ _____    ______ ____
ROOT
ATOM      1  O   LIG    1       43.922  -5.027  15.863  0.00  0.00    -0.275 OA
ATOM      2  C   LIG    1       44.632  -4.490  16.703  0.00  0.00    +0.228 C 
ATOM      3  C   LIG    1       45.991  -4.989  17.122  0.00  0.00    +0.172 C 
ATOM      4  S   LIG    1       46.575  -3.816  18.379  0.00  0.00    -0.093 S 
ATOM      5  C   LIG    1       45.134  -2.841  18.288  0.00  0.00    +0.113 C 
ATOM      6  S   LIG    1       44.819  -1.475  19.168  0.00  0.00    -0.028 S 
ATOM      7  N   LIG    1       44.273  -3.358  17.375  0.00  0.00    -0.274 N 
ATOM      8  H   LIG    1       43.382  -2.920  17.187  0.00  0.00    +0.156 HD
ENDROOT
TORSDOF 0
ENDMDL
MODEL 9
REMARK VINA RESULT:      -3.6      2.001      2.009
REMARK  Name = 
REMARK                            x       y       z     vdW  Elec       q    Type
REMARK                         _______ _______ _______ _____ _____    ______ ____
ROOT
ATOM      1  O   LIG    1       45.475  -2.352  14.140  0.00  0.00    -0.275 OA
ATOM      2  C   LIG    1       44.630  -2.415  15.023  0.00  0.00    +0.228 C 
ATOM      3  C   LIG    1       44.930  -2.380  16.499  0.00  0.00    +0.172 C 
ATOM      4  S   LIG    1       43.318  -2.501  17.327  0.00  0.00    -0.093 S 
ATOM      5  C   LIG    1       42.438  -2.586  15.827  0.00  0.00    +0.113 C 
ATOM      6  S   LIG    1       40.796  -2.720  15.661  0.00  0.00    -0.028 S 
ATOM      7  N   LIG    1       43.293  -2.525  14.774  0.00  0.00    -0.274 N 
ATOM      8  H   LIG    1       42.957  -2.558  13.822  0.00  0.00    +0.156 HD
ENDROOT
TORSDOF 0
ENDMDL
