MODEL 1
REMARK VINA RESULT:      -3.4      0.000      0.000
REMARK  Name = 
REMARK                            x       y       z     vdW  Elec       q    Type
REMARK                         _______ _______ _______ _____ _____    ______ ____
ROOT
ATOM      1  O   LIG    1       27.137  -3.750  27.445  0.00  0.00    -0.275 OA
ATOM      2  C   LIG    1       27.972  -2.907  27.146  0.00  0.00    +0.228 C 
ATOM      3  C   LIG    1       27.656  -1.572  26.521  0.00  0.00    +0.172 C 
ATOM      4  S   LIG    1       29.257  -0.744  26.305  0.00  0.00    -0.093 S 
ATOM      5  C   LIG    1       30.155  -2.075  26.980  0.00  0.00    +0.113 C 
ATOM      6  S   LIG    1       31.797  -2.154  27.168  0.00  0.00    -0.028 S 
ATOM      7  N   LIG    1       29.312  -3.075  27.346  0.00  0.00    -0.274 N 
ATOM      8  H   LIG    1       29.658  -3.928  27.759  0.00  0.00    +0.156 HD
ENDROOT
TORSDOF 0
ENDMDL
MODEL 2
REMARK VINA RESULT:      -3.3      5.745      6.279
REMARK  Name = 
REMARK                            x       y       z     vdW  Elec       q    Type
REMARK                         _______ _______ _______ _____ _____    ______ ____
ROOT
ATOM      1  O   LIG    1       35.187   2.486  28.080  0.00  0.00    -0.275 OA
ATOM      2  C   LIG    1       34.341   1.745  27.597  0.00  0.00    +0.228 C 
ATOM      3  C   LIG    1       33.548   2.047  26.352  0.00  0.00    +0.172 C 
ATOM      4  S   LIG    1       32.461   0.614  26.106  0.00  0.00    -0.093 S 
ATOM      5  C   LIG    1       33.055  -0.210  27.521  0.00  0.00    +0.113 C 
ATOM      6  S   LIG    1       32.560  -1.691  28.071  0.00  0.00    -0.028 S 
ATOM      7  N   LIG    1       34.008   0.536  28.136  0.00  0.00    -0.274 N 
ATOM      8  H   LIG    1       34.467   0.213  28.975  0.00  0.00    +0.156 HD
ENDROOT
TORSDOF 0
ENDMDL
MODEL 3
REMARK VINA RESULT:      -3.3      2.254      2.420
REMARK  Name = 
REMARK                            x       y       z     vdW  Elec       q    Type
REMARK                         _______ _______ _______ _____ _____    ______ ____
ROOT
ATOM      1  O   LIG    1       25.556  -0.701  26.436  0.00  0.00    -0.275 OA
ATOM      2  C   LIG    1       26.702  -0.532  26.831  0.00  0.00    +0.228 C 
ATOM      3  C   LIG    1       27.217   0.745  27.443  0.00  0.00    +0.172 C 
ATOM      4  S   LIG    1       28.960   0.427  27.840  0.00  0.00    -0.093 S 
ATOM      5  C   LIG    1       28.908  -1.205  27.232  0.00  0.00    +0.113 C 
ATOM      6  S   LIG    1       30.165  -2.281  27.210  0.00  0.00    -0.028 S 
ATOM      7  N   LIG    1       27.667  -1.494  26.765  0.00  0.00    -0.274 N 
ATOM      8  H   LIG    1       27.452  -2.400  26.374  0.00  0.00    +0.156 HD
ENDROOT
TORSDOF 0
ENDMDL
MODEL 4
REMARK VINA RESULT:      -3.3      2.659      3.097
REMARK  Name = 
REMARK                            x       y       z     vdW  Elec       q    Type
REMARK                         _______ _______ _______ _____ _____    ______ ____
ROOT
ATOM      1  O   LIG    1       25.274  -0.687  26.495  0.00  0.00    -0.275 OA
ATOM      2  C   LIG    1       26.471  -0.698  26.747  0.00  0.00    +0.228 C 
ATOM      3  C   LIG    1       27.398  -1.848  26.452  0.00  0.00    +0.172 C 
ATOM      4  S   LIG    1       29.036  -1.315  27.027  0.00  0.00    -0.093 S 
ATOM      5  C   LIG    1       28.455   0.235  27.570  0.00  0.00    +0.113 C 
ATOM      6  S   LIG    1       29.361   1.427  28.275  0.00  0.00    -0.028 S 
ATOM      7  N   LIG    1       27.123   0.347  27.335  0.00  0.00    -0.274 N 
ATOM      8  H   LIG    1       26.615   1.184  27.584  0.00  0.00    +0.156 HD
ENDROOT
TORSDOF 0
ENDMDL
MODEL 5
REMARK VINA RESULT:      -3.3      6.213      6.727
REMARK  Name = 
REMARK                            x       y       z     vdW  Elec       q    Type
REMARK                         _______ _______ _______ _____ _____    ______ ____
ROOT
ATOM      1  O   LIG    1       33.271   2.311  26.128  0.00  0.00    -0.275 OA
ATOM      2  C   LIG    1       33.505   1.949  27.273  0.00  0.00    +0.228 C 
ATOM      3  C   LIG    1       34.883   1.839  27.872  0.00  0.00    +0.172 C 
ATOM      4  S   LIG    1       34.631   1.266  29.576  0.00  0.00    -0.093 S 
ATOM      5  C   LIG    1       32.898   1.209  29.410  0.00  0.00    +0.113 C 
ATOM      6  S   LIG    1       31.817   0.756  30.580  0.00  0.00    -0.028 S 
ATOM      7  N   LIG    1       32.531   1.596  28.162  0.00  0.00    -0.274 N 
ATOM      8  H   LIG    1       31.560   1.625  27.886  0.00  0.00    +0.156 HD
ENDROOT
TORSDOF 0
ENDMDL
MODEL 6
REMARK VINA RESULT:      -3.3      5.890      6.635
REMARK  Name = 
REMARK                            x       y       z     vdW  Elec       q    Type
REMARK                         _______ _______ _______ _____ _____    ______ ____
ROOT
ATOM      1  O   LIG    1       34.865   1.365  29.973  0.00  0.00    -0.275 OA
ATOM      2  C   LIG    1       34.242   1.508  28.930  0.00  0.00    +0.228 C 
ATOM      3  C   LIG    1       34.838   2.000  27.637  0.00  0.00    +0.172 C 
ATOM      4  S   LIG    1       33.472   2.009  26.441  0.00  0.00    -0.093 S 
ATOM      5  C   LIG    1       32.314   1.425  27.604  0.00  0.00    +0.113 C 
ATOM      6  S   LIG    1       30.709   1.132  27.324  0.00  0.00    -0.028 S 
ATOM      7  N   LIG    1       32.910   1.234  28.808  0.00  0.00    -0.274 N 
ATOM      8  H   LIG    1       32.389   0.895  29.604  0.00  0.00    +0.156 HD
ENDROOT
TORSDOF 0
ENDMDL
MODEL 7
REMARK VINA RESULT:      -3.2      3.252      3.802
REMARK  Name = 
REMARK                            x       y       z     vdW  Elec       q    Type
REMARK                         _______ _______ _______ _____ _____    ______ ____
ROOT
ATOM      1  O   LIG    1       33.242  -3.382  24.937  0.00  0.00    -0.275 OA
ATOM      2  C   LIG    1       32.309  -2.688  25.317  0.00  0.00    +0.228 C 
ATOM      3  C   LIG    1       31.879  -1.399  24.665  0.00  0.00    +0.172 C 
ATOM      4  S   LIG    1       30.461  -0.811  25.635  0.00  0.00    -0.093 S 
ATOM      5  C   LIG    1       30.520  -2.162  26.733  0.00  0.00    +0.113 C 
ATOM      6  S   LIG    1       29.508  -2.427  28.016  0.00  0.00    -0.028 S 
ATOM      7  N   LIG    1       31.533  -3.001  26.395  0.00  0.00    -0.274 N 
ATOM      8  H   LIG    1       31.716  -3.842  26.923  0.00  0.00    +0.156 HD
ENDROOT
TORSDOF 0
ENDMDL
MODEL 8
REMARK VINA RESULT:      -3.2      3.248      3.607
REMARK  Name = 
REMARK                            x       y       z     vdW  Elec       q    Type
REMARK                         _______ _______ _______ _____ _____    ______ ____
ROOT
ATOM      1  O   LIG    1       29.865   1.169  26.827  0.00  0.00    -0.275 OA
ATOM      2  C   LIG    1       28.872   0.482  27.025  0.00  0.00    +0.228 C 
ATOM      3  C   LIG    1       27.492   1.027  27.287  0.00  0.00    +0.172 C 
ATOM      4  S   LIG    1       26.425  -0.426  27.501  0.00  0.00    -0.093 S 
ATOM      5  C   LIG    1       27.733  -1.551  27.261  0.00  0.00    +0.113 C 
ATOM      6  S   LIG    1       27.623  -3.202  27.296  0.00  0.00    -0.028 S 
ATOM      7  N   LIG    1       28.893  -0.883  27.032  0.00  0.00    -0.274 N 
ATOM      8  H   LIG    1       29.759  -1.376  26.869  0.00  0.00    +0.156 HD
ENDROOT
TORSDOF 0
ENDMDL
MODEL 9
REMARK VINA RESULT:      -3.2      2.203      2.283
REMARK  Name = 
REMARK                            x       y       z     vdW  Elec       q    Type
REMARK                         _______ _______ _______ _____ _____    ______ ____
ROOT
ATOM      1  O   LIG    1       27.758  -3.146  26.966  0.00  0.00    -0.275 OA
ATOM      2  C   LIG    1       27.791  -1.942  27.182  0.00  0.00    +0.228 C 
ATOM      3  C   LIG    1       26.717  -0.968  26.770  0.00  0.00    +0.172 C 
ATOM      4  S   LIG    1       27.286   0.657  27.345  0.00  0.00    -0.093 S 
ATOM      5  C   LIG    1       28.759   0.019  28.021  0.00  0.00    +0.113 C 
ATOM      6  S   LIG    1       29.939   0.886  28.792  0.00  0.00    -0.028 S 
ATOM      7  N   LIG    1       28.821  -1.324  27.831  0.00  0.00    -0.274 N 
ATOM      8  H   LIG    1       29.607  -1.865  28.161  0.00  0.00    +0.156 HD
ENDROOT
TORSDOF 0
ENDMDL
