MODEL 1
REMARK VINA RESULT:      -4.0      0.000      0.000
REMARK  Name = 
REMARK                            x       y       z     vdW  Elec       q    Type
REMARK                         _______ _______ _______ _____ _____    ______ ____
ROOT
ATOM      1  O   LIG    1       38.266  38.400   5.372  0.00  0.00    -0.275 OA
ATOM      2  C   LIG    1       37.968  37.223   5.224  0.00  0.00    +0.228 C 
ATOM      3  C   LIG    1       37.242  36.667   4.026  0.00  0.00    +0.172 C 
ATOM      4  S   LIG    1       37.074  34.887   4.341  0.00  0.00    -0.093 S 
ATOM      5  C   LIG    1       37.884  34.977   5.880  0.00  0.00    +0.113 C 
ATOM      6  S   LIG    1       38.178  33.712   6.907  0.00  0.00    -0.028 S 
ATOM      7  N   LIG    1       38.260  36.255   6.141  0.00  0.00    -0.274 N 
ATOM      8  H   LIG    1       38.746  36.496   6.993  0.00  0.00    +0.156 HD
ENDROOT
TORSDOF 0
ENDMDL
MODEL 2
REMARK VINA RESULT:      -3.8     12.338     13.261
REMARK  Name = 
REMARK                            x       y       z     vdW  Elec       q    Type
REMARK                         _______ _______ _______ _____ _____    ______ ____
ROOT
ATOM      1  O   LIG    1       40.884  25.606  14.862  0.00  0.00    -0.275 OA
ATOM      2  C   LIG    1       41.225  25.605  13.687  0.00  0.00    +0.228 C 
ATOM      3  C   LIG    1       42.567  25.138  13.186  0.00  0.00    +0.172 C 
ATOM      4  S   LIG    1       42.517  25.355  11.383  0.00  0.00    -0.093 S 
ATOM      5  C   LIG    1       40.894  25.989  11.401  0.00  0.00    +0.113 C 
ATOM      6  S   LIG    1       40.020  26.478  10.083  0.00  0.00    -0.028 S 
ATOM      7  N   LIG    1       40.419  26.033  12.672  0.00  0.00    -0.274 N 
ATOM      8  H   LIG    1       39.490  26.373  12.874  0.00  0.00    +0.156 HD
ENDROOT
TORSDOF 0
ENDMDL
MODEL 3
REMARK VINA RESULT:      -3.8     12.941     13.544
REMARK  Name = 
REMARK                            x       y       z     vdW  Elec       q    Type
REMARK                         _______ _______ _______ _____ _____    ______ ____
ROOT
ATOM      1  O   LIG    1       43.316  24.561  13.959  0.00  0.00    -0.275 OA
ATOM      2  C   LIG    1       42.666  24.969  13.006  0.00  0.00    +0.228 C 
ATOM      3  C   LIG    1       41.161  24.962  12.929  0.00  0.00    +0.172 C 
ATOM      4  S   LIG    1       40.752  25.678  11.311  0.00  0.00    -0.093 S 
ATOM      5  C   LIG    1       42.422  25.914  10.877  0.00  0.00    +0.113 C 
ATOM      6  S   LIG    1       42.984  26.562   9.462  0.00  0.00    -0.028 S 
ATOM      7  N   LIG    1       43.234  25.488  11.879  0.00  0.00    -0.274 N 
ATOM      8  H   LIG    1       44.239  25.550  11.802  0.00  0.00    +0.156 HD
ENDROOT
TORSDOF 0
ENDMDL
MODEL 4
REMARK VINA RESULT:      -3.7      4.532      5.191
REMARK  Name = 
REMARK                            x       y       z     vdW  Elec       q    Type
REMARK                         _______ _______ _______ _____ _____    ______ ____
ROOT
ATOM      1  O   LIG    1       36.176  34.140   9.266  0.00  0.00    -0.275 OA
ATOM      2  C   LIG    1       37.103  33.400   8.965  0.00  0.00    +0.228 C 
ATOM      3  C   LIG    1       37.710  33.304   7.589  0.00  0.00    +0.172 C 
ATOM      4  S   LIG    1       39.034  32.069   7.725  0.00  0.00    -0.093 S 
ATOM      5  C   LIG    1       38.733  31.781   9.416  0.00  0.00    +0.113 C 
ATOM      6  S   LIG    1       39.551  30.721  10.389  0.00  0.00    -0.028 S 
ATOM      7  N   LIG    1       37.710  32.560   9.853  0.00  0.00    -0.274 N 
ATOM      8  H   LIG    1       37.398  32.526  10.812  0.00  0.00    +0.156 HD
ENDROOT
TORSDOF 0
ENDMDL
MODEL 5
REMARK VINA RESULT:      -3.6     12.314     13.147
REMARK  Name = 
REMARK                            x       y       z     vdW  Elec       q    Type
REMARK                         _______ _______ _______ _____ _____    ______ ____
ROOT
ATOM      1  O   LIG    1       42.697  25.016  10.732  0.00  0.00    -0.275 OA
ATOM      2  C   LIG    1       42.322  25.511  11.786  0.00  0.00    +0.228 C 
ATOM      3  C   LIG    1       42.228  24.770  13.094  0.00  0.00    +0.172 C 
ATOM      4  S   LIG    1       41.625  25.986  14.301  0.00  0.00    -0.093 S 
ATOM      5  C   LIG    1       41.538  27.266  13.123  0.00  0.00    +0.113 C 
ATOM      6  S   LIG    1       41.048  28.822  13.402  0.00  0.00    -0.028 S 
ATOM      7  N   LIG    1       41.937  26.815  11.906  0.00  0.00    -0.274 N 
ATOM      8  H   LIG    1       41.953  27.423  11.100  0.00  0.00    +0.156 HD
ENDROOT
TORSDOF 0
ENDMDL
MODEL 6
REMARK VINA RESULT:      -3.6     11.917     12.638
REMARK  Name = 
REMARK                            x       y       z     vdW  Elec       q    Type
REMARK                         _______ _______ _______ _____ _____    ______ ____
ROOT
ATOM      1  O   LIG    1       41.399  24.530  13.314  0.00  0.00    -0.275 OA
ATOM      2  C   LIG    1       41.275  25.091  12.234  0.00  0.00    +0.228 C 
ATOM      3  C   LIG    1       42.409  25.391  11.288  0.00  0.00    +0.172 C 
ATOM      4  S   LIG    1       41.650  26.219   9.862  0.00  0.00    -0.093 S 
ATOM      5  C   LIG    1       40.045  26.133  10.534  0.00  0.00    +0.113 C 
ATOM      6  S   LIG    1       38.658  26.699   9.832  0.00  0.00    -0.028 S 
ATOM      7  N   LIG    1       40.074  25.521  11.746  0.00  0.00    -0.274 N 
ATOM      8  H   LIG    1       39.231  25.381  12.284  0.00  0.00    +0.156 HD
ENDROOT
TORSDOF 0
ENDMDL
MODEL 7
REMARK VINA RESULT:      -3.6      3.222      3.691
REMARK  Name = 
REMARK                            x       y       z     vdW  Elec       q    Type
REMARK                         _______ _______ _______ _____ _____    ______ ____
ROOT
ATOM      1  O   LIG    1       37.372  35.835   7.050  0.00  0.00    -0.275 OA
ATOM      2  C   LIG    1       37.718  34.709   7.381  0.00  0.00    +0.228 C 
ATOM      3  C   LIG    1       37.141  33.942   8.542  0.00  0.00    +0.172 C 
ATOM      4  S   LIG    1       38.016  32.352   8.560  0.00  0.00    -0.093 S 
ATOM      5  C   LIG    1       38.994  32.757   7.177  0.00  0.00    +0.113 C 
ATOM      6  S   LIG    1       40.145  31.795   6.477  0.00  0.00    -0.028 S 
ATOM      7  N   LIG    1       38.685  34.000   6.729  0.00  0.00    -0.274 N 
ATOM      8  H   LIG    1       39.154  34.402   5.930  0.00  0.00    +0.156 HD
ENDROOT
TORSDOF 0
ENDMDL
MODEL 8
REMARK VINA RESULT:      -3.5      5.926      6.375
REMARK  Name = 
REMARK                            x       y       z     vdW  Elec       q    Type
REMARK                         _______ _______ _______ _____ _____    ______ ____
ROOT
ATOM      1  O   LIG    1       34.442  37.830   0.928  0.00  0.00    -0.275 OA
ATOM      2  C   LIG    1       33.992  36.712   1.137  0.00  0.00    +0.228 C 
ATOM      3  C   LIG    1       33.296  36.292   2.405  0.00  0.00    +0.172 C 
ATOM      4  S   LIG    1       32.842  34.551   2.160  0.00  0.00    -0.093 S 
ATOM      5  C   LIG    1       33.533  34.489   0.562  0.00  0.00    +0.113 C 
ATOM      6  S   LIG    1       33.558  33.174  -0.443  0.00  0.00    -0.028 S 
ATOM      7  N   LIG    1       34.066  35.693   0.232  0.00  0.00    -0.274 N 
ATOM      8  H   LIG    1       34.511  35.843  -0.662  0.00  0.00    +0.156 HD
ENDROOT
TORSDOF 0
ENDMDL
MODEL 9
REMARK VINA RESULT:      -3.5     11.896     12.289
REMARK  Name = 
REMARK                            x       y       z     vdW  Elec       q    Type
REMARK                         _______ _______ _______ _____ _____    ______ ____
ROOT
ATOM      1  O   LIG    1       38.965  26.347   9.786  0.00  0.00    -0.275 OA
ATOM      2  C   LIG    1       39.992  26.091  10.399  0.00  0.00    +0.228 C 
ATOM      3  C   LIG    1       41.342  25.882   9.762  0.00  0.00    +0.172 C 
ATOM      4  S   LIG    1       42.482  25.540  11.133  0.00  0.00    -0.093 S 
ATOM      5  C   LIG    1       41.234  25.675  12.341  0.00  0.00    +0.113 C 
ATOM      6  S   LIG    1       41.428  25.492  13.974  0.00  0.00    -0.028 S 
ATOM      7  N   LIG    1       40.042  25.960  11.757  0.00  0.00    -0.274 N 
ATOM      8  H   LIG    1       39.203  26.076  12.307  0.00  0.00    +0.156 HD
ENDROOT
TORSDOF 0
ENDMDL
