MODEL 1
REMARK VINA RESULT:      -3.6      0.000      0.000
REMARK  Name = 
REMARK                            x       y       z     vdW  Elec       q    Type
REMARK                         _______ _______ _______ _____ _____    ______ ____
ROOT
ATOM      1  O   LIG    1        1.773   5.539  21.825  0.00  0.00    -0.275 OA
ATOM      2  C   LIG    1        2.369   4.473  21.742  0.00  0.00    +0.228 C 
ATOM      3  C   LIG    1        2.847   3.665  22.920  0.00  0.00    +0.172 C 
ATOM      4  S   LIG    1        3.649   2.198  22.212  0.00  0.00    -0.093 S 
ATOM      5  C   LIG    1        3.340   2.694  20.571  0.00  0.00    +0.113 C 
ATOM      6  S   LIG    1        3.773   1.870  19.202  0.00  0.00    -0.028 S 
ATOM      7  N   LIG    1        2.677   3.878  20.553  0.00  0.00    -0.274 N 
ATOM      8  H   LIG    1        2.412   4.318  19.684  0.00  0.00    +0.156 HD
ENDROOT
TORSDOF 0
ENDMDL
MODEL 2
REMARK VINA RESULT:      -3.5      2.700      3.219
REMARK  Name = 
REMARK                            x       y       z     vdW  Elec       q    Type
REMARK                         _______ _______ _______ _____ _____    ______ ____
ROOT
ATOM      1  O   LIG    1        3.683   1.107  19.794  0.00  0.00    -0.275 OA
ATOM      2  C   LIG    1        3.376   1.713  20.813  0.00  0.00    +0.228 C 
ATOM      3  C   LIG    1        3.514   1.164  22.209  0.00  0.00    +0.172 C 
ATOM      4  S   LIG    1        2.919   2.479  23.311  0.00  0.00    -0.093 S 
ATOM      5  C   LIG    1        2.557   3.561  21.995  0.00  0.00    +0.113 C 
ATOM      6  S   LIG    1        1.931   5.087  22.126  0.00  0.00    -0.028 S 
ATOM      7  N   LIG    1        2.864   2.978  20.808  0.00  0.00    -0.274 N 
ATOM      8  H   LIG    1        2.720   3.461  19.933  0.00  0.00    +0.156 HD
ENDROOT
TORSDOF 0
ENDMDL
MODEL 3
REMARK VINA RESULT:      -3.5      1.872      1.974
REMARK  Name = 
REMARK                            x       y       z     vdW  Elec       q    Type
REMARK                         _______ _______ _______ _____ _____    ______ ____
ROOT
ATOM      1  O   LIG    1        3.805   4.484  20.303  0.00  0.00    -0.275 OA
ATOM      2  C   LIG    1        3.584   3.529  21.035  0.00  0.00    +0.228 C 
ATOM      3  C   LIG    1        3.274   3.633  22.506  0.00  0.00    +0.172 C 
ATOM      4  S   LIG    1        3.033   1.925  23.075  0.00  0.00    -0.093 S 
ATOM      5  C   LIG    1        3.329   1.248  21.498  0.00  0.00    +0.113 C 
ATOM      6  S   LIG    1        3.306  -0.359  21.102  0.00  0.00    -0.028 S 
ATOM      7  N   LIG    1        3.589   2.235  20.603  0.00  0.00    -0.274 N 
ATOM      8  H   LIG    1        3.783   2.027  19.634  0.00  0.00    +0.156 HD
ENDROOT
TORSDOF 0
ENDMDL
MODEL 4
REMARK VINA RESULT:      -3.4      1.754      2.281
REMARK  Name = 
REMARK                            x       y       z     vdW  Elec       q    Type
REMARK                         _______ _______ _______ _____ _____    ______ ____
ROOT
ATOM      1  O   LIG    1        1.746   5.246  21.741  0.00  0.00    -0.275 OA
ATOM      2  C   LIG    1        2.164   4.098  21.812  0.00  0.00    +0.228 C 
ATOM      3  C   LIG    1        3.546   3.663  21.398  0.00  0.00    +0.172 C 
ATOM      4  S   LIG    1        3.613   1.877  21.721  0.00  0.00    -0.093 S 
ATOM      5  C   LIG    1        1.977   1.819  22.318  0.00  0.00    +0.113 C 
ATOM      6  S   LIG    1        1.181   0.475  22.863  0.00  0.00    -0.028 S 
ATOM      7  N   LIG    1        1.418   3.056  22.280  0.00  0.00    -0.274 N 
ATOM      8  H   LIG    1        0.470   3.213  22.591  0.00  0.00    +0.156 HD
ENDROOT
TORSDOF 0
ENDMDL
MODEL 5
REMARK VINA RESULT:      -3.3      3.661      4.296
REMARK  Name = 
REMARK                            x       y       z     vdW  Elec       q    Type
REMARK                         _______ _______ _______ _____ _____    ______ ____
ROOT
ATOM      1  O   LIG    1        4.683  -0.409  20.263  0.00  0.00    -0.275 OA
ATOM      2  C   LIG    1        3.854   0.031  21.047  0.00  0.00    +0.228 C 
ATOM      3  C   LIG    1        2.645  -0.728  21.530  0.00  0.00    +0.172 C 
ATOM      4  S   LIG    1        1.784   0.397  22.666  0.00  0.00    -0.093 S 
ATOM      5  C   LIG    1        2.951   1.672  22.452  0.00  0.00    +0.113 C 
ATOM      6  S   LIG    1        2.919   3.160  23.176  0.00  0.00    -0.028 S 
ATOM      7  N   LIG    1        3.924   1.281  21.589  0.00  0.00    -0.274 N 
ATOM      8  H   LIG    1        4.688   1.895  21.347  0.00  0.00    +0.156 HD
ENDROOT
TORSDOF 0
ENDMDL
MODEL 6
REMARK VINA RESULT:      -3.3      3.324      3.520
REMARK  Name = 
REMARK                            x       y       z     vdW  Elec       q    Type
REMARK                         _______ _______ _______ _____ _____    ______ ____
ROOT
ATOM      1  O   LIG    1        3.932   2.494  22.425  0.00  0.00    -0.275 OA
ATOM      2  C   LIG    1        3.672   1.380  21.990  0.00  0.00    +0.228 C 
ATOM      3  C   LIG    1        2.379   0.647  22.233  0.00  0.00    +0.172 C 
ATOM      4  S   LIG    1        2.544  -0.936  21.359  0.00  0.00    -0.093 S 
ATOM      5  C   LIG    1        4.149  -0.572  20.788  0.00  0.00    +0.113 C 
ATOM      6  S   LIG    1        5.100  -1.550  19.851  0.00  0.00    -0.028 S 
ATOM      7  N   LIG    1        4.535   0.655  21.221  0.00  0.00    -0.274 N 
ATOM      8  H   LIG    1        5.441   1.034  20.984  0.00  0.00    +0.156 HD
ENDROOT
TORSDOF 0
ENDMDL
MODEL 7
REMARK VINA RESULT:      -3.3     11.702     12.215
REMARK  Name = 
REMARK                            x       y       z     vdW  Elec       q    Type
REMARK                         _______ _______ _______ _____ _____    ______ ____
ROOT
ATOM      1  O   LIG    1       11.763  -3.534  24.521  0.00  0.00    -0.275 OA
ATOM      2  C   LIG    1       10.941  -3.760  25.397  0.00  0.00    +0.228 C 
ATOM      3  C   LIG    1        9.447  -3.721  25.201  0.00  0.00    +0.172 C 
ATOM      4  S   LIG    1        8.731  -4.137  26.817  0.00  0.00    -0.093 S 
ATOM      5  C   LIG    1       10.288  -4.313  27.577  0.00  0.00    +0.113 C 
ATOM      6  S   LIG    1       10.566  -4.708  29.160  0.00  0.00    -0.028 S 
ATOM      7  N   LIG    1       11.280  -4.079  26.680  0.00  0.00    -0.274 N 
ATOM      8  H   LIG    1       12.253  -4.139  26.945  0.00  0.00    +0.156 HD
ENDROOT
TORSDOF 0
ENDMDL
MODEL 8
REMARK VINA RESULT:      -3.2      2.232      2.370
REMARK  Name = 
REMARK                            x       y       z     vdW  Elec       q    Type
REMARK                         _______ _______ _______ _____ _____    ______ ____
ROOT
ATOM      1  O   LIG    1        2.792   2.467  24.121  0.00  0.00    -0.275 OA
ATOM      2  C   LIG    1        3.027   2.525  22.922  0.00  0.00    +0.228 C 
ATOM      3  C   LIG    1        3.118   3.802  22.128  0.00  0.00    +0.172 C 
ATOM      4  S   LIG    1        3.487   3.293  20.424  0.00  0.00    -0.093 S 
ATOM      5  C   LIG    1        3.492   1.597  20.823  0.00  0.00    +0.113 C 
ATOM      6  S   LIG    1        3.765   0.346  19.774  0.00  0.00    -0.028 S 
ATOM      7  N   LIG    1        3.238   1.423  22.145  0.00  0.00    -0.274 N 
ATOM      8  H   LIG    1        3.204   0.501  22.556  0.00  0.00    +0.156 HD
ENDROOT
TORSDOF 0
ENDMDL
MODEL 9
REMARK VINA RESULT:      -3.2      4.373      4.955
REMARK  Name = 
REMARK                            x       y       z     vdW  Elec       q    Type
REMARK                         _______ _______ _______ _____ _____    ______ ____
ROOT
ATOM      1  O   LIG    1        3.381   1.270  20.973  0.00  0.00    -0.275 OA
ATOM      2  C   LIG    1        3.930   0.208  20.712  0.00  0.00    +0.228 C 
ATOM      3  C   LIG    1        3.275  -0.938  19.985  0.00  0.00    +0.172 C 
ATOM      4  S   LIG    1        4.543  -2.234  19.875  0.00  0.00    -0.093 S 
ATOM      5  C   LIG    1        5.737  -1.282  20.714  0.00  0.00    +0.113 C 
ATOM      6  S   LIG    1        7.286  -1.744  21.068  0.00  0.00    -0.028 S 
ATOM      7  N   LIG    1        5.222  -0.072  21.052  0.00  0.00    -0.274 N 
ATOM      8  H   LIG    1        5.774   0.615  21.545  0.00  0.00    +0.156 HD
ENDROOT
TORSDOF 0
ENDMDL
