MODEL 1
REMARK VINA RESULT:      -3.8      0.000      0.000
REMARK  Name = 
REMARK                            x       y       z     vdW  Elec       q    Type
REMARK                         _______ _______ _______ _____ _____    ______ ____
ROOT
ATOM      1  O   LIG    1       15.592   3.530  23.518  0.00  0.00    -0.275 OA
ATOM      2  C   LIG    1       16.714   3.297  23.090  0.00  0.00    +0.228 C 
ATOM      3  C   LIG    1       17.659   4.340  22.552  0.00  0.00    +0.172 C 
ATOM      4  S   LIG    1       19.159   3.437  22.070  0.00  0.00    -0.093 S 
ATOM      5  C   LIG    1       18.511   1.894  22.554  0.00  0.00    +0.113 C 
ATOM      6  S   LIG    1       19.280   0.432  22.448  0.00  0.00    -0.028 S 
ATOM      7  N   LIG    1       17.255   2.044  23.048  0.00  0.00    -0.274 N 
ATOM      8  H   LIG    1       16.723   1.253  23.380  0.00  0.00    +0.156 HD
ENDROOT
TORSDOF 0
ENDMDL
MODEL 2
REMARK VINA RESULT:      -3.8      2.480      3.093
REMARK  Name = 
REMARK                            x       y       z     vdW  Elec       q    Type
REMARK                         _______ _______ _______ _____ _____    ______ ____
ROOT
ATOM      1  O   LIG    1       19.013   0.843  22.989  0.00  0.00    -0.275 OA
ATOM      2  C   LIG    1       18.538   1.970  22.974  0.00  0.00    +0.228 C 
ATOM      3  C   LIG    1       19.346   3.240  22.906  0.00  0.00    +0.172 C 
ATOM      4  S   LIG    1       18.134   4.591  22.907  0.00  0.00    -0.093 S 
ATOM      5  C   LIG    1       16.772   3.508  22.993  0.00  0.00    +0.113 C 
ATOM      6  S   LIG    1       15.176   3.944  23.039  0.00  0.00    -0.028 S 
ATOM      7  N   LIG    1       17.197   2.219  23.016  0.00  0.00    -0.274 N 
ATOM      8  H   LIG    1       16.542   1.452  23.064  0.00  0.00    +0.156 HD
ENDROOT
TORSDOF 0
ENDMDL
MODEL 3
REMARK VINA RESULT:      -3.7      3.045      3.891
REMARK  Name = 
REMARK                            x       y       z     vdW  Elec       q    Type
REMARK                         _______ _______ _______ _____ _____    ______ ____
ROOT
ATOM      1  O   LIG    1       19.881   0.187  20.341  0.00  0.00    -0.275 OA
ATOM      2  C   LIG    1       19.471   0.935  21.218  0.00  0.00    +0.228 C 
ATOM      3  C   LIG    1       19.012   0.485  22.581  0.00  0.00    +0.172 C 
ATOM      4  S   LIG    1       18.523   1.999  23.456  0.00  0.00    -0.093 S 
ATOM      5  C   LIG    1       18.910   3.028  22.105  0.00  0.00    +0.113 C 
ATOM      6  S   LIG    1       18.749   4.674  22.051  0.00  0.00    -0.028 S 
ATOM      7  N   LIG    1       19.378   2.288  21.067  0.00  0.00    -0.274 N 
ATOM      8  H   LIG    1       19.654   2.720  20.197  0.00  0.00    +0.156 HD
ENDROOT
TORSDOF 0
ENDMDL
MODEL 4
REMARK VINA RESULT:      -3.7      3.542      4.275
REMARK  Name = 
REMARK                            x       y       z     vdW  Elec       q    Type
REMARK                         _______ _______ _______ _____ _____    ______ ____
ROOT
ATOM      1  O   LIG    1       18.483   5.085  21.906  0.00  0.00    -0.275 OA
ATOM      2  C   LIG    1       18.514   4.862  23.109  0.00  0.00    +0.228 C 
ATOM      3  C   LIG    1       18.637   3.492  23.723  0.00  0.00    +0.172 C 
ATOM      4  S   LIG    1       18.637   3.761  25.519  0.00  0.00    -0.093 S 
ATOM      5  C   LIG    1       18.486   5.489  25.365  0.00  0.00    +0.113 C 
ATOM      6  S   LIG    1       18.406   6.580  26.607  0.00  0.00    -0.028 S 
ATOM      7  N   LIG    1       18.441   5.843  24.055  0.00  0.00    -0.274 N 
ATOM      8  H   LIG    1       18.356   6.810  23.775  0.00  0.00    +0.156 HD
ENDROOT
TORSDOF 0
ENDMDL
MODEL 5
REMARK VINA RESULT:      -3.7     13.032     13.532
REMARK  Name = 
REMARK                            x       y       z     vdW  Elec       q    Type
REMARK                         _______ _______ _______ _____ _____    ______ ____
ROOT
ATOM      1  O   LIG    1        7.087   9.844  27.473  0.00  0.00    -0.275 OA
ATOM      2  C   LIG    1        6.542   8.763  27.646  0.00  0.00    +0.228 C 
ATOM      3  C   LIG    1        5.313   8.550  28.491  0.00  0.00    +0.172 C 
ATOM      4  S   LIG    1        4.950   6.774  28.385  0.00  0.00    -0.093 S 
ATOM      5  C   LIG    1        6.307   6.453  27.342  0.00  0.00    +0.113 C 
ATOM      6  S   LIG    1        6.742   4.980  26.726  0.00  0.00    -0.028 S 
ATOM      7  N   LIG    1        6.987   7.600  27.087  0.00  0.00    -0.274 N 
ATOM      8  H   LIG    1        7.805   7.605  26.495  0.00  0.00    +0.156 HD
ENDROOT
TORSDOF 0
ENDMDL
MODEL 6
REMARK VINA RESULT:      -3.6      2.673      3.233
REMARK  Name = 
REMARK                            x       y       z     vdW  Elec       q    Type
REMARK                         _______ _______ _______ _____ _____    ______ ____
ROOT
ATOM      1  O   LIG    1       14.848   3.949  22.692  0.00  0.00    -0.275 OA
ATOM      2  C   LIG    1       15.883   3.880  23.341  0.00  0.00    +0.228 C 
ATOM      3  C   LIG    1       17.181   3.316  22.825  0.00  0.00    +0.172 C 
ATOM      4  S   LIG    1       18.360   3.470  24.198  0.00  0.00    -0.093 S 
ATOM      5  C   LIG    1       17.185   4.192  25.262  0.00  0.00    +0.113 C 
ATOM      6  S   LIG    1       17.446   4.677  26.823  0.00  0.00    -0.028 S 
ATOM      7  N   LIG    1       15.989   4.313  24.631  0.00  0.00    -0.274 N 
ATOM      8  H   LIG    1       15.188   4.714  25.097  0.00  0.00    +0.156 HD
ENDROOT
TORSDOF 0
ENDMDL
MODEL 7
REMARK VINA RESULT:      -3.6     13.876     14.193
REMARK  Name = 
REMARK                            x       y       z     vdW  Elec       q    Type
REMARK                         _______ _______ _______ _____ _____    ______ ____
ROOT
ATOM      1  O   LIG    1       10.362   1.744  37.369  0.00  0.00    -0.275 OA
ATOM      2  C   LIG    1       10.785   1.976  36.244  0.00  0.00    +0.228 C 
ATOM      3  C   LIG    1       11.996   2.820  35.942  0.00  0.00    +0.172 C 
ATOM      4  S   LIG    1       12.154   2.816  34.133  0.00  0.00    -0.093 S 
ATOM      5  C   LIG    1       10.752   1.808  33.909  0.00  0.00    +0.113 C 
ATOM      6  S   LIG    1       10.143   1.285  32.461  0.00  0.00    -0.028 S 
ATOM      7  N   LIG    1       10.202   1.491  35.109  0.00  0.00    -0.274 N 
ATOM      8  H   LIG    1        9.379   0.910  35.172  0.00  0.00    +0.156 HD
ENDROOT
TORSDOF 0
ENDMDL
MODEL 8
REMARK VINA RESULT:      -3.6      3.586      4.119
REMARK  Name = 
REMARK                            x       y       z     vdW  Elec       q    Type
REMARK                         _______ _______ _______ _____ _____    ______ ____
ROOT
ATOM      1  O   LIG    1       18.284   6.970  26.564  0.00  0.00    -0.275 OA
ATOM      2  C   LIG    1       18.362   5.977  25.853  0.00  0.00    +0.228 C 
ATOM      3  C   LIG    1       18.392   4.559  26.363  0.00  0.00    +0.172 C 
ATOM      4  S   LIG    1       18.510   3.512  24.884  0.00  0.00    -0.093 S 
ATOM      5  C   LIG    1       18.517   4.871  23.795  0.00  0.00    +0.113 C 
ATOM      6  S   LIG    1       18.609   4.802  22.144  0.00  0.00    -0.028 S 
ATOM      7  N   LIG    1       18.434   6.033  24.492  0.00  0.00    -0.274 N 
ATOM      8  H   LIG    1       18.423   6.927  24.022  0.00  0.00    +0.156 HD
ENDROOT
TORSDOF 0
ENDMDL
MODEL 9
REMARK VINA RESULT:      -3.6     12.760     13.224
REMARK  Name = 
REMARK                            x       y       z     vdW  Elec       q    Type
REMARK                         _______ _______ _______ _____ _____    ______ ____
ROOT
ATOM      1  O   LIG    1        7.522   5.593  25.627  0.00  0.00    -0.275 OA
ATOM      2  C   LIG    1        6.964   6.543  26.159  0.00  0.00    +0.228 C 
ATOM      3  C   LIG    1        6.234   6.480  27.476  0.00  0.00    +0.172 C 
ATOM      4  S   LIG    1        5.616   8.161  27.773  0.00  0.00    -0.093 S 
ATOM      5  C   LIG    1        6.287   8.781  26.289  0.00  0.00    +0.113 C 
ATOM      6  S   LIG    1        6.178  10.339  25.741  0.00  0.00    -0.028 S 
ATOM      7  N   LIG    1        6.934   7.795  25.617  0.00  0.00    -0.274 N 
ATOM      8  H   LIG    1        7.387   7.973  24.732  0.00  0.00    +0.156 HD
ENDROOT
TORSDOF 0
ENDMDL
