MODEL 1
REMARK VINA RESULT:      -1.9      0.000      0.000
REMARK  Name = 
REMARK                            x       y       z     vdW  Elec       q    Type
REMARK                         _______ _______ _______ _____ _____    ______ ____
ROOT
ATOM      1  O   LIG    1       17.281   2.266  52.681  0.00  0.00    -0.275 OA
ATOM      2  C   LIG    1       16.200   1.885  52.252  0.00  0.00    +0.228 C 
ATOM      3  C   LIG    1       14.873   2.509  52.602  0.00  0.00    +0.172 C 
ATOM      4  S   LIG    1       13.629   1.553  51.688  0.00  0.00    -0.093 S 
ATOM      5  C   LIG    1       14.815   0.493  50.977  0.00  0.00    +0.113 C 
ATOM      6  S   LIG    1       14.511  -0.759  49.938  0.00  0.00    -0.028 S 
ATOM      7  N   LIG    1       16.061   0.834  51.393  0.00  0.00    -0.274 N 
ATOM      8  H   LIG    1       16.876   0.327  51.079  0.00  0.00    +0.156 HD
ENDROOT
TORSDOF 0
ENDMDL
MODEL 2
REMARK VINA RESULT:      -1.6      3.067      3.869
REMARK  Name = 
REMARK                            x       y       z     vdW  Elec       q    Type
REMARK                         _______ _______ _______ _____ _____    ______ ____
ROOT
ATOM      1  O   LIG    1       13.438   1.304  51.055  0.00  0.00    -0.275 OA
ATOM      2  C   LIG    1       14.351   1.791  51.707  0.00  0.00    +0.228 C 
ATOM      3  C   LIG    1       15.576   1.038  52.158  0.00  0.00    +0.172 C 
ATOM      4  S   LIG    1       16.581   2.244  53.072  0.00  0.00    -0.093 S 
ATOM      5  C   LIG    1       15.436   3.535  52.831  0.00  0.00    +0.113 C 
ATOM      6  S   LIG    1       15.584   5.089  53.380  0.00  0.00    -0.028 S 
ATOM      7  N   LIG    1       14.373   3.094  52.111  0.00  0.00    -0.274 N 
ATOM      8  H   LIG    1       13.608   3.709  51.874  0.00  0.00    +0.156 HD
ENDROOT
TORSDOF 0
ENDMDL
MODEL 3
REMARK VINA RESULT:      -1.5      1.618      1.618
REMARK  Name = 
REMARK                            x       y       z     vdW  Elec       q    Type
REMARK                         _______ _______ _______ _____ _____    ______ ____
ROOT
ATOM      1  O   LIG    1       16.509   0.147  54.586  0.00  0.00    -0.275 OA
ATOM      2  C   LIG    1       15.763   0.452  53.666  0.00  0.00    +0.228 C 
ATOM      3  C   LIG    1       14.674   1.490  53.753  0.00  0.00    +0.172 C 
ATOM      4  S   LIG    1       13.901   1.526  52.111  0.00  0.00    -0.093 S 
ATOM      5  C   LIG    1       14.952   0.291  51.475  0.00  0.00    +0.113 C 
ATOM      6  S   LIG    1       14.924  -0.321  49.938  0.00  0.00    -0.028 S 
ATOM      7  N   LIG    1       15.826  -0.120  52.428  0.00  0.00    -0.274 N 
ATOM      8  H   LIG    1       16.515  -0.833  52.236  0.00  0.00    +0.156 HD
ENDROOT
TORSDOF 0
ENDMDL
MODEL 4
REMARK VINA RESULT:      -1.5      3.612      4.002
REMARK  Name = 
REMARK                            x       y       z     vdW  Elec       q    Type
REMARK                         _______ _______ _______ _____ _____    ______ ____
ROOT
ATOM      1  O   LIG    1       19.344   0.917  54.069  0.00  0.00    -0.275 OA
ATOM      2  C   LIG    1       18.753   1.683  53.320  0.00  0.00    +0.228 C 
ATOM      3  C   LIG    1       17.347   2.178  53.538  0.00  0.00    +0.172 C 
ATOM      4  S   LIG    1       16.993   3.275  52.135  0.00  0.00    -0.093 S 
ATOM      5  C   LIG    1       18.561   3.034  51.417  0.00  0.00    +0.113 C 
ATOM      6  S   LIG    1       19.110   3.715  50.012  0.00  0.00    -0.028 S 
ATOM      7  N   LIG    1       19.303   2.189  52.178  0.00  0.00    -0.274 N 
ATOM      8  H   LIG    1       20.244   1.935  51.915  0.00  0.00    +0.156 HD
ENDROOT
TORSDOF 0
ENDMDL
MODEL 5
REMARK VINA RESULT:      -1.5      4.154      4.746
REMARK  Name = 
REMARK                            x       y       z     vdW  Elec       q    Type
REMARK                         _______ _______ _______ _____ _____    ______ ____
ROOT
ATOM      1  O   LIG    1       15.557   3.589  52.995  0.00  0.00    -0.275 OA
ATOM      2  C   LIG    1       16.531   3.740  52.271  0.00  0.00    +0.228 C 
ATOM      3  C   LIG    1       17.584   2.692  52.022  0.00  0.00    +0.172 C 
ATOM      4  S   LIG    1       18.772   3.455  50.880  0.00  0.00    -0.093 S 
ATOM      5  C   LIG    1       17.898   4.960  50.813  0.00  0.00    +0.113 C 
ATOM      6  S   LIG    1       18.322   6.300  49.938  0.00  0.00    -0.028 S 
ATOM      7  N   LIG    1       16.788   4.896  51.591  0.00  0.00    -0.274 N 
ATOM      8  H   LIG    1       16.157   5.680  51.672  0.00  0.00    +0.156 HD
ENDROOT
TORSDOF 0
ENDMDL
MODEL 6
REMARK VINA RESULT:      -1.5      3.812      4.289
REMARK  Name = 
REMARK                            x       y       z     vdW  Elec       q    Type
REMARK                         _______ _______ _______ _____ _____    ______ ____
ROOT
ATOM      1  O   LIG    1       20.970   3.213  50.961  0.00  0.00    -0.275 OA
ATOM      2  C   LIG    1       19.808   3.518  51.194  0.00  0.00    +0.228 C 
ATOM      3  C   LIG    1       19.268   4.924  51.161  0.00  0.00    +0.172 C 
ATOM      4  S   LIG    1       17.507   4.780  51.576  0.00  0.00    -0.093 S 
ATOM      5  C   LIG    1       17.583   3.049  51.754  0.00  0.00    +0.113 C 
ATOM      6  S   LIG    1       16.326   2.049  52.152  0.00  0.00    -0.028 S 
ATOM      7  N   LIG    1       18.844   2.606  51.515  0.00  0.00    -0.274 N 
ATOM      8  H   LIG    1       19.075   1.625  51.571  0.00  0.00    +0.156 HD
ENDROOT
TORSDOF 0
ENDMDL
MODEL 7
REMARK VINA RESULT:      -1.4      2.609      3.088
REMARK  Name = 
REMARK                            x       y       z     vdW  Elec       q    Type
REMARK                         _______ _______ _______ _____ _____    ______ ____
ROOT
ATOM      1  O   LIG    1       17.421   5.018  51.631  0.00  0.00    -0.275 OA
ATOM      2  C   LIG    1       16.896   3.986  52.028  0.00  0.00    +0.228 C 
ATOM      3  C   LIG    1       17.646   2.741  52.424  0.00  0.00    +0.172 C 
ATOM      4  S   LIG    1       16.376   1.545  52.928  0.00  0.00    -0.093 S 
ATOM      5  C   LIG    1       15.065   2.649  52.613  0.00  0.00    +0.113 C 
ATOM      6  S   LIG    1       13.453   2.338  52.820  0.00  0.00    -0.028 S 
ATOM      7  N   LIG    1       15.546   3.835  52.162  0.00  0.00    -0.274 N 
ATOM      8  H   LIG    1       14.927   4.598  51.929  0.00  0.00    +0.156 HD
ENDROOT
TORSDOF 0
ENDMDL
MODEL 8
REMARK VINA RESULT:      -1.4      2.858      3.412
REMARK  Name = 
REMARK                            x       y       z     vdW  Elec       q    Type
REMARK                         _______ _______ _______ _____ _____    ______ ____
ROOT
ATOM      1  O   LIG    1       20.023   1.502  53.394  0.00  0.00    -0.275 OA
ATOM      2  C   LIG    1       19.056   2.108  52.954  0.00  0.00    +0.228 C 
ATOM      3  C   LIG    1       19.070   3.555  52.536  0.00  0.00    +0.172 C 
ATOM      4  S   LIG    1       17.383   3.915  51.967  0.00  0.00    -0.093 S 
ATOM      5  C   LIG    1       16.819   2.298  52.287  0.00  0.00    +0.113 C 
ATOM      6  S   LIG    1       15.286   1.729  52.035  0.00  0.00    -0.028 S 
ATOM      7  N   LIG    1       17.827   1.537  52.785  0.00  0.00    -0.274 N 
ATOM      8  H   LIG    1       17.683   0.568  53.028  0.00  0.00    +0.156 HD
ENDROOT
TORSDOF 0
ENDMDL
MODEL 9
REMARK VINA RESULT:      -1.3      3.928      4.608
REMARK  Name = 
REMARK                            x       y       z     vdW  Elec       q    Type
REMARK                         _______ _______ _______ _____ _____    ______ ____
ROOT
ATOM      1  O   LIG    1       15.824   1.769  51.881  0.00  0.00    -0.275 OA
ATOM      2  C   LIG    1       16.520   2.773  51.945  0.00  0.00    +0.228 C 
ATOM      3  C   LIG    1       18.026   2.776  51.885  0.00  0.00    +0.172 C 
ATOM      4  S   LIG    1       18.517   4.519  52.020  0.00  0.00    -0.093 S 
ATOM      5  C   LIG    1       16.872   5.080  52.140  0.00  0.00    +0.113 C 
ATOM      6  S   LIG    1       16.384   6.653  52.302  0.00  0.00    -0.028 S 
ATOM      7  N   LIG    1       16.011   4.032  52.079  0.00  0.00    -0.274 N 
ATOM      8  H   LIG    1       15.012   4.170  52.132  0.00  0.00    +0.156 HD
ENDROOT
TORSDOF 0
ENDMDL
