MODEL 1
REMARK VINA RESULT:      -4.0      0.000      0.000
REMARK  Name = 
REMARK                            x       y       z     vdW  Elec       q    Type
REMARK                         _______ _______ _______ _____ _____    ______ ____
ROOT
ATOM      1  O   LIG    1       10.483  20.870  23.830  0.00  0.00    -0.275 OA
ATOM      2  C   LIG    1        9.606  21.230  24.605  0.00  0.00    +0.228 C 
ATOM      3  C   LIG    1        9.380  22.655  25.039  0.00  0.00    +0.172 C 
ATOM      4  S   LIG    1        7.963  22.600  26.174  0.00  0.00    -0.093 S 
ATOM      5  C   LIG    1        7.778  20.874  26.024  0.00  0.00    +0.113 C 
ATOM      6  S   LIG    1        6.641  19.942  26.784  0.00  0.00    -0.028 S 
ATOM      7  N   LIG    1        8.714  20.372  25.178  0.00  0.00    -0.274 N 
ATOM      8  H   LIG    1        8.757  19.384  24.970  0.00  0.00    +0.156 HD
ENDROOT
TORSDOF 0
ENDMDL
MODEL 2
REMARK VINA RESULT:      -4.0      1.479      2.541
REMARK  Name = 
REMARK                            x       y       z     vdW  Elec       q    Type
REMARK                         _______ _______ _______ _____ _____    ______ ____
ROOT
ATOM      1  O   LIG    1       10.358  21.019  23.983  0.00  0.00    -0.275 OA
ATOM      2  C   LIG    1        9.499  21.496  24.712  0.00  0.00    +0.228 C 
ATOM      3  C   LIG    1        8.458  20.692  25.448  0.00  0.00    +0.172 C 
ATOM      4  S   LIG    1        7.465  21.904  26.366  0.00  0.00    -0.093 S 
ATOM      5  C   LIG    1        8.388  23.260  25.779  0.00  0.00    +0.113 C 
ATOM      6  S   LIG    1        8.132  24.852  26.150  0.00  0.00    -0.028 S 
ATOM      7  N   LIG    1        9.376  22.834  24.952  0.00  0.00    -0.274 N 
ATOM      8  H   LIG    1       10.014  23.485  24.517  0.00  0.00    +0.156 HD
ENDROOT
TORSDOF 0
ENDMDL
MODEL 3
REMARK VINA RESULT:      -3.9      3.409      4.350
REMARK  Name = 
REMARK                            x       y       z     vdW  Elec       q    Type
REMARK                         _______ _______ _______ _____ _____    ______ ____
ROOT
ATOM      1  O   LIG    1        7.914  20.261  30.206  0.00  0.00    -0.275 OA
ATOM      2  C   LIG    1        7.482  20.211  29.062  0.00  0.00    +0.228 C 
ATOM      3  C   LIG    1        6.113  19.707  28.685  0.00  0.00    +0.172 C 
ATOM      4  S   LIG    1        6.015  19.864  26.879  0.00  0.00    -0.093 S 
ATOM      5  C   LIG    1        7.625  20.515  26.745  0.00  0.00    +0.113 C 
ATOM      6  S   LIG    1        8.385  20.966  25.345  0.00  0.00    -0.028 S 
ATOM      7  N   LIG    1        8.198  20.611  27.972  0.00  0.00    -0.274 N 
ATOM      8  H   LIG    1        9.134  20.971  28.087  0.00  0.00    +0.156 HD
ENDROOT
TORSDOF 0
ENDMDL
MODEL 4
REMARK VINA RESULT:      -3.9      2.746      3.251
REMARK  Name = 
REMARK                            x       y       z     vdW  Elec       q    Type
REMARK                         _______ _______ _______ _____ _____    ______ ____
ROOT
ATOM      1  O   LIG    1        6.690  19.885  26.522  0.00  0.00    -0.275 OA
ATOM      2  C   LIG    1        7.439  20.758  26.104  0.00  0.00    +0.228 C 
ATOM      3  C   LIG    1        8.660  20.506  25.259  0.00  0.00    +0.172 C 
ATOM      4  S   LIG    1        9.375  22.143  24.934  0.00  0.00    -0.093 S 
ATOM      5  C   LIG    1        8.146  22.975  25.845  0.00  0.00    +0.113 C 
ATOM      6  S   LIG    1        8.038  24.610  26.078  0.00  0.00    -0.028 S 
ATOM      7  N   LIG    1        7.256  22.087  26.357  0.00  0.00    -0.274 N 
ATOM      8  H   LIG    1        6.471  22.392  26.914  0.00  0.00    +0.156 HD
ENDROOT
TORSDOF 0
ENDMDL
MODEL 5
REMARK VINA RESULT:      -3.8      2.457      3.175
REMARK  Name = 
REMARK                            x       y       z     vdW  Elec       q    Type
REMARK                         _______ _______ _______ _____ _____    ______ ____
ROOT
ATOM      1  O   LIG    1        6.576  19.518  26.921  0.00  0.00    -0.275 OA
ATOM      2  C   LIG    1        7.234  20.455  26.490  0.00  0.00    +0.228 C 
ATOM      3  C   LIG    1        7.000  21.901  26.845  0.00  0.00    +0.172 C 
ATOM      4  S   LIG    1        8.257  22.838  25.930  0.00  0.00    -0.093 S 
ATOM      5  C   LIG    1        8.942  21.410  25.204  0.00  0.00    +0.113 C 
ATOM      6  S   LIG    1       10.221  21.363  24.155  0.00  0.00    -0.028 S 
ATOM      7  N   LIG    1        8.276  20.303  25.621  0.00  0.00    -0.274 N 
ATOM      8  H   LIG    1        8.538  19.381  25.303  0.00  0.00    +0.156 HD
ENDROOT
TORSDOF 0
ENDMDL
MODEL 6
REMARK VINA RESULT:      -3.7      4.272      5.196
REMARK  Name = 
REMARK                            x       y       z     vdW  Elec       q    Type
REMARK                         _______ _______ _______ _____ _____    ______ ____
ROOT
ATOM      1  O   LIG    1        3.131  19.308  25.935  0.00  0.00    -0.275 OA
ATOM      2  C   LIG    1        3.941  19.747  26.740  0.00  0.00    +0.228 C 
ATOM      3  C   LIG    1        3.634  20.056  28.183  0.00  0.00    +0.172 C 
ATOM      4  S   LIG    1        5.189  20.667  28.893  0.00  0.00    -0.093 S 
ATOM      5  C   LIG    1        6.060  20.500  27.394  0.00  0.00    +0.113 C 
ATOM      6  S   LIG    1        7.654  20.866  27.142  0.00  0.00    -0.028 S 
ATOM      7  N   LIG    1        5.241  20.016  26.425  0.00  0.00    -0.274 N 
ATOM      8  H   LIG    1        5.578  19.853  25.487  0.00  0.00    +0.156 HD
ENDROOT
TORSDOF 0
ENDMDL
MODEL 7
REMARK VINA RESULT:      -3.6      3.616      4.044
REMARK  Name = 
REMARK                            x       y       z     vdW  Elec       q    Type
REMARK                         _______ _______ _______ _____ _____    ______ ____
ROOT
ATOM      1  O   LIG    1        7.864  21.134  26.937  0.00  0.00    -0.275 OA
ATOM      2  C   LIG    1        6.739  20.807  27.291  0.00  0.00    +0.228 C 
ATOM      3  C   LIG    1        6.173  21.038  28.668  0.00  0.00    +0.172 C 
ATOM      4  S   LIG    1        4.488  20.362  28.623  0.00  0.00    -0.093 S 
ATOM      5  C   LIG    1        4.622  19.862  26.959  0.00  0.00    +0.113 C 
ATOM      6  S   LIG    1        3.452  19.105  26.067  0.00  0.00    -0.028 S 
ATOM      7  N   LIG    1        5.847  20.182  26.468  0.00  0.00    -0.274 N 
ATOM      8  H   LIG    1        6.103  19.968  25.515  0.00  0.00    +0.156 HD
ENDROOT
TORSDOF 0
ENDMDL
MODEL 8
REMARK VINA RESULT:      -3.4      9.448     10.397
REMARK  Name = 
REMARK                            x       y       z     vdW  Elec       q    Type
REMARK                         _______ _______ _______ _____ _____    ______ ____
ROOT
ATOM      1  O   LIG    1       -0.087  18.505  33.338  0.00  0.00    -0.275 OA
ATOM      2  C   LIG    1        0.874  18.357  32.594  0.00  0.00    +0.228 C 
ATOM      3  C   LIG    1        1.761  17.140  32.573  0.00  0.00    +0.172 C 
ATOM      4  S   LIG    1        3.003  17.463  31.288  0.00  0.00    -0.093 S 
ATOM      5  C   LIG    1        2.344  19.028  30.899  0.00  0.00    +0.113 C 
ATOM      6  S   LIG    1        2.919  20.074  29.753  0.00  0.00    -0.028 S 
ATOM      7  N   LIG    1        1.264  19.291  31.678  0.00  0.00    -0.274 N 
ATOM      8  H   LIG    1        0.751  20.157  31.589  0.00  0.00    +0.156 HD
ENDROOT
TORSDOF 0
ENDMDL
MODEL 9
REMARK VINA RESULT:      -3.4     15.684     16.187
REMARK  Name = 
REMARK                            x       y       z     vdW  Elec       q    Type
REMARK                         _______ _______ _______ _____ _____    ______ ____
ROOT
ATOM      1  O   LIG    1       -5.033  25.829  26.816  0.00  0.00    -0.275 OA
ATOM      2  C   LIG    1       -5.510  26.087  27.912  0.00  0.00    +0.228 C 
ATOM      3  C   LIG    1       -5.667  25.093  29.033  0.00  0.00    +0.172 C 
ATOM      4  S   LIG    1       -6.417  26.018  30.405  0.00  0.00    -0.093 S 
ATOM      5  C   LIG    1       -6.475  27.508  29.504  0.00  0.00    +0.113 C 
ATOM      6  S   LIG    1       -7.059  28.958  30.048  0.00  0.00    -0.028 S 
ATOM      7  N   LIG    1       -5.965  27.327  28.259  0.00  0.00    -0.274 N 
ATOM      8  H   LIG    1       -5.917  28.087  27.596  0.00  0.00    +0.156 HD
ENDROOT
TORSDOF 0
ENDMDL
