MODEL 1
REMARK VINA RESULT:      -3.7      0.000      0.000
REMARK  Name = 
REMARK                            x       y       z     vdW  Elec       q    Type
REMARK                         _______ _______ _______ _____ _____    ______ ____
ROOT
ATOM      1  O   LIG    1       17.247   1.877  -1.506  0.00  0.00    -0.275 OA
ATOM      2  C   LIG    1       16.186   2.122  -2.064  0.00  0.00    +0.228 C 
ATOM      3  C   LIG    1       15.235   3.216  -1.653  0.00  0.00    +0.172 C 
ATOM      4  S   LIG    1       13.848   3.122  -2.822  0.00  0.00    -0.093 S 
ATOM      5  C   LIG    1       14.536   1.778  -3.690  0.00  0.00    +0.113 C 
ATOM      6  S   LIG    1       13.869   1.013  -4.998  0.00  0.00    -0.028 S 
ATOM      7  N   LIG    1       15.727   1.424  -3.143  0.00  0.00    -0.274 N 
ATOM      8  H   LIG    1       16.272   0.661  -3.520  0.00  0.00    +0.156 HD
ENDROOT
TORSDOF 0
ENDMDL
MODEL 2
REMARK VINA RESULT:      -3.6      2.771      3.320
REMARK  Name = 
REMARK                            x       y       z     vdW  Elec       q    Type
REMARK                         _______ _______ _______ _____ _____    ______ ____
ROOT
ATOM      1  O   LIG    1       14.975   3.671  -2.452  0.00  0.00    -0.275 OA
ATOM      2  C   LIG    1       13.984   3.137  -2.933  0.00  0.00    +0.228 C 
ATOM      3  C   LIG    1       14.004   1.861  -3.733  0.00  0.00    +0.172 C 
ATOM      4  S   LIG    1       12.274   1.541  -4.183  0.00  0.00    -0.093 S 
ATOM      5  C   LIG    1       11.691   2.969  -3.373  0.00  0.00    +0.113 C 
ATOM      6  S   LIG    1       10.116   3.472  -3.288  0.00  0.00    -0.028 S 
ATOM      7  N   LIG    1       12.723   3.640  -2.801  0.00  0.00    -0.274 N 
ATOM      8  H   LIG    1       12.571   4.495  -2.286  0.00  0.00    +0.156 HD
ENDROOT
TORSDOF 0
ENDMDL
MODEL 3
REMARK VINA RESULT:      -3.6     12.984     13.347
REMARK  Name = 
REMARK                            x       y       z     vdW  Elec       q    Type
REMARK                         _______ _______ _______ _____ _____    ______ ____
ROOT
ATOM      1  O   LIG    1        4.019   9.651  -1.189  0.00  0.00    -0.275 OA
ATOM      2  C   LIG    1        3.555   8.586  -0.807  0.00  0.00    +0.228 C 
ATOM      3  C   LIG    1        2.219   8.428  -0.128  0.00  0.00    +0.172 C 
ATOM      4  S   LIG    1        2.048   6.652   0.207  0.00  0.00    -0.093 S 
ATOM      5  C   LIG    1        3.595   6.265  -0.495  0.00  0.00    +0.113 C 
ATOM      6  S   LIG    1        4.269   4.758  -0.609  0.00  0.00    -0.028 S 
ATOM      7  N   LIG    1        4.199   7.392  -0.953  0.00  0.00    -0.274 N 
ATOM      8  H   LIG    1        5.107   7.358  -1.394  0.00  0.00    +0.156 HD
ENDROOT
TORSDOF 0
ENDMDL
MODEL 4
REMARK VINA RESULT:      -3.6     13.200     13.543
REMARK  Name = 
REMARK                            x       y       z     vdW  Elec       q    Type
REMARK                         _______ _______ _______ _____ _____    ______ ____
ROOT
ATOM      1  O   LIG    1        1.198   6.927   0.873  0.00  0.00    -0.275 OA
ATOM      2  C   LIG    1        1.823   6.368  -0.019  0.00  0.00    +0.228 C 
ATOM      3  C   LIG    1        1.298   6.129  -1.411  0.00  0.00    +0.172 C 
ATOM      4  S   LIG    1        2.636   5.277  -2.296  0.00  0.00    -0.093 S 
ATOM      5  C   LIG    1        3.695   5.284  -0.914  0.00  0.00    +0.113 C 
ATOM      6  S   LIG    1        5.227   4.659  -0.851  0.00  0.00    -0.028 S 
ATOM      7  N   LIG    1        3.090   5.887   0.141  0.00  0.00    -0.274 N 
ATOM      8  H   LIG    1        3.558   5.984   1.031  0.00  0.00    +0.156 HD
ENDROOT
TORSDOF 0
ENDMDL
MODEL 5
REMARK VINA RESULT:      -3.6      2.869      3.521
REMARK  Name = 
REMARK                            x       y       z     vdW  Elec       q    Type
REMARK                         _______ _______ _______ _____ _____    ______ ____
ROOT
ATOM      1  O   LIG    1       11.735   1.910  -1.656  0.00  0.00    -0.275 OA
ATOM      2  C   LIG    1       12.823   1.967  -2.213  0.00  0.00    +0.228 C 
ATOM      3  C   LIG    1       13.039   1.773  -3.691  0.00  0.00    +0.172 C 
ATOM      4  S   LIG    1       14.825   1.969  -3.953  0.00  0.00    -0.093 S 
ATOM      5  C   LIG    1       15.145   2.260  -2.265  0.00  0.00    +0.113 C 
ATOM      6  S   LIG    1       16.626   2.553  -1.586  0.00  0.00    -0.028 S 
ATOM      7  N   LIG    1       13.991   2.217  -1.553  0.00  0.00    -0.274 N 
ATOM      8  H   LIG    1       13.985   2.366  -0.554  0.00  0.00    +0.156 HD
ENDROOT
TORSDOF 0
ENDMDL
MODEL 6
REMARK VINA RESULT:      -3.5     13.422     13.637
REMARK  Name = 
REMARK                            x       y       z     vdW  Elec       q    Type
REMARK                         _______ _______ _______ _____ _____    ______ ____
ROOT
ATOM      1  O   LIG    1        2.706   7.023   0.947  0.00  0.00    -0.275 OA
ATOM      2  C   LIG    1        3.104   7.589  -0.062  0.00  0.00    +0.228 C 
ATOM      3  C   LIG    1        2.795   7.147  -1.469  0.00  0.00    +0.172 C 
ATOM      4  S   LIG    1        3.630   8.344  -2.550  0.00  0.00    -0.093 S 
ATOM      5  C   LIG    1        4.274   9.258  -1.214  0.00  0.00    +0.113 C 
ATOM      6  S   LIG    1        5.222  10.611  -1.320  0.00  0.00    -0.028 S 
ATOM      7  N   LIG    1        3.887   8.706  -0.036  0.00  0.00    -0.274 N 
ATOM      8  H   LIG    1        4.167   9.107   0.848  0.00  0.00    +0.156 HD
ENDROOT
TORSDOF 0
ENDMDL
MODEL 7
REMARK VINA RESULT:      -3.5     13.164     13.429
REMARK  Name = 
REMARK                            x       y       z     vdW  Elec       q    Type
REMARK                         _______ _______ _______ _____ _____    ______ ____
ROOT
ATOM      1  O   LIG    1        5.374  10.729  -1.219  0.00  0.00    -0.275 OA
ATOM      2  C   LIG    1        4.688   9.727  -1.365  0.00  0.00    +0.228 C 
ATOM      3  C   LIG    1        4.380   9.085  -2.693  0.00  0.00    +0.172 C 
ATOM      4  S   LIG    1        3.338   7.648  -2.311  0.00  0.00    -0.093 S 
ATOM      5  C   LIG    1        3.367   7.953  -0.596  0.00  0.00    +0.113 C 
ATOM      6  S   LIG    1        2.614   7.053   0.571  0.00  0.00    -0.028 S 
ATOM      7  N   LIG    1        4.110   9.057  -0.326  0.00  0.00    -0.274 N 
ATOM      8  H   LIG    1        4.238   9.384   0.621  0.00  0.00    +0.156 HD
ENDROOT
TORSDOF 0
ENDMDL
MODEL 8
REMARK VINA RESULT:      -3.5      3.899      4.550
REMARK  Name = 
REMARK                            x       y       z     vdW  Elec       q    Type
REMARK                         _______ _______ _______ _____ _____    ______ ____
ROOT
ATOM      1  O   LIG    1       10.122   3.997  -2.935  0.00  0.00    -0.275 OA
ATOM      2  C   LIG    1       11.105   3.316  -3.194  0.00  0.00    +0.228 C 
ATOM      3  C   LIG    1       11.068   2.010  -3.944  0.00  0.00    +0.172 C 
ATOM      4  S   LIG    1       12.793   1.452  -4.039  0.00  0.00    -0.093 S 
ATOM      5  C   LIG    1       13.396   2.834  -3.167  0.00  0.00    +0.113 C 
ATOM      6  S   LIG    1       14.978   3.136  -2.785  0.00  0.00    -0.028 S 
ATOM      7  N   LIG    1       12.374   3.661  -2.829  0.00  0.00    -0.274 N 
ATOM      8  H   LIG    1       12.538   4.516  -2.319  0.00  0.00    +0.156 HD
ENDROOT
TORSDOF 0
ENDMDL
MODEL 9
REMARK VINA RESULT:      -3.5     14.036     14.340
REMARK  Name = 
REMARK                            x       y       z     vdW  Elec       q    Type
REMARK                         _______ _______ _______ _____ _____    ______ ____
ROOT
ATOM      1  O   LIG    1        2.784   7.513   1.243  0.00  0.00    -0.275 OA
ATOM      2  C   LIG    1        2.486   6.864   0.249  0.00  0.00    +0.228 C 
ATOM      3  C   LIG    1        3.479   6.239  -0.695  0.00  0.00    +0.172 C 
ATOM      4  S   LIG    1        2.487   5.408  -1.968  0.00  0.00    -0.093 S 
ATOM      5  C   LIG    1        0.974   5.891  -1.251  0.00  0.00    +0.113 C 
ATOM      6  S   LIG    1       -0.538   5.530  -1.820  0.00  0.00    -0.028 S 
ATOM      7  N   LIG    1        1.197   6.625  -0.131  0.00  0.00    -0.274 N 
ATOM      8  H   LIG    1        0.432   6.989   0.418  0.00  0.00    +0.156 HD
ENDROOT
TORSDOF 0
ENDMDL
