MODEL 1
REMARK VINA RESULT:      -4.2      0.000      0.000
REMARK  Name = 
REMARK                            x       y       z     vdW  Elec       q    Type
REMARK                         _______ _______ _______ _____ _____    ______ ____
ROOT
ATOM      1  O   LIG    1        3.257  20.976   6.517  0.00  0.00    -0.275 OA
ATOM      2  C   LIG    1        3.010  21.217   7.691  0.00  0.00    +0.228 C 
ATOM      3  C   LIG    1        1.869  20.613   8.468  0.00  0.00    +0.172 C 
ATOM      4  S   LIG    1        1.988  21.318  10.137  0.00  0.00    -0.093 S 
ATOM      5  C   LIG    1        3.390  22.274   9.746  0.00  0.00    +0.113 C 
ATOM      6  S   LIG    1        4.202  23.288  10.772  0.00  0.00    -0.028 S 
ATOM      7  N   LIG    1        3.749  22.076   8.451  0.00  0.00    -0.274 N 
ATOM      8  H   LIG    1        4.545  22.550   8.049  0.00  0.00    +0.156 HD
ENDROOT
TORSDOF 0
ENDMDL
MODEL 2
REMARK VINA RESULT:      -4.0      7.371      7.805
REMARK  Name = 
REMARK                            x       y       z     vdW  Elec       q    Type
REMARK                         _______ _______ _______ _____ _____    ______ ____
ROOT
ATOM      1  O   LIG    1        3.862  26.166   5.204  0.00  0.00    -0.275 OA
ATOM      2  C   LIG    1        3.577  27.338   5.410  0.00  0.00    +0.228 C 
ATOM      3  C   LIG    1        4.558  28.480   5.359  0.00  0.00    +0.172 C 
ATOM      4  S   LIG    1        3.592  29.971   5.736  0.00  0.00    -0.093 S 
ATOM      5  C   LIG    1        2.104  29.085   5.923  0.00  0.00    +0.113 C 
ATOM      6  S   LIG    1        0.624  29.725   6.298  0.00  0.00    -0.028 S 
ATOM      7  N   LIG    1        2.315  27.760   5.714  0.00  0.00    -0.274 N 
ATOM      8  H   LIG    1        1.560  27.092   5.779  0.00  0.00    +0.156 HD
ENDROOT
TORSDOF 0
ENDMDL
MODEL 3
REMARK VINA RESULT:      -4.0      3.730      4.510
REMARK  Name = 
REMARK                            x       y       z     vdW  Elec       q    Type
REMARK                         _______ _______ _______ _____ _____    ______ ____
ROOT
ATOM      1  O   LIG    1        5.406  21.863  13.606  0.00  0.00    -0.275 OA
ATOM      2  C   LIG    1        4.998  22.050  12.467  0.00  0.00    +0.228 C 
ATOM      3  C   LIG    1        4.393  23.340  11.976  0.00  0.00    +0.172 C 
ATOM      4  S   LIG    1        3.978  23.051  10.232  0.00  0.00    -0.093 S 
ATOM      5  C   LIG    1        4.565  21.411  10.257  0.00  0.00    +0.113 C 
ATOM      6  S   LIG    1        4.560  20.351   8.986  0.00  0.00    -0.028 S 
ATOM      7  N   LIG    1        5.043  21.100  11.489  0.00  0.00    -0.274 N 
ATOM      8  H   LIG    1        5.426  20.187  11.688  0.00  0.00    +0.156 HD
ENDROOT
TORSDOF 0
ENDMDL
MODEL 4
REMARK VINA RESULT:      -4.0      3.732      4.110
REMARK  Name = 
REMARK                            x       y       z     vdW  Elec       q    Type
REMARK                         _______ _______ _______ _____ _____    ______ ____
ROOT
ATOM      1  O   LIG    1        5.310  21.009  12.269  0.00  0.00    -0.275 OA
ATOM      2  C   LIG    1        5.011  20.859  11.092  0.00  0.00    +0.228 C 
ATOM      3  C   LIG    1        3.833  21.513  10.417  0.00  0.00    +0.172 C 
ATOM      4  S   LIG    1        3.879  20.942   8.694  0.00  0.00    -0.093 S 
ATOM      5  C   LIG    1        5.302  19.969   8.946  0.00  0.00    +0.113 C 
ATOM      6  S   LIG    1        6.070  19.045   7.807  0.00  0.00    -0.028 S 
ATOM      7  N   LIG    1        5.718  20.067  10.234  0.00  0.00    -0.274 N 
ATOM      8  H   LIG    1        6.534  19.570  10.562  0.00  0.00    +0.156 HD
ENDROOT
TORSDOF 0
ENDMDL
MODEL 5
REMARK VINA RESULT:      -3.9      2.662      3.362
REMARK  Name = 
REMARK                            x       y       z     vdW  Elec       q    Type
REMARK                         _______ _______ _______ _____ _____    ______ ____
ROOT
ATOM      1  O   LIG    1        5.669  20.763  11.199  0.00  0.00    -0.275 OA
ATOM      2  C   LIG    1        4.628  20.960  10.586  0.00  0.00    +0.228 C 
ATOM      3  C   LIG    1        3.405  21.623  11.165  0.00  0.00    +0.172 C 
ATOM      4  S   LIG    1        2.184  21.652   9.822  0.00  0.00    -0.093 S 
ATOM      5  C   LIG    1        3.252  20.865   8.694  0.00  0.00    +0.113 C 
ATOM      6  S   LIG    1        2.903  20.478   7.123  0.00  0.00    -0.028 S 
ATOM      7  N   LIG    1        4.446  20.599   9.282  0.00  0.00    -0.274 N 
ATOM      8  H   LIG    1        5.191  20.144   8.775  0.00  0.00    +0.156 HD
ENDROOT
TORSDOF 0
ENDMDL
MODEL 6
REMARK VINA RESULT:      -3.9      2.560      2.960
REMARK  Name = 
REMARK                            x       y       z     vdW  Elec       q    Type
REMARK                         _______ _______ _______ _____ _____    ______ ____
ROOT
ATOM      1  O   LIG    1        5.289  19.552   9.365  0.00  0.00    -0.275 OA
ATOM      2  C   LIG    1        4.923  20.579   9.922  0.00  0.00    +0.228 C 
ATOM      3  C   LIG    1        4.116  21.668   9.264  0.00  0.00    +0.172 C 
ATOM      4  S   LIG    1        3.863  22.929  10.545  0.00  0.00    -0.093 S 
ATOM      5  C   LIG    1        4.752  22.035  11.747  0.00  0.00    +0.113 C 
ATOM      6  S   LIG    1        5.026  22.503  13.311  0.00  0.00    -0.028 S 
ATOM      7  N   LIG    1        5.206  20.867  11.225  0.00  0.00    -0.274 N 
ATOM      8  H   LIG    1        5.743  20.218  11.781  0.00  0.00    +0.156 HD
ENDROOT
TORSDOF 0
ENDMDL
MODEL 7
REMARK VINA RESULT:      -3.8      7.619      7.860
REMARK  Name = 
REMARK                            x       y       z     vdW  Elec       q    Type
REMARK                         _______ _______ _______ _____ _____    ______ ____
ROOT
ATOM      1  O   LIG    1        3.912  26.139   5.236  0.00  0.00    -0.275 OA
ATOM      2  C   LIG    1        3.400  27.250   5.270  0.00  0.00    +0.228 C 
ATOM      3  C   LIG    1        1.927  27.509   5.452  0.00  0.00    +0.172 C 
ATOM      4  S   LIG    1        1.743  29.316   5.428  0.00  0.00    -0.093 S 
ATOM      5  C   LIG    1        3.448  29.590   5.198  0.00  0.00    +0.113 C 
ATOM      6  S   LIG    1        4.192  31.062   5.060  0.00  0.00    -0.028 S 
ATOM      7  N   LIG    1        4.112  28.408   5.145  0.00  0.00    -0.274 N 
ATOM      8  H   LIG    1        5.114  28.374   5.017  0.00  0.00    +0.156 HD
ENDROOT
TORSDOF 0
ENDMDL
MODEL 8
REMARK VINA RESULT:      -3.8      3.423      4.081
REMARK  Name = 
REMARK                            x       y       z     vdW  Elec       q    Type
REMARK                         _______ _______ _______ _____ _____    ______ ____
ROOT
ATOM      1  O   LIG    1        5.207  21.444  13.038  0.00  0.00    -0.275 OA
ATOM      2  C   LIG    1        4.793  21.233  11.906  0.00  0.00    +0.228 C 
ATOM      3  C   LIG    1        5.617  20.651  10.788  0.00  0.00    +0.172 C 
ATOM      4  S   LIG    1        4.503  20.559   9.357  0.00  0.00    -0.093 S 
ATOM      5  C   LIG    1        3.155  21.231  10.232  0.00  0.00    +0.113 C 
ATOM      6  S   LIG    1        1.639  21.511   9.631  0.00  0.00    -0.028 S 
ATOM      7  N   LIG    1        3.514  21.504  11.513  0.00  0.00    -0.274 N 
ATOM      8  H   LIG    1        2.856  21.898  12.170  0.00  0.00    +0.156 HD
ENDROOT
TORSDOF 0
ENDMDL
MODEL 9
REMARK VINA RESULT:      -3.8      9.349      9.611
REMARK  Name = 
REMARK                            x       y       z     vdW  Elec       q    Type
REMARK                         _______ _______ _______ _____ _____    ______ ____
ROOT
ATOM      1  O   LIG    1        0.458  27.413   5.512  0.00  0.00    -0.275 OA
ATOM      2  C   LIG    1        0.804  28.519   5.119  0.00  0.00    +0.228 C 
ATOM      3  C   LIG    1        2.155  28.835   4.532  0.00  0.00    +0.172 C 
ATOM      4  S   LIG    1        2.108  30.604   4.126  0.00  0.00    -0.093 S 
ATOM      5  C   LIG    1        0.476  30.799   4.701  0.00  0.00    +0.113 C 
ATOM      6  S   LIG    1       -0.401  32.203   4.700  0.00  0.00    -0.028 S 
ATOM      7  N   LIG    1       -0.005  29.617   5.165  0.00  0.00    -0.274 N 
ATOM      8  H   LIG    1       -0.941  29.541   5.537  0.00  0.00    +0.156 HD
ENDROOT
TORSDOF 0
ENDMDL
