MODEL 1
REMARK VINA RESULT:      -4.0      0.000      0.000
REMARK  Name = 
REMARK                            x       y       z     vdW  Elec       q    Type
REMARK                         _______ _______ _______ _____ _____    ______ ____
ROOT
ATOM      1  O   LIG    1       26.968 -15.896 -13.983  0.00  0.00    -0.275 OA
ATOM      2  C   LIG    1       26.795 -15.982 -12.775  0.00  0.00    +0.228 C 
ATOM      3  C   LIG    1       25.595 -15.442 -12.042  0.00  0.00    +0.172 C 
ATOM      4  S   LIG    1       25.866 -15.851 -10.294  0.00  0.00    -0.093 S 
ATOM      5  C   LIG    1       27.394 -16.627 -10.605  0.00  0.00    +0.113 C 
ATOM      6  S   LIG    1       28.384 -17.327  -9.479  0.00  0.00    -0.028 S 
ATOM      7  N   LIG    1       27.682 -16.585 -11.931  0.00  0.00    -0.274 N 
ATOM      8  H   LIG    1       28.532 -16.989 -12.297  0.00  0.00    +0.156 HD
ENDROOT
TORSDOF 0
ENDMDL
MODEL 2
REMARK VINA RESULT:      -3.9      2.519      3.118
REMARK  Name = 
REMARK                            x       y       z     vdW  Elec       q    Type
REMARK                         _______ _______ _______ _____ _____    ______ ____
ROOT
ATOM      1  O   LIG    1       28.535 -17.634  -9.561  0.00  0.00    -0.275 OA
ATOM      2  C   LIG    1       27.789 -17.007 -10.302  0.00  0.00    +0.228 C 
ATOM      3  C   LIG    1       26.428 -16.493  -9.911  0.00  0.00    +0.172 C 
ATOM      4  S   LIG    1       25.784 -15.647 -11.383  0.00  0.00    -0.093 S 
ATOM      5  C   LIG    1       27.205 -15.993 -12.330  0.00  0.00    +0.113 C 
ATOM      6  S   LIG    1       27.464 -15.550 -13.904  0.00  0.00    -0.028 S 
ATOM      7  N   LIG    1       28.104 -16.693 -11.592  0.00  0.00    -0.274 N 
ATOM      8  H   LIG    1       28.991 -16.980 -11.980  0.00  0.00    +0.156 HD
ENDROOT
TORSDOF 0
ENDMDL
MODEL 3
REMARK VINA RESULT:      -3.7      2.456      2.861
REMARK  Name = 
REMARK                            x       y       z     vdW  Elec       q    Type
REMARK                         _______ _______ _______ _____ _____    ______ ____
ROOT
ATOM      1  O   LIG    1       25.554 -17.889 -10.962  0.00  0.00    -0.275 OA
ATOM      2  C   LIG    1       26.622 -17.462 -10.542  0.00  0.00    +0.228 C 
ATOM      3  C   LIG    1       26.924 -17.189  -9.091  0.00  0.00    +0.172 C 
ATOM      4  S   LIG    1       28.635 -16.583  -9.055  0.00  0.00    -0.093 S 
ATOM      5  C   LIG    1       28.826 -16.710 -10.781  0.00  0.00    +0.113 C 
ATOM      6  S   LIG    1       30.185 -16.329 -11.646  0.00  0.00    -0.028 S 
ATOM      7  N   LIG    1       27.685 -17.179 -11.349  0.00  0.00    -0.274 N 
ATOM      8  H   LIG    1       27.614 -17.319 -12.346  0.00  0.00    +0.156 HD
ENDROOT
TORSDOF 0
ENDMDL
MODEL 4
REMARK VINA RESULT:      -3.7     14.036     14.489
REMARK  Name = 
REMARK                            x       y       z     vdW  Elec       q    Type
REMARK                         _______ _______ _______ _____ _____    ______ ____
ROOT
ATOM      1  O   LIG    1       25.234 -32.435  -9.507  0.00  0.00    -0.275 OA
ATOM      2  C   LIG    1       25.142 -31.225  -9.665  0.00  0.00    +0.228 C 
ATOM      3  C   LIG    1       26.308 -30.302  -9.910  0.00  0.00    +0.172 C 
ATOM      4  S   LIG    1       25.591 -28.642 -10.071  0.00  0.00    -0.093 S 
ATOM      5  C   LIG    1       23.963 -29.209  -9.826  0.00  0.00    +0.113 C 
ATOM      6  S   LIG    1       22.594 -28.278  -9.816  0.00  0.00    -0.028 S 
ATOM      7  N   LIG    1       23.955 -30.553  -9.638  0.00  0.00    -0.274 N 
ATOM      8  H   LIG    1       23.093 -31.056  -9.481  0.00  0.00    +0.156 HD
ENDROOT
TORSDOF 0
ENDMDL
MODEL 5
REMARK VINA RESULT:      -3.6      8.362      8.681
REMARK  Name = 
REMARK                            x       y       z     vdW  Elec       q    Type
REMARK                         _______ _______ _______ _____ _____    ______ ____
ROOT
ATOM      1  O   LIG    1       25.309 -22.093 -13.057  0.00  0.00    -0.275 OA
ATOM      2  C   LIG    1       25.329 -23.210 -12.559  0.00  0.00    +0.228 C 
ATOM      3  C   LIG    1       26.563 -23.883 -12.016  0.00  0.00    +0.172 C 
ATOM      4  S   LIG    1       26.008 -25.501 -11.405  0.00  0.00    -0.093 S 
ATOM      5  C   LIG    1       24.351 -25.220 -11.862  0.00  0.00    +0.113 C 
ATOM      6  S   LIG    1       23.086 -26.267 -11.650  0.00  0.00    -0.028 S 
ATOM      7  N   LIG    1       24.220 -23.995 -12.432  0.00  0.00    -0.274 N 
ATOM      8  H   LIG    1       23.325 -23.661 -12.757  0.00  0.00    +0.156 HD
ENDROOT
TORSDOF 0
ENDMDL
MODEL 6
REMARK VINA RESULT:      -3.6      2.303      2.537
REMARK  Name = 
REMARK                            x       y       z     vdW  Elec       q    Type
REMARK                         _______ _______ _______ _____ _____    ______ ____
ROOT
ATOM      1  O   LIG    1       30.647 -16.410 -12.072  0.00  0.00    -0.275 OA
ATOM      2  C   LIG    1       29.431 -16.411 -11.932  0.00  0.00    +0.228 C 
ATOM      3  C   LIG    1       28.455 -15.841 -12.928  0.00  0.00    +0.172 C 
ATOM      4  S   LIG    1       26.809 -16.118 -12.212  0.00  0.00    -0.093 S 
ATOM      5  C   LIG    1       27.447 -16.887 -10.784  0.00  0.00    +0.113 C 
ATOM      6  S   LIG    1       26.564 -17.486  -9.518  0.00  0.00    -0.028 S 
ATOM      7  N   LIG    1       28.802 -16.936 -10.841  0.00  0.00    -0.274 N 
ATOM      8  H   LIG    1       29.344 -17.350 -10.096  0.00  0.00    +0.156 HD
ENDROOT
TORSDOF 0
ENDMDL
MODEL 7
REMARK VINA RESULT:      -3.6     14.524     14.842
REMARK  Name = 
REMARK                            x       y       z     vdW  Elec       q    Type
REMARK                         _______ _______ _______ _____ _____    ______ ____
ROOT
ATOM      1  O   LIG    1       25.017 -32.339  -9.362  0.00  0.00    -0.275 OA
ATOM      2  C   LIG    1       24.497 -31.480 -10.060  0.00  0.00    +0.228 C 
ATOM      3  C   LIG    1       23.010 -31.299 -10.229  0.00  0.00    +0.172 C 
ATOM      4  S   LIG    1       22.816 -29.890 -11.358  0.00  0.00    -0.093 S 
ATOM      5  C   LIG    1       24.534 -29.653 -11.524  0.00  0.00    +0.113 C 
ATOM      6  S   LIG    1       25.278 -28.494 -12.442  0.00  0.00    -0.028 S 
ATOM      7  N   LIG    1       25.209 -30.567 -10.781  0.00  0.00    -0.274 N 
ATOM      8  H   LIG    1       26.219 -30.579 -10.755  0.00  0.00    +0.156 HD
ENDROOT
TORSDOF 0
ENDMDL
MODEL 8
REMARK VINA RESULT:      -3.4      2.623      3.240
REMARK  Name = 
REMARK                            x       y       z     vdW  Elec       q    Type
REMARK                         _______ _______ _______ _____ _____    ______ ____
ROOT
ATOM      1  O   LIG    1       24.832 -15.754  -9.709  0.00  0.00    -0.275 OA
ATOM      2  C   LIG    1       25.886 -16.009 -10.276  0.00  0.00    +0.228 C 
ATOM      3  C   LIG    1       27.077 -16.656  -9.618  0.00  0.00    +0.172 C 
ATOM      4  S   LIG    1       28.337 -16.795 -10.919  0.00  0.00    -0.093 S 
ATOM      5  C   LIG    1       27.319 -16.062 -12.127  0.00  0.00    +0.113 C 
ATOM      6  S   LIG    1       27.721 -15.785 -13.709  0.00  0.00    -0.028 S 
ATOM      7  N   LIG    1       26.114 -15.737 -11.594  0.00  0.00    -0.274 N 
ATOM      8  H   LIG    1       25.393 -15.302 -12.152  0.00  0.00    +0.156 HD
ENDROOT
TORSDOF 0
ENDMDL
MODEL 9
REMARK VINA RESULT:      -3.4     13.913     14.330
REMARK  Name = 
REMARK                            x       y       z     vdW  Elec       q    Type
REMARK                         _______ _______ _______ _____ _____    ______ ____
ROOT
ATOM      1  O   LIG    1       26.733 -30.015  -9.282  0.00  0.00    -0.275 OA
ATOM      2  C   LIG    1       25.547 -30.139  -9.559  0.00  0.00    +0.228 C 
ATOM      3  C   LIG    1       24.863 -31.455  -9.824  0.00  0.00    +0.172 C 
ATOM      4  S   LIG    1       23.130 -31.043 -10.174  0.00  0.00    -0.093 S 
ATOM      5  C   LIG    1       23.389 -29.332  -9.973  0.00  0.00    +0.113 C 
ATOM      6  S   LIG    1       22.246 -28.144 -10.128  0.00  0.00    -0.028 S 
ATOM      7  N   LIG    1       24.687 -29.085  -9.662  0.00  0.00    -0.274 N 
ATOM      8  H   LIG    1       25.020 -28.144  -9.507  0.00  0.00    +0.156 HD
ENDROOT
TORSDOF 0
ENDMDL
