MODEL 1
REMARK VINA RESULT:      -3.8      0.000      0.000
REMARK  Name = 
REMARK                            x       y       z     vdW  Elec       q    Type
REMARK                         _______ _______ _______ _____ _____    ______ ____
ROOT
ATOM      1  O   LIG    1       23.018  51.882  12.465  0.00  0.00    -0.275 OA
ATOM      2  C   LIG    1       22.471  50.847  12.821  0.00  0.00    +0.228 C 
ATOM      3  C   LIG    1       22.868  49.467  12.365  0.00  0.00    +0.172 C 
ATOM      4  S   LIG    1       21.730  48.329  13.205  0.00  0.00    -0.093 S 
ATOM      5  C   LIG    1       20.882  49.614  14.020  0.00  0.00    +0.113 C 
ATOM      6  S   LIG    1       19.605  49.440  15.059  0.00  0.00    -0.028 S 
ATOM      7  N   LIG    1       21.417  50.817  13.688  0.00  0.00    -0.274 N 
ATOM      8  H   LIG    1       21.052  51.677  14.070  0.00  0.00    +0.156 HD
ENDROOT
TORSDOF 0
ENDMDL
MODEL 2
REMARK VINA RESULT:      -3.7      1.626      1.626
REMARK  Name = 
REMARK                            x       y       z     vdW  Elec       q    Type
REMARK                         _______ _______ _______ _____ _____    ______ ____
ROOT
ATOM      1  O   LIG    1       23.486  50.609  13.190  0.00  0.00    -0.275 OA
ATOM      2  C   LIG    1       22.720  49.766  13.638  0.00  0.00    +0.228 C 
ATOM      3  C   LIG    1       22.161  48.612  12.847  0.00  0.00    +0.172 C 
ATOM      4  S   LIG    1       21.102  47.696  14.004  0.00  0.00    -0.093 S 
ATOM      5  C   LIG    1       21.426  48.785  15.324  0.00  0.00    +0.113 C 
ATOM      6  S   LIG    1       20.813  48.674  16.858  0.00  0.00    -0.028 S 
ATOM      7  N   LIG    1       22.274  49.768  14.927  0.00  0.00    -0.274 N 
ATOM      8  H   LIG    1       22.575  50.491  15.565  0.00  0.00    +0.156 HD
ENDROOT
TORSDOF 0
ENDMDL
MODEL 3
REMARK VINA RESULT:      -3.6      5.627      6.560
REMARK  Name = 
REMARK                            x       y       z     vdW  Elec       q    Type
REMARK                         _______ _______ _______ _____ _____    ______ ____
ROOT
ATOM      1  O   LIG    1       16.656  51.195  18.553  0.00  0.00    -0.275 OA
ATOM      2  C   LIG    1       17.399  50.227  18.462  0.00  0.00    +0.228 C 
ATOM      3  C   LIG    1       17.092  48.856  19.006  0.00  0.00    +0.172 C 
ATOM      4  S   LIG    1       18.529  47.830  18.584  0.00  0.00    -0.093 S 
ATOM      5  C   LIG    1       19.364  49.140  17.798  0.00  0.00    +0.113 C 
ATOM      6  S   LIG    1       20.855  49.062  17.082  0.00  0.00    -0.028 S 
ATOM      7  N   LIG    1       18.617  50.272  17.846  0.00  0.00    -0.274 N 
ATOM      8  H   LIG    1       18.944  51.135  17.437  0.00  0.00    +0.156 HD
ENDROOT
TORSDOF 0
ENDMDL
MODEL 4
REMARK VINA RESULT:      -3.5      6.624      7.708
REMARK  Name = 
REMARK                            x       y       z     vdW  Elec       q    Type
REMARK                         _______ _______ _______ _____ _____    ______ ____
ROOT
ATOM      1  O   LIG    1       16.147  46.581  18.569  0.00  0.00    -0.275 OA
ATOM      2  C   LIG    1       16.609  47.713  18.622  0.00  0.00    +0.228 C 
ATOM      3  C   LIG    1       16.056  48.825  19.476  0.00  0.00    +0.172 C 
ATOM      4  S   LIG    1       17.127  50.258  19.163  0.00  0.00    -0.093 S 
ATOM      5  C   LIG    1       18.133  49.391  18.037  0.00  0.00    +0.113 C 
ATOM      6  S   LIG    1       19.441  50.000  17.223  0.00  0.00    -0.028 S 
ATOM      7  N   LIG    1       17.699  48.112  17.904  0.00  0.00    -0.274 N 
ATOM      8  H   LIG    1       18.166  47.460  17.291  0.00  0.00    +0.156 HD
ENDROOT
TORSDOF 0
ENDMDL
MODEL 5
REMARK VINA RESULT:      -3.5      2.544      3.332
REMARK  Name = 
REMARK                            x       y       z     vdW  Elec       q    Type
REMARK                         _______ _______ _______ _____ _____    ______ ____
ROOT
ATOM      1  O   LIG    1       19.509  49.990  16.008  0.00  0.00    -0.275 OA
ATOM      2  C   LIG    1       20.269  49.494  15.187  0.00  0.00    +0.228 C 
ATOM      3  C   LIG    1       20.176  48.078  14.681  0.00  0.00    +0.172 C 
ATOM      4  S   LIG    1       21.538  47.894  13.494  0.00  0.00    -0.093 S 
ATOM      5  C   LIG    1       22.093  49.530  13.719  0.00  0.00    +0.113 C 
ATOM      6  S   LIG    1       23.383  50.238  12.963  0.00  0.00    -0.028 S 
ATOM      7  N   LIG    1       21.309  50.173  14.622  0.00  0.00    -0.274 N 
ATOM      8  H   LIG    1       21.483  51.135  14.876  0.00  0.00    +0.156 HD
ENDROOT
TORSDOF 0
ENDMDL
MODEL 6
REMARK VINA RESULT:      -3.5      5.902      6.466
REMARK  Name = 
REMARK                            x       y       z     vdW  Elec       q    Type
REMARK                         _______ _______ _______ _____ _____    ______ ____
ROOT
ATOM      1  O   LIG    1       20.377  48.057  17.706  0.00  0.00    -0.275 OA
ATOM      2  C   LIG    1       19.307  48.617  17.903  0.00  0.00    +0.228 C 
ATOM      3  C   LIG    1       18.982  50.021  17.465  0.00  0.00    +0.172 C 
ATOM      4  S   LIG    1       17.277  50.321  18.014  0.00  0.00    -0.093 S 
ATOM      5  C   LIG    1       17.117  48.737  18.722  0.00  0.00    +0.113 C 
ATOM      6  S   LIG    1       15.779  48.141  19.493  0.00  0.00    -0.028 S 
ATOM      7  N   LIG    1       18.263  48.029  18.555  0.00  0.00    -0.274 N 
ATOM      8  H   LIG    1       18.351  47.084  18.902  0.00  0.00    +0.156 HD
ENDROOT
TORSDOF 0
ENDMDL
MODEL 7
REMARK VINA RESULT:      -3.4      7.593      8.120
REMARK  Name = 
REMARK                            x       y       z     vdW  Elec       q    Type
REMARK                         _______ _______ _______ _____ _____    ______ ____
ROOT
ATOM      1  O   LIG    1       14.930  48.401  20.088  0.00  0.00    -0.275 OA
ATOM      2  C   LIG    1       15.944  48.266  19.416  0.00  0.00    +0.228 C 
ATOM      3  C   LIG    1       17.243  48.987  19.672  0.00  0.00    +0.172 C 
ATOM      4  S   LIG    1       18.385  48.404  18.386  0.00  0.00    -0.093 S 
ATOM      5  C   LIG    1       17.199  47.355  17.662  0.00  0.00    +0.113 C 
ATOM      6  S   LIG    1       17.427  46.385  16.340  0.00  0.00    -0.028 S 
ATOM      7  N   LIG    1       16.025  47.433  18.339  0.00  0.00    -0.274 N 
ATOM      8  H   LIG    1       15.221  46.889  18.059  0.00  0.00    +0.156 HD
ENDROOT
TORSDOF 0
ENDMDL
MODEL 8
REMARK VINA RESULT:      -3.4     14.837     15.040
REMARK  Name = 
REMARK                            x       y       z     vdW  Elec       q    Type
REMARK                         _______ _______ _______ _____ _____    ______ ____
ROOT
ATOM      1  O   LIG    1       22.593  36.421  19.584  0.00  0.00    -0.275 OA
ATOM      2  C   LIG    1       23.742  36.501  19.170  0.00  0.00    +0.228 C 
ATOM      3  C   LIG    1       24.282  35.735  17.990  0.00  0.00    +0.172 C 
ATOM      4  S   LIG    1       26.017  36.244  17.830  0.00  0.00    -0.093 S 
ATOM      5  C   LIG    1       25.934  37.324  19.195  0.00  0.00    +0.113 C 
ATOM      6  S   LIG    1       27.169  38.255  19.783  0.00  0.00    -0.028 S 
ATOM      7  N   LIG    1       24.688  37.307  19.733  0.00  0.00    -0.274 N 
ATOM      8  H   LIG    1       24.455  37.876  20.535  0.00  0.00    +0.156 HD
ENDROOT
TORSDOF 0
ENDMDL
MODEL 9
REMARK VINA RESULT:      -3.2      6.328      7.292
REMARK  Name = 
REMARK                            x       y       z     vdW  Elec       q    Type
REMARK                         _______ _______ _______ _____ _____    ______ ____
ROOT
ATOM      1  O   LIG    1       15.855  46.976  18.918  0.00  0.00    -0.275 OA
ATOM      2  C   LIG    1       16.454  47.857  18.317  0.00  0.00    +0.228 C 
ATOM      3  C   LIG    1       16.743  49.228  18.873  0.00  0.00    +0.172 C 
ATOM      4  S   LIG    1       17.650  50.103  17.565  0.00  0.00    -0.093 S 
ATOM      5  C   LIG    1       17.593  48.746  16.475  0.00  0.00    +0.113 C 
ATOM      6  S   LIG    1       18.230  48.690  14.948  0.00  0.00    -0.028 S 
ATOM      7  N   LIG    1       16.941  47.704  17.052  0.00  0.00    -0.274 N 
ATOM      8  H   LIG    1       16.814  46.829  16.564  0.00  0.00    +0.156 HD
ENDROOT
TORSDOF 0
ENDMDL
