REMARK  Name = 
REMARK                            x       y       z     vdW  Elec       q    Type
REMARK                         _______ _______ _______ _____ _____    ______ ____
ROOT
ATOM      1  O   LIG    1        1.297   0.142   0.549  0.00  0.00    -0.275 OA
ATOM      2  C   LIG    1        2.415   0.046   0.061  0.00  0.00    +0.228 C 
ATOM      3  C   LIG    1        3.144  -1.254  -0.160  0.00  0.00    +0.172 C 
ATOM      4  S   LIG    1        4.736  -0.800  -0.906  0.00  0.00    -0.093 S 
ATOM      5  C   LIG    1        4.380   0.905  -0.879  0.00  0.00    +0.113 C 
ATOM      6  S   LIG    1        5.369   2.120  -1.413  0.00  0.00    -0.028 S 
ATOM      7  N   LIG    1        3.149   1.121  -0.349  0.00  0.00    -0.274 N 
ATOM      8  H   LIG    1        2.774   2.054  -0.256  0.00  0.00    +0.156 HD
ENDROOT
TORSDOF 0
